CHEMBL3747047
     RDKit          3D

  0  0  0  0  0  0  0  0  0  0999 V3000
M  V30 BEGIN CTAB
M  V30 COUNTS 49 51 0 0 0
M  V30 BEGIN ATOM
M  V30 1 C 1.335901 0.574375 2.561817 0
M  V30 2 C 2.264006 0.295804 1.469528 0
M  V30 3 C 3.349526 -0.528784 1.659360 0
M  V30 4 N 3.651525 -1.211559 2.864247 0
M  V30 5 S 5.165282 -1.663988 3.486837 0
M  V30 6 N 6.106125 -0.219788 3.761190 0
M  V30 7 O 4.998854 -2.406476 4.785664 0
M  V30 8 O 5.974882 -2.527479 2.565469 0
M  V30 9 C 4.267538 -0.796062 0.632965 0
M  V30 10 C 4.070147 -0.213340 -0.602548 0
M  V30 11 C 2.967539 0.599679 -0.731325 0
M  V30 12 C 2.013536 0.912367 0.242258 0
M  V30 13 O 0.962341 1.738339 -0.024472 0
M  V30 14 C -0.356030 1.484082 0.102563 0
M  V30 15 C -0.960219 2.375618 1.004859 0
M  V30 16 C -2.310834 2.338546 1.320023 0
M  V30 17 F -2.841663 3.232579 2.206084 0
M  V30 18 C -3.093149 1.378125 0.716174 0
M  V30 19 F -4.412472 1.426192 1.067993 0
M  V30 20 C -2.565051 0.456009 -0.190442 0
M  V30 21 N -3.525352 -0.430026 -0.655861 0
M  V30 22 C -4.070341 -1.730740 -0.503939 0
M  V30 23 C -4.137833 -2.650588 -1.561258 0
M  V30 24 C -4.658449 -3.900863 -1.371517 0
M  V30 25 C -5.117870 -4.252228 -0.127340 0
M  V30 26 I -5.898865 -6.207962 0.053583 0
M  V30 27 C -5.093465 -3.414318 0.976988 0
M  V30 28 C -4.550080 -2.150995 0.719716 0
M  V30 29 F -4.552618 -1.387549 1.847698 0
M  V30 30 C -1.233510 0.588129 -0.422363 0
M  V30 31 C -0.667144 -0.330196 -1.371454 0
M  V30 32 N 0.441904 -0.828904 -2.071116 0
M  V30 33 O -1.388651 -1.167930 -1.953601 0
M  V30 34 H 0.342221 0.072883 2.474027 0
M  V30 35 H 1.223018 1.689359 2.736267 0
M  V30 36 H 1.770076 0.214807 3.515291 0
M  V30 37 H 2.793998 -1.470447 3.431724 0
M  V30 38 H 6.717326 -0.313854 4.621782 0
M  V30 39 H 5.470606 0.601410 3.983276 0
M  V30 40 H 5.138837 -1.427103 0.697852 0
M  V30 41 H 4.708617 -0.344247 -1.468704 0
M  V30 42 H 2.794939 1.071837 -1.709187 0
M  V30 43 H -0.416894 3.163715 1.525455 0
M  V30 44 H -4.030552 0.089307 -1.416827 0
M  V30 45 H -3.781427 -2.373299 -2.530196 0
M  V30 46 H -4.698557 -4.600654 -2.220299 0
M  V30 47 H -5.469074 -3.754106 1.914256 0
M  V30 48 H 1.081159 -1.630323 -1.761484 0
M  V30 49 H 0.813095 -0.476807 -3.005414 0
M  V30 END ATOM
M  V30 BEGIN BOND
M  V30 1 1 1 2
M  V30 2 2 2 3
M  V30 3 1 3 4
M  V30 4 1 4 5
M  V30 5 1 5 6
M  V30 6 2 5 7
M  V30 7 2 5 8
M  V30 8 1 3 9
M  V30 9 2 9 10
M  V30 10 1 10 11
M  V30 11 2 11 12
M  V30 12 1 12 13
M  V30 13 1 13 14
M  V30 14 2 14 15
M  V30 15 1 15 16
M  V30 16 1 16 17
M  V30 17 2 16 18
M  V30 18 1 18 19
M  V30 19 1 18 20
M  V30 20 1 20 21
M  V30 21 1 21 22
M  V30 22 2 22 23
M  V30 23 1 23 24
M  V30 24 2 24 25
M  V30 25 1 25 26
M  V30 26 1 25 27
M  V30 27 2 27 28
M  V30 28 1 28 29
M  V30 29 2 20 30
M  V30 30 1 30 31
M  V30 31 1 31 32
M  V30 32 2 31 33
M  V30 33 1 12 2
M  V30 34 1 30 14
M  V30 35 1 28 22
M  V30 36 1 1 34
M  V30 37 1 1 35
M  V30 38 1 1 36
M  V30 39 1 4 37
M  V30 40 1 6 38
M  V30 41 1 6 39
M  V30 42 1 9 40
M  V30 43 1 10 41
M  V30 44 1 11 42
M  V30 45 1 15 43
M  V30 46 1 21 44
M  V30 47 1 23 45
M  V30 48 1 24 46
M  V30 49 1 27 47
M  V30 50 1 32 48
M  V30 51 1 32 49
M  V30 END BOND
M  V30 END CTAB
M  END
>  <Dataset>  (1) 
ChEMBL_Kinases

>  <Ligand_Instance>  (1) 
nan

>  <PDB_ID>  (1) 
nan

>  <Standardized_SMILES>  (1) 
Cc1c(NS(N)(=O)=O)cccc1Oc1cc(F)c(F)c(Nc2ccc(I)cc2F)c1C(N)=O

>  <Name>  (1) 
nan

>  <Pocket>  (1) 
nan

>  <ATP_Site>  (1) 
nan

>  <Peripheral>  (1) 
nan

>  <Num_H_Atoms_ProtBoundConf>  (1) 
nan

>  <Num_Resolved_Atoms>  (1) 
nan

>  <Num_Not_Resolved_Atoms>  (1) 
nan

$$$$
CHEMBL3747002
     RDKit          3D

  0  0  0  0  0  0  0  0  0  0999 V3000
M  V30 BEGIN CTAB
M  V30 COUNTS 48 52 0 0 0
M  V30 BEGIN ATOM
M  V30 1 C -1.110367 1.503784 1.781774 0
M  V30 2 N 0.051632 0.799255 1.273567 0
M  V30 3 C 1.294520 1.051804 1.718882 0
M  V30 4 O 1.393984 1.941806 2.607034 0
M  V30 5 C 2.436804 0.423640 1.284296 0
M  V30 6 S 4.043558 0.764618 1.880890 0
M  V30 7 O 5.045214 -0.151473 1.246702 0
M  V30 8 O 4.078357 0.520695 3.366763 0
M  V30 9 C 4.379156 2.451960 1.570094 0
M  V30 10 C 4.908310 2.977011 0.409595 0
M  V30 11 C 5.136757 4.326098 0.277323 0
M  V30 12 C 4.846361 5.212215 1.299421 0
M  V30 13 F 5.077012 6.544052 1.155789 0
M  V30 14 C 4.318013 4.735865 2.474233 0
M  V30 15 C 4.096458 3.360109 2.580701 0
M  V30 16 C 2.285698 -0.554924 0.300250 0
M  V30 17 C 1.022160 -0.842539 -0.182687 0
M  V30 18 C 0.951486 -1.821803 -1.151535 0
M  V30 19 N -0.292941 -2.085580 -1.605285 0
M  V30 20 C -1.376783 -1.431083 -1.135603 0
M  V30 21 N -2.598131 -1.853400 -1.732251 0
M  V30 22 C -3.359015 -2.865206 -1.066683 0
M  V30 23 C -4.545784 -3.371353 -1.599569 0
M  V30 24 C -5.285550 -4.347626 -0.947040 0
M  V30 25 C -4.835157 -4.844653 0.282577 0
M  V30 26 N -5.307136 -5.773466 1.158258 0
M  V30 27 C -4.456100 -5.858204 2.209404 0
M  V30 28 C -3.398974 -4.976290 2.039933 0
M  V30 29 C -3.664185 -4.350486 0.816278 0
M  V30 30 C -2.939563 -3.382306 0.158773 0
M  V30 31 N -1.255284 -0.468314 -0.174831 0
M  V30 32 C -0.039508 -0.150867 0.327010 0
M  V30 33 H -1.750066 0.841112 2.403137 0
M  V30 34 H -0.736198 2.343197 2.418961 0
M  V30 35 H -1.740470 1.956221 1.007181 0
M  V30 36 H 5.122516 2.240371 -0.370772 0
M  V30 37 H 5.549775 4.659316 -0.652793 0
M  V30 38 H 4.100457 5.436772 3.252397 0
M  V30 39 H 3.679077 3.099326 3.555276 0
M  V30 40 H 3.158988 -1.077115 -0.073789 0
M  V30 41 H 1.833180 -2.331348 -1.511092 0
M  V30 42 H -2.986734 -1.483263 -2.622541 0
M  V30 43 H -4.884164 -2.974725 -2.557665 0
M  V30 44 H -6.216156 -4.738019 -1.374883 0
M  V30 45 H -6.200519 -6.335368 1.027484 0
M  V30 46 H -4.530594 -6.495917 3.082251 0
M  V30 47 H -2.545115 -4.805160 2.713482 0
M  V30 48 H -2.010950 -2.985950 0.574030 0
M  V30 END ATOM
M  V30 BEGIN BOND
M  V30 1 1 1 2
M  V30 2 1 2 3
M  V30 3 2 3 4
M  V30 4 1 3 5
M  V30 5 1 5 6
M  V30 6 2 6 7
M  V30 7 2 6 8
M  V30 8 1 6 9
M  V30 9 2 9 10
M  V30 10 1 10 11
M  V30 11 2 11 12
M  V30 12 1 12 13
M  V30 13 1 12 14
M  V30 14 2 14 15
M  V30 15 2 5 16
M  V30 16 1 16 17
M  V30 17 2 17 18
M  V30 18 1 18 19
M  V30 19 2 19 20
M  V30 20 1 20 21
M  V30 21 1 21 22
M  V30 22 2 22 23
M  V30 23 1 23 24
M  V30 24 2 24 25
M  V30 25 1 25 26
M  V30 26 1 26 27
M  V30 27 2 27 28
M  V30 28 1 28 29
M  V30 29 2 29 30
M  V30 30 1 20 31
M  V30 31 2 31 32
M  V30 32 1 32 2
M  V30 33 1 15 9
M  V30 34 1 32 17
M  V30 35 1 30 22
M  V30 36 1 29 25
M  V30 37 1 1 33
M  V30 38 1 1 34
M  V30 39 1 1 35
M  V30 40 1 10 36
M  V30 41 1 11 37
M  V30 42 1 14 38
M  V30 43 1 15 39
M  V30 44 1 16 40
M  V30 45 1 18 41
M  V30 46 1 21 42
M  V30 47 1 23 43
M  V30 48 1 24 44
M  V30 49 1 26 45
M  V30 50 1 27 46
M  V30 51 1 28 47
M  V30 52 1 30 48
M  V30 END BOND
M  V30 END CTAB
M  END
>  <Dataset>  (2) 
ChEMBL_Kinases

>  <Ligand_Instance>  (2) 
nan

>  <PDB_ID>  (2) 
nan

>  <Standardized_SMILES>  (2) 
Cn1c(=O)c(S(=O)(=O)c2ccc(F)cc2)cc2cnc(Nc3ccc4[nH]ccc4c3)nc21

>  <Name>  (2) 
nan

>  <Pocket>  (2) 
nan

>  <ATP_Site>  (2) 
nan

>  <Peripheral>  (2) 
nan

>  <Num_H_Atoms_ProtBoundConf>  (2) 
nan

>  <Num_Resolved_Atoms>  (2) 
nan

>  <Num_Not_Resolved_Atoms>  (2) 
nan

$$$$
CHEMBL3746969
     RDKit          3D

  0  0  0  0  0  0  0  0  0  0999 V3000
M  V30 BEGIN CTAB
M  V30 COUNTS 45 48 0 0 0
M  V30 BEGIN ATOM
M  V30 1 C 2.569823 -2.742240 2.763163 0
M  V30 2 N 2.238888 -1.663041 1.859760 0
M  V30 3 C 3.094222 -0.831705 1.226896 0
M  V30 4 O 4.284903 -1.160980 1.564415 0
M  V30 5 C 2.685841 0.199999 0.358029 0
M  V30 6 O 3.802392 0.814202 -0.082022 0
M  V30 7 C 4.038841 1.845965 -0.914328 0
M  V30 8 C 3.341380 2.737738 -1.684916 0
M  V30 9 C 3.877683 3.729582 -2.467475 0
M  V30 10 C 5.236900 3.849303 -2.488430 0
M  V30 11 F 5.728977 4.843525 -3.275450 0
M  V30 12 C 6.033573 2.991029 -1.739668 0
M  V30 13 C 5.430692 2.006403 -0.966806 0
M  V30 14 F 6.410696 1.301031 -0.332964 0
M  V30 15 C 1.322029 0.277904 0.216724 0
M  V30 16 C 0.438095 -0.539430 0.836487 0
M  V30 17 C -0.901816 -0.335075 0.592883 0
M  V30 18 N -1.762974 -1.152266 1.213815 0
M  V30 19 C -1.333055 -2.125376 2.035877 0
M  V30 20 N -2.294123 -2.971125 2.674502 0
M  V30 21 C -3.716623 -2.817206 2.463042 0
M  V30 22 C -4.252697 -1.494889 2.831222 0
M  V30 23 C -4.802139 -0.839119 1.615732 0
M  V30 24 C -4.723269 -1.850060 0.528631 0
M  V30 25 C -4.160261 -3.100427 1.086293 0
M  V30 26 N -0.017631 -2.300948 2.254498 0
M  V30 27 C 0.898332 -1.530211 1.674754 0
M  V30 28 H 3.578938 -2.499742 3.207654 0
M  V30 29 H 1.891704 -2.794305 3.628850 0
M  V30 30 H 2.588442 -3.737385 2.277080 0
M  V30 31 H 2.296442 2.587955 -1.621472 0
M  V30 32 H 3.182187 4.334780 -3.003044 0
M  V30 33 H 7.080160 3.213019 -1.862203 0
M  V30 34 H 1.042829 1.062044 -0.441883 0
M  V30 35 H -1.267146 0.424697 -0.050638 0
M  V30 36 H -1.905908 -3.727258 3.319644 0
M  V30 37 H -4.205543 -3.594267 3.137237 0
M  V30 38 H -5.124883 -1.618696 3.538693 0
M  V30 39 H -3.550956 -0.853150 3.406916 0
M  V30 40 H -5.869504 -0.499410 1.739507 0
M  V30 41 H -4.264924 0.086317 1.321122 0
M  V30 42 H -4.054668 -1.511000 -0.321682 0
M  V30 43 H -5.757318 -2.001801 0.087481 0
M  V30 44 H -4.956175 -3.911396 1.094080 0
M  V30 45 H -3.343524 -3.475989 0.418136 0
M  V30 END ATOM
M  V30 BEGIN BOND
M  V30 1 1 1 2
M  V30 2 1 2 3
M  V30 3 2 3 4
M  V30 4 1 3 5
M  V30 5 1 5 6
M  V30 6 1 6 7
M  V30 7 2 7 8
M  V30 8 1 8 9
M  V30 9 2 9 10
M  V30 10 1 10 11
M  V30 11 1 10 12
M  V30 12 2 12 13
M  V30 13 1 13 14
M  V30 14 2 5 15
M  V30 15 1 15 16
M  V30 16 2 16 17
M  V30 17 1 17 18
M  V30 18 2 18 19
M  V30 19 1 19 20
M  V30 20 1 20 21
M  V30 21 1 21 22
M  V30 22 1 22 23
M  V30 23 1 23 24
M  V30 24 1 24 25
M  V30 25 1 19 26
M  V30 26 2 26 27
M  V30 27 1 27 2
M  V30 28 1 13 7
M  V30 29 1 27 16
M  V30 30 1 25 21
M  V30 31 1 1 28
M  V30 32 1 1 29
M  V30 33 1 1 30
M  V30 34 1 8 31
M  V30 35 1 9 32
M  V30 36 1 12 33
M  V30 37 1 15 34
M  V30 38 1 17 35
M  V30 39 1 20 36
M  V30 40 1 21 37
M  V30 41 1 22 38
M  V30 42 1 22 39
M  V30 43 1 23 40
M  V30 44 1 23 41
M  V30 45 1 24 42
M  V30 46 1 24 43
M  V30 47 1 25 44
M  V30 48 1 25 45
M  V30 END BOND
M  V30 END CTAB
M  END
>  <Dataset>  (3) 
ChEMBL_Kinases

>  <Ligand_Instance>  (3) 
nan

>  <PDB_ID>  (3) 
nan

>  <Standardized_SMILES>  (3) 
Cn1c(=O)c(Oc2ccc(F)cc2F)cc2cnc(NC3CCCC3)nc21

>  <Name>  (3) 
nan

>  <Pocket>  (3) 
nan

>  <ATP_Site>  (3) 
nan

>  <Peripheral>  (3) 
nan

>  <Num_H_Atoms_ProtBoundConf>  (3) 
nan

>  <Num_Resolved_Atoms>  (3) 
nan

>  <Num_Not_Resolved_Atoms>  (3) 
nan

$$$$
CHEMBL3746959
     RDKit          3D

  0  0  0  0  0  0  0  0  0  0999 V3000
M  V30 BEGIN CTAB
M  V30 COUNTS 58 62 0 0 0
M  V30 BEGIN ATOM
M  V30 1 C 1.419633 -0.913882 3.522279 0
M  V30 2 N 1.629986 0.473738 3.169666 0
M  V30 3 C 2.784335 1.161005 3.171042 0
M  V30 4 O 3.720912 0.374417 3.551260 0
M  V30 5 C 2.869867 2.509019 2.807157 0
M  V30 6 O 4.190310 2.910706 2.918617 0
M  V30 7 C 5.163333 2.330710 2.129937 0
M  V30 8 C 4.855062 1.390200 1.169217 0
M  V30 9 C 5.803407 0.778003 0.354873 0
M  V30 10 C 7.134060 1.121918 0.505294 0
M  V30 11 F 8.072628 0.535447 -0.281220 0
M  V30 12 C 7.487852 2.062411 1.457702 0
M  V30 13 C 6.501234 2.620648 2.220592 0
M  V30 14 F 6.891343 3.542272 3.149258 0
M  V30 15 C 1.718333 3.169164 2.428774 0
M  V30 16 C 0.551180 2.437747 2.437972 0
M  V30 17 C -0.567429 3.147953 2.049385 0
M  V30 18 N -1.773234 2.520613 2.021345 0
M  V30 19 C -1.838468 1.226147 2.373052 0
M  V30 20 N -2.932222 0.312776 2.434432 0
M  V30 21 C -3.134579 -0.502411 1.267679 0
M  V30 22 C -4.158922 -1.437446 1.208984 0
M  V30 23 C -4.324408 -2.207513 0.077454 0
M  V30 24 C -3.507118 -2.092402 -1.019666 0
M  V30 25 N -3.680760 -2.888293 -2.166068 0
M  V30 26 C -4.580356 -4.021389 -2.264366 0
M  V30 27 C -3.777174 -5.197066 -2.777186 0
M  V30 28 C -2.290570 -4.876050 -2.632780 0
M  V30 29 O -2.073337 -4.590989 -1.287888 0
M  V30 30 C -1.891762 -3.712705 -3.509189 0
M  V30 31 C -2.986097 -2.674787 -3.421312 0
M  V30 32 C -2.480032 -1.172793 -0.992952 0
M  V30 33 C -2.351755 -0.425480 0.156142 0
M  V30 34 N -0.724285 0.537751 2.754749 0
M  V30 35 C 0.491719 1.122409 2.796595 0
M  V30 36 H 1.290503 -1.440807 2.531831 0
M  V30 37 H 2.273603 -1.401613 3.995582 0
M  V30 38 H 0.467641 -1.063863 4.061208 0
M  V30 39 H 3.859696 1.050375 0.951566 0
M  V30 40 H 5.563461 0.042681 -0.397906 0
M  V30 41 H 8.535662 2.297031 1.537818 0
M  V30 42 H 1.908627 4.187077 2.175844 0
M  V30 43 H -0.539086 4.185778 1.761836 0
M  V30 44 H -3.591989 0.175277 3.228947 0
M  V30 45 H -4.802866 -1.528230 2.074189 0
M  V30 46 H -5.153605 -2.909171 0.126354 0
M  V30 47 H -5.054365 -4.318429 -1.325582 0
M  V30 48 H -5.407935 -3.846626 -2.985376 0
M  V30 49 H -3.947567 -6.073709 -2.129690 0
M  V30 50 H -4.021252 -5.475796 -3.822781 0
M  V30 51 H -1.649076 -5.716294 -2.898355 0
M  V30 52 H -1.942356 -5.438965 -0.761691 0
M  V30 53 H -0.966369 -3.253534 -3.089173 0
M  V30 54 H -1.707713 -4.030397 -4.558868 0
M  V30 55 H -2.586811 -1.622321 -3.510704 0
M  V30 56 H -3.683320 -2.758984 -4.289181 0
M  V30 57 H -1.770046 -0.986009 -1.780259 0
M  V30 58 H -1.542916 0.316826 0.210826 0
M  V30 END ATOM
M  V30 BEGIN BOND
M  V30 1 1 1 2
M  V30 2 1 2 3
M  V30 3 2 3 4
M  V30 4 1 3 5
M  V30 5 1 5 6
M  V30 6 1 6 7
M  V30 7 2 7 8
M  V30 8 1 8 9
M  V30 9 2 9 10
M  V30 10 1 10 11
M  V30 11 1 10 12
M  V30 12 2 12 13
M  V30 13 1 13 14
M  V30 14 2 5 15
M  V30 15 1 15 16
M  V30 16 2 16 17
M  V30 17 1 17 18
M  V30 18 2 18 19
M  V30 19 1 19 20
M  V30 20 1 20 21
M  V30 21 2 21 22
M  V30 22 1 22 23
M  V30 23 2 23 24
M  V30 24 1 24 25
M  V30 25 1 25 26
M  V30 26 1 26 27
M  V30 27 1 27 28
M  V30 28 1 28 29
M  V30 29 1 28 30
M  V30 30 1 30 31
M  V30 31 1 24 32
M  V30 32 2 32 33
M  V30 33 1 19 34
M  V30 34 2 34 35
M  V30 35 1 35 2
M  V30 36 1 13 7
M  V30 37 1 35 16
M  V30 38 1 33 21
M  V30 39 1 31 25
M  V30 40 1 1 36
M  V30 41 1 1 37
M  V30 42 1 1 38
M  V30 43 1 8 39
M  V30 44 1 9 40
M  V30 45 1 12 41
M  V30 46 1 15 42
M  V30 47 1 17 43
M  V30 48 1 20 44
M  V30 49 1 22 45
M  V30 50 1 23 46
M  V30 51 1 26 47
M  V30 52 1 26 48
M  V30 53 1 27 49
M  V30 54 1 27 50
M  V30 55 1 28 51
M  V30 56 1 29 52
M  V30 57 1 30 53
M  V30 58 1 30 54
M  V30 59 1 31 55
M  V30 60 1 31 56
M  V30 61 1 32 57
M  V30 62 1 33 58
M  V30 END BOND
M  V30 END CTAB
M  END
>  <Dataset>  (4) 
ChEMBL_Kinases

>  <Ligand_Instance>  (4) 
nan

>  <PDB_ID>  (4) 
nan

>  <Standardized_SMILES>  (4) 
Cn1c(=O)c(Oc2ccc(F)cc2F)cc2cnc(Nc3ccc(N4CCC(O)CC4)cc3)nc21

>  <Name>  (4) 
nan

>  <Pocket>  (4) 
nan

>  <ATP_Site>  (4) 
nan

>  <Peripheral>  (4) 
nan

>  <Num_H_Atoms_ProtBoundConf>  (4) 
nan

>  <Num_Resolved_Atoms>  (4) 
nan

>  <Num_Not_Resolved_Atoms>  (4) 
nan

$$$$
CHEMBL3746951
     RDKit          3D

  0  0  0  0  0  0  0  0  0  0999 V3000
M  V30 BEGIN CTAB
M  V30 COUNTS 47 50 0 0 0
M  V30 BEGIN ATOM
M  V30 1 C -0.835983 0.324709 -0.582164 0
M  V30 2 N 0.008170 0.987125 0.402369 0
M  V30 3 C 0.764547 2.052807 0.182159 0
M  V30 4 O 0.718768 2.494885 -0.995716 0
M  V30 5 C 1.536924 2.622453 1.177341 0
M  V30 6 O 2.296280 3.743920 0.833379 0
M  V30 7 C 3.252563 3.586321 -0.184599 0
M  V30 8 C 3.096660 4.388782 -1.302540 0
M  V30 9 C 4.012218 4.268468 -2.327601 0
M  V30 10 C 5.070648 3.370944 -2.258981 0
M  V30 11 F 5.982297 3.240654 -3.261871 0
M  V30 12 C 5.198243 2.583745 -1.128446 0
M  V30 13 C 4.302458 2.672240 -0.077204 0
M  V30 14 F 4.403058 1.912471 1.044218 0
M  V30 15 C 1.499096 2.041328 2.430563 0
M  V30 16 C 0.716326 0.930678 2.676807 0
M  V30 17 C 0.691279 0.362748 3.936422 0
M  V30 18 N -0.082330 -0.733457 4.174235 0
M  V30 19 C -0.815242 -1.236693 3.140685 0
M  V30 20 N -1.688846 -2.359022 3.139550 0
M  V30 21 C -0.918092 -3.545268 2.836894 0
M  V30 22 C -1.750408 -4.802244 2.792317 0
M  V30 23 C -2.782830 -4.677692 1.751959 0
M  V30 24 C -2.478209 -5.104695 0.454134 0
M  V30 25 C -3.409040 -5.011076 -0.559003 0
M  V30 26 C -4.656566 -4.490210 -0.291310 0
M  V30 27 C -4.893343 -4.085524 1.016427 0
M  V30 28 N -4.000981 -4.167874 2.017895 0
M  V30 29 N -0.775814 -0.663763 1.913333 0
M  V30 30 C -0.025447 0.421820 1.630581 0
M  V30 31 H -0.972357 1.059580 -1.401028 0
M  V30 32 H -0.324867 -0.571780 -0.941104 0
M  V30 33 H -1.841746 0.120292 -0.172499 0
M  V30 34 H 2.307541 5.105985 -1.433023 0
M  V30 35 H 3.988296 4.840342 -3.240708 0
M  V30 36 H 6.022033 1.881217 -1.068807 0
M  V30 37 H 2.106966 2.493608 3.205529 0
M  V30 38 H 1.263585 0.755137 4.744096 0
M  V30 39 H -2.664239 -2.064457 3.354097 0
M  V30 40 H -0.503810 -3.403852 1.807847 0
M  V30 41 H -0.088253 -3.626768 3.571428 0
M  V30 42 H -1.075061 -5.633339 2.507635 0
M  V30 43 H -2.162463 -5.069780 3.785499 0
M  V30 44 H -1.482830 -5.512188 0.272138 0
M  V30 45 H -3.116020 -5.357129 -1.541645 0
M  V30 46 H -5.399777 -4.408717 -1.072477 0
M  V30 47 H -5.903315 -3.680998 1.162786 0
M  V30 END ATOM
M  V30 BEGIN BOND
M  V30 1 1 1 2
M  V30 2 1 2 3
M  V30 3 2 3 4
M  V30 4 1 3 5
M  V30 5 1 5 6
M  V30 6 1 6 7
M  V30 7 2 7 8
M  V30 8 1 8 9
M  V30 9 2 9 10
M  V30 10 1 10 11
M  V30 11 1 10 12
M  V30 12 2 12 13
M  V30 13 1 13 14
M  V30 14 2 5 15
M  V30 15 1 15 16
M  V30 16 2 16 17
M  V30 17 1 17 18
M  V30 18 2 18 19
M  V30 19 1 19 20
M  V30 20 1 20 21
M  V30 21 1 21 22
M  V30 22 1 22 23
M  V30 23 2 23 24
M  V30 24 1 24 25
M  V30 25 2 25 26
M  V30 26 1 26 27
M  V30 27 2 27 28
M  V30 28 1 19 29
M  V30 29 2 29 30
M  V30 30 1 30 2
M  V30 31 1 13 7
M  V30 32 1 30 16
M  V30 33 1 28 23
M  V30 34 1 1 31
M  V30 35 1 1 32
M  V30 36 1 1 33
M  V30 37 1 8 34
M  V30 38 1 9 35
M  V30 39 1 12 36
M  V30 40 1 15 37
M  V30 41 1 17 38
M  V30 42 1 20 39
M  V30 43 1 21 40
M  V30 44 1 21 41
M  V30 45 1 22 42
M  V30 46 1 22 43
M  V30 47 1 24 44
M  V30 48 1 25 45
M  V30 49 1 26 46
M  V30 50 1 27 47
M  V30 END BOND
M  V30 END CTAB
M  END
>  <Dataset>  (5) 
ChEMBL_Kinases

>  <Ligand_Instance>  (5) 
nan

>  <PDB_ID>  (5) 
nan

>  <Standardized_SMILES>  (5) 
Cn1c(=O)c(Oc2ccc(F)cc2F)cc2cnc(NCCc3ccccn3)nc21

>  <Name>  (5) 
nan

>  <Pocket>  (5) 
nan

>  <ATP_Site>  (5) 
nan

>  <Peripheral>  (5) 
nan

>  <Num_H_Atoms_ProtBoundConf>  (5) 
nan

>  <Num_Resolved_Atoms>  (5) 
nan

>  <Num_Not_Resolved_Atoms>  (5) 
nan

$$$$
CHEMBL3746923
     RDKit          3D

  0  0  0  0  0  0  0  0  0  0999 V3000
M  V30 BEGIN CTAB
M  V30 COUNTS 49 51 0 0 0
M  V30 BEGIN ATOM
M  V30 1 N -0.230425 1.089121 -3.298628 0
M  V30 2 C -0.803955 0.925589 -2.093674 0
M  V30 3 O 0.203459 1.755925 -1.829496 0
M  V30 4 C -1.421490 0.743715 -0.821332 0
M  V30 5 C -1.061501 1.567461 0.161385 0
M  V30 6 N 0.067011 2.380150 0.319832 0
M  V30 7 C 0.252059 2.363569 1.744937 0
M  V30 8 C 0.203658 3.356620 2.672764 0
M  V30 9 C 0.301087 3.056120 4.038707 0
M  V30 10 C 0.446768 1.786225 4.558449 0
M  V30 11 I 0.491680 1.336884 6.596873 0
M  V30 12 C 0.510024 0.710395 3.647689 0
M  V30 13 C 0.414489 1.068689 2.331605 0
M  V30 14 F 0.501780 -0.010217 1.449025 0
M  V30 15 C -1.927373 1.237106 1.232103 0
M  V30 16 C -2.968682 0.275365 1.398180 0
M  V30 17 F -3.678188 0.119170 2.484395 0
M  V30 18 C -3.033063 -0.379766 0.119397 0
M  V30 19 C -2.311462 -0.210959 -1.004498 0
M  V30 20 O -2.670942 -1.076138 -2.092845 0
M  V30 21 C -1.779134 -2.226446 -1.916038 0
M  V30 22 C -2.410392 -3.437686 -1.617673 0
M  V30 23 C -1.808475 -4.633638 -1.404677 0
M  V30 24 C -0.464592 -4.678875 -1.486473 0
M  V30 25 C 0.290686 -3.531081 -1.785542 0
M  V30 26 C 1.748499 -3.301350 -1.851600 0
M  V30 27 N 2.286705 -2.623468 -0.723888 0
M  V30 28 S 3.996542 -2.392996 -0.960743 0
M  V30 29 N 4.344664 -0.723930 -0.790743 0
M  V30 30 O 4.849059 -3.290542 -0.141295 0
M  V30 31 O 4.294203 -2.757569 -2.447689 0
M  V30 32 C -0.385443 -2.377661 -1.982145 0
M  V30 33 H 0.400733 0.908328 -4.049643 0
M  V30 34 H -0.547432 1.839540 -4.033104 0
M  V30 35 H 0.823494 2.953300 0.159510 0
M  V30 36 H 0.101186 4.341512 2.265385 0
M  V30 37 H 0.266194 3.881567 4.747502 0
M  V30 38 H 0.637927 -0.332157 3.962555 0
M  V30 39 H -1.867629 1.812069 2.203764 0
M  V30 40 H -3.841934 -1.145876 0.196948 0
M  V30 41 H -3.481232 -3.453366 -1.547717 0
M  V30 42 H -2.299402 -5.583818 -1.177105 0
M  V30 43 H 0.205778 -5.560921 -1.333808 0
M  V30 44 H 2.283651 -4.289975 -1.924966 0
M  V30 45 H 1.957504 -2.721865 -2.792697 0
M  V30 46 H 1.899103 -1.613506 -0.689910 0
M  V30 47 H 3.696865 -0.143859 -1.338728 0
M  V30 48 H 4.316061 -0.518927 0.214894 0
M  V30 49 H 0.115532 -1.462570 -2.210895 0
M  V30 END ATOM
M  V30 BEGIN BOND
M  V30 1 1 1 2
M  V30 2 2 2 3
M  V30 3 1 2 4
M  V30 4 2 4 5
M  V30 5 1 5 6
M  V30 6 1 6 7
M  V30 7 2 7 8
M  V30 8 1 8 9
M  V30 9 2 9 10
M  V30 10 1 10 11
M  V30 11 1 10 12
M  V30 12 2 12 13
M  V30 13 1 13 14
M  V30 14 1 5 15
M  V30 15 2 15 16
M  V30 16 1 16 17
M  V30 17 1 16 18
M  V30 18 2 18 19
M  V30 19 1 19 20
M  V30 20 1 20 21
M  V30 21 2 21 22
M  V30 22 1 22 23
M  V30 23 2 23 24
M  V30 24 1 24 25
M  V30 25 1 25 26
M  V30 26 1 26 27
M  V30 27 1 27 28
M  V30 28 1 28 29
M  V30 29 2 28 30
M  V30 30 2 28 31
M  V30 31 2 25 32
M  V30 32 1 19 4
M  V30 33 1 32 21
M  V30 34 1 13 7
M  V30 35 1 1 33
M  V30 36 1 1 34
M  V30 37 1 6 35
M  V30 38 1 8 36
M  V30 39 1 9 37
M  V30 40 1 12 38
M  V30 41 1 15 39
M  V30 42 1 18 40
M  V30 43 1 22 41
M  V30 44 1 23 42
M  V30 45 1 24 43
M  V30 46 1 26 44
M  V30 47 1 26 45
M  V30 48 1 27 46
M  V30 49 1 29 47
M  V30 50 1 29 48
M  V30 51 1 32 49
M  V30 END BOND
M  V30 END CTAB
M  END
>  <Dataset>  (6) 
ChEMBL_Kinases

>  <Ligand_Instance>  (6) 
nan

>  <PDB_ID>  (6) 
nan

>  <Standardized_SMILES>  (6) 
NC(=O)c1c(Nc2ccc(I)cc2F)cc(F)cc1Oc1cccc(CNS(N)(=O)=O)c1

>  <Name>  (6) 
nan

>  <Pocket>  (6) 
nan

>  <ATP_Site>  (6) 
nan

>  <Peripheral>  (6) 
nan

>  <Num_H_Atoms_ProtBoundConf>  (6) 
nan

>  <Num_Resolved_Atoms>  (6) 
nan

>  <Num_Not_Resolved_Atoms>  (6) 
nan

$$$$
CHEMBL3746910
     RDKit          3D

  0  0  0  0  0  0  0  0  0  0999 V3000
M  V30 BEGIN CTAB
M  V30 COUNTS 48 52 0 0 0
M  V30 BEGIN ATOM
M  V30 1 C -0.578134 0.318930 2.215713 0
M  V30 2 N 0.735584 -0.062499 1.716322 0
M  V30 3 C 1.828718 0.645121 2.056533 0
M  V30 4 O 1.682273 1.635685 2.811314 0
M  V30 5 C 3.099999 0.335683 1.617209 0
M  V30 6 S 4.534879 1.245572 2.049390 0
M  V30 7 O 5.696229 0.617866 1.332576 0
M  V30 8 O 4.780413 1.207794 3.527866 0
M  V30 9 C 4.315005 2.890484 1.484035 0
M  V30 10 C 4.741354 3.161164 0.186611 0
M  V30 11 C 4.630003 4.421377 -0.391234 0
M  V30 12 C 4.077332 5.449236 0.340966 0
M  V30 13 C 3.653577 5.187283 1.625690 0
M  V30 14 C 3.766431 3.939884 2.190851 0
M  V30 15 C 3.156865 -0.774132 0.789454 0
M  V30 16 C 2.051688 -1.516030 0.425980 0
M  V30 17 C 2.102472 -2.619198 -0.395861 0
M  V30 18 N 0.968650 -3.270154 -0.687504 0
M  V30 19 C -0.251810 -2.930963 -0.234678 0
M  V30 20 N -1.380929 -3.698461 -0.612932 0
M  V30 21 C -2.730920 -3.492942 -0.236919 0
M  V30 22 C -3.213747 -2.497430 0.576736 0
M  V30 23 C -4.525373 -2.304220 0.937472 0
M  V30 24 C -5.458210 -3.189332 0.440882 0
M  V30 25 N -6.790285 -3.339150 0.552375 0
M  V30 26 C -7.244797 -4.385807 -0.142835 0
M  V30 27 C -6.148562 -4.963283 -0.750737 0
M  V30 28 C -5.037446 -4.211577 -0.382118 0
M  V30 29 C -3.706244 -4.345276 -0.702283 0
M  V30 30 N -0.252331 -1.852004 0.560955 0
M  V30 31 C 0.820948 -1.134553 0.911673 0
M  V30 32 H -0.454757 1.162726 2.948003 0
M  V30 33 H -1.087386 -0.511656 2.717706 0
M  V30 34 H -1.180024 0.741619 1.374739 0
M  V30 35 H 5.195368 2.427469 -0.491122 0
M  V30 36 H 4.958314 4.638181 -1.396074 0
M  V30 37 H 3.947488 6.464628 -0.020076 0
M  V30 38 H 3.206210 5.962005 2.257853 0
M  V30 39 H 3.448739 3.703126 3.184199 0
M  V30 40 H 4.111632 -1.106514 0.385769 0
M  V30 41 H 3.050744 -2.936746 -0.787502 0
M  V30 42 H -1.195946 -4.509774 -1.242041 0
M  V30 43 H -2.527014 -1.777568 0.992544 0
M  V30 44 H -4.832197 -1.494369 1.585096 0
M  V30 45 H -7.358493 -2.675333 1.135944 0
M  V30 46 H -8.275629 -4.691343 -0.196189 0
M  V30 47 H -6.145088 -5.849351 -1.403973 0
M  V30 48 H -3.441569 -5.183377 -1.363652 0
M  V30 END ATOM
M  V30 BEGIN BOND
M  V30 1 1 1 2
M  V30 2 1 2 3
M  V30 3 2 3 4
M  V30 4 1 3 5
M  V30 5 1 5 6
M  V30 6 2 6 7
M  V30 7 2 6 8
M  V30 8 1 6 9
M  V30 9 2 9 10
M  V30 10 1 10 11
M  V30 11 2 11 12
M  V30 12 1 12 13
M  V30 13 2 13 14
M  V30 14 2 5 15
M  V30 15 1 15 16
M  V30 16 2 16 17
M  V30 17 1 17 18
M  V30 18 2 18 19
M  V30 19 1 19 20
M  V30 20 1 20 21
M  V30 21 2 21 22
M  V30 22 1 22 23
M  V30 23 2 23 24
M  V30 24 1 24 25
M  V30 25 1 25 26
M  V30 26 2 26 27
M  V30 27 1 27 28
M  V30 28 2 28 29
M  V30 29 1 19 30
M  V30 30 2 30 31
M  V30 31 1 31 2
M  V30 32 1 14 9
M  V30 33 1 31 16
M  V30 34 1 29 21
M  V30 35 1 28 24
M  V30 36 1 1 32
M  V30 37 1 1 33
M  V30 38 1 1 34
M  V30 39 1 10 35
M  V30 40 1 11 36
M  V30 41 1 12 37
M  V30 42 1 13 38
M  V30 43 1 14 39
M  V30 44 1 15 40
M  V30 45 1 17 41
M  V30 46 1 20 42
M  V30 47 1 22 43
M  V30 48 1 23 44
M  V30 49 1 25 45
M  V30 50 1 26 46
M  V30 51 1 27 47
M  V30 52 1 29 48
M  V30 END BOND
M  V30 END CTAB
M  END
>  <Dataset>  (7) 
ChEMBL_Kinases

>  <Ligand_Instance>  (7) 
nan

>  <PDB_ID>  (7) 
nan

>  <Standardized_SMILES>  (7) 
Cn1c(=O)c(S(=O)(=O)c2ccccc2)cc2cnc(Nc3ccc4[nH]ccc4c3)nc21

>  <Name>  (7) 
nan

>  <Pocket>  (7) 
nan

>  <ATP_Site>  (7) 
nan

>  <Peripheral>  (7) 
nan

>  <Num_H_Atoms_ProtBoundConf>  (7) 
nan

>  <Num_Resolved_Atoms>  (7) 
nan

>  <Num_Not_Resolved_Atoms>  (7) 
nan

$$$$
CHEMBL3746889
     RDKit          3D

  0  0  0  0  0  0  0  0  0  0999 V3000
M  V30 BEGIN CTAB
M  V30 COUNTS 49 51 0 0 0
M  V30 BEGIN ATOM
M  V30 1 C -1.122565 0.260482 -0.779191 0
M  V30 2 N -0.372900 0.721804 0.365214 0
M  V30 3 C 0.248238 1.905923 0.325253 0
M  V30 4 O 0.225600 2.671679 -0.669884 0
M  V30 5 C 0.976332 2.398701 1.381399 0
M  V30 6 O 1.665696 3.570638 1.512330 0
M  V30 7 C 2.711902 4.015660 0.756032 0
M  V30 8 C 2.740125 5.180677 0.008605 0
M  V30 9 C 3.848662 5.542109 -0.723354 0
M  V30 10 C 4.985821 4.731264 -0.729145 0
M  V30 11 F 6.105949 5.061440 -1.446652 0
M  V30 12 C 4.984236 3.555955 0.012658 0
M  V30 13 C 3.853993 3.207286 0.746433 0
M  V30 14 F 3.891807 2.048088 1.460119 0
M  V30 15 C 1.063452 1.619197 2.540777 0
M  V30 16 C 0.421466 0.376745 2.605007 0
M  V30 17 C 0.493746 -0.408851 3.738057 0
M  V30 18 N -0.155373 -1.603742 3.727446 0
M  V30 19 C -0.845341 -2.000461 2.640110 0
M  V30 20 N -1.465716 -3.271585 2.789116 0
M  V30 21 C -0.637456 -4.388948 2.375771 0
M  V30 22 C -0.268911 -4.276185 0.935139 0
M  V30 23 C -1.446512 -4.258221 0.003775 0
M  V30 24 N -2.270895 -5.397991 0.050276 0
M  V30 25 S -3.607286 -5.388820 -0.999835 0
M  V30 26 C -4.711552 -4.047743 -0.630593 0
M  V30 27 O -3.071889 -5.122453 -2.400950 0
M  V30 28 O -4.328732 -6.679074 -1.072775 0
M  V30 29 N -0.898002 -1.213853 1.550630 0
M  V30 30 C -0.282659 -0.019174 1.484313 0
M  V30 31 H -0.449245 -0.372597 -1.410842 0
M  V30 32 H -1.582500 1.083297 -1.354152 0
M  V30 33 H -1.960225 -0.422396 -0.476505 0
M  V30 34 H 1.843820 5.801167 0.024928 0
M  V30 35 H 3.856599 6.454657 -1.302367 0
M  V30 36 H 5.861050 2.905372 0.024175 0
M  V30 37 H 1.603804 1.885253 3.447350 0
M  V30 38 H 1.052325 -0.077441 4.605696 0
M  V30 39 H -2.400022 -3.036364 3.177277 0
M  V30 40 H -1.074019 -5.365480 2.652760 0
M  V30 41 H 0.286763 -4.302163 2.984140 0
M  V30 42 H 0.314120 -3.341775 0.797677 0
M  V30 43 H 0.418315 -5.092491 0.633404 0
M  V30 44 H -1.111243 -4.082020 -1.038795 0
M  V30 45 H -2.096005 -3.373492 0.234582 0
M  V30 46 H -1.846077 -6.312461 0.256341 0
M  V30 47 H -5.580251 -4.430250 -0.025264 0
M  V30 48 H -4.223922 -3.280589 0.010692 0
M  V30 49 H -5.051622 -3.538223 -1.551578 0
M  V30 END ATOM
M  V30 BEGIN BOND
M  V30 1 1 1 2
M  V30 2 1 2 3
M  V30 3 2 3 4
M  V30 4 1 3 5
M  V30 5 1 5 6
M  V30 6 1 6 7
M  V30 7 2 7 8
M  V30 8 1 8 9
M  V30 9 2 9 10
M  V30 10 1 10 11
M  V30 11 1 10 12
M  V30 12 2 12 13
M  V30 13 1 13 14
M  V30 14 2 5 15
M  V30 15 1 15 16
M  V30 16 2 16 17
M  V30 17 1 17 18
M  V30 18 2 18 19
M  V30 19 1 19 20
M  V30 20 1 20 21
M  V30 21 1 21 22
M  V30 22 1 22 23
M  V30 23 1 23 24
M  V30 24 1 24 25
M  V30 25 1 25 26
M  V30 26 2 25 27
M  V30 27 2 25 28
M  V30 28 1 19 29
M  V30 29 2 29 30
M  V30 30 1 30 2
M  V30 31 1 13 7
M  V30 32 1 30 16
M  V30 33 1 1 31
M  V30 34 1 1 32
M  V30 35 1 1 33
M  V30 36 1 8 34
M  V30 37 1 9 35
M  V30 38 1 12 36
M  V30 39 1 15 37
M  V30 40 1 17 38
M  V30 41 1 20 39
M  V30 42 1 21 40
M  V30 43 1 21 41
M  V30 44 1 22 42
M  V30 45 1 22 43
M  V30 46 1 23 44
M  V30 47 1 23 45
M  V30 48 1 24 46
M  V30 49 1 26 47
M  V30 50 1 26 48
M  V30 51 1 26 49
M  V30 END BOND
M  V30 END CTAB
M  END
>  <Dataset>  (8) 
ChEMBL_Kinases

>  <Ligand_Instance>  (8) 
nan

>  <PDB_ID>  (8) 
nan

>  <Standardized_SMILES>  (8) 
Cn1c(=O)c(Oc2ccc(F)cc2F)cc2cnc(NCCCNS(C)(=O)=O)nc21

>  <Name>  (8) 
nan

>  <Pocket>  (8) 
nan

>  <ATP_Site>  (8) 
nan

>  <Peripheral>  (8) 
nan

>  <Num_H_Atoms_ProtBoundConf>  (8) 
nan

>  <Num_Resolved_Atoms>  (8) 
nan

>  <Num_Not_Resolved_Atoms>  (8) 
nan

$$$$
CHEMBL374677
     RDKit          3D

  0  0  0  0  0  0  0  0  0  0999 V3000
M  V30 BEGIN CTAB
M  V30 COUNTS 48 51 0 0 0
M  V30 BEGIN ATOM
M  V30 1 O 2.377701 -0.297650 3.066067 0
M  V30 2 C 1.607761 0.141673 2.193110 0
M  V30 3 N 2.183197 0.850287 1.083644 0
M  V30 4 C 3.610927 1.002383 1.061001 0
M  V30 5 C 4.066251 2.432327 1.016585 0
M  V30 6 O 3.587135 3.069915 2.140846 0
M  V30 7 C 4.107494 0.360109 -0.185412 0
M  V30 8 C 5.226797 -0.471056 -0.158335 0
M  V30 9 C 5.667961 -1.056285 -1.332487 0
M  V30 10 C 5.030617 -0.836766 -2.515316 0
M  V30 11 F 5.405131 -1.376385 -3.708870 0
M  V30 12 C 3.922526 -0.023364 -2.585282 0
M  V30 13 C 3.482381 0.561774 -1.407713 0
M  V30 14 C 0.138113 -0.027946 2.239823 0
M  V30 15 C -0.840838 0.389738 1.373161 0
M  V30 16 C -2.056063 -0.034509 1.892290 0
M  V30 17 C -3.293701 0.266772 1.181628 0
M  V30 18 N -3.740133 1.524280 0.910988 0
M  V30 19 N -4.875850 1.427505 0.262696 0
M  V30 20 C -5.213595 0.125091 0.085544 0
M  V30 21 C -4.209144 -0.628424 0.669130 0
M  V30 22 C -4.154698 -2.084489 0.718389 0
M  V30 23 C -5.260151 -2.579020 1.417599 0
M  V30 24 C -5.437384 -3.951515 1.601811 0
M  V30 25 C -4.500182 -4.826300 1.081187 0
M  V30 26 C -3.415187 -4.318928 0.393763 0
M  V30 27 Cl -2.203769 -5.367557 -0.284213 0
M  V30 28 C -3.228070 -2.967585 0.204783 0
M  V30 29 C -1.802102 -0.715927 3.086639 0
M  V30 30 N -0.467423 -0.682026 3.247426 0
M  V30 31 H 1.592527 1.242826 0.318162 0
M  V30 32 H 4.081642 0.535689 1.930315 0
M  V30 33 H 5.178234 2.422390 1.097325 0
M  V30 34 H 3.831822 2.954721 0.076407 0
M  V30 35 H 4.011671 2.627692 2.925368 0
M  V30 36 H 5.756328 -0.665418 0.771306 0
M  V30 37 H 6.523303 -1.706753 -1.381544 0
M  V30 38 H 3.367688 0.193645 -3.495207 0
M  V30 39 H 2.613252 1.202989 -1.447461 0
M  V30 40 H -0.557121 0.938475 0.491093 0
M  V30 41 H -3.209153 2.395084 1.203968 0
M  V30 42 H -6.115843 -0.207177 -0.426222 0
M  V30 43 H -6.066206 -2.002459 1.875113 0
M  V30 44 H -6.275945 -4.378424 2.135219 0
M  V30 45 H -4.633787 -5.889242 1.221384 0
M  V30 46 H -2.438519 -2.465994 -0.303169 0
M  V30 47 H -2.597583 -1.141376 3.676501 0
M  V30 48 H -0.033989 -1.130007 4.075687 0
M  V30 END ATOM
M  V30 BEGIN BOND
M  V30 1 2 1 2
M  V30 2 1 2 3
M  V30 3 1 3 4
M  V30 4 1 4 5
M  V30 5 1 5 6
M  V30 6 1 4 7
M  V30 7 2 7 8
M  V30 8 1 8 9
M  V30 9 2 9 10
M  V30 10 1 10 11
M  V30 11 1 10 12
M  V30 12 2 12 13
M  V30 13 1 2 14
M  V30 14 2 14 15
M  V30 15 1 15 16
M  V30 16 1 16 17
M  V30 17 1 17 18
M  V30 18 1 18 19
M  V30 19 2 19 20
M  V30 20 1 20 21
M  V30 21 1 21 22
M  V30 22 2 22 23
M  V30 23 1 23 24
M  V30 24 2 24 25
M  V30 25 1 25 26
M  V30 26 1 26 27
M  V30 27 2 26 28
M  V30 28 2 16 29
M  V30 29 1 29 30
M  V30 30 1 13 7
M  V30 31 1 30 14
M  V30 32 2 21 17
M  V30 33 1 28 22
M  V30 34 1 3 31
M  V30 35 1 4 32
M  V30 36 1 5 33
M  V30 37 1 5 34
M  V30 38 1 6 35
M  V30 39 1 8 36
M  V30 40 1 9 37
M  V30 41 1 12 38
M  V30 42 1 13 39
M  V30 43 1 15 40
M  V30 44 1 18 41
M  V30 45 1 20 42
M  V30 46 1 23 43
M  V30 47 1 24 44
M  V30 48 1 25 45
M  V30 49 1 28 46
M  V30 50 1 29 47
M  V30 51 1 30 48
M  V30 END BOND
M  V30 END CTAB
M  END
>  <Dataset>  (9) 
ChEMBL_Kinases

>  <Ligand_Instance>  (9) 
nan

>  <PDB_ID>  (9) 
nan

>  <Standardized_SMILES>  (9) 
O=C(NC(CO)c1ccc(F)cc1)c1cc(-c2[nH]ncc2-c2cccc(Cl)c2)c[nH]1

>  <Name>  (9) 
nan

>  <Pocket>  (9) 
nan

>  <ATP_Site>  (9) 
nan

>  <Peripheral>  (9) 
nan

>  <Num_H_Atoms_ProtBoundConf>  (9) 
nan

>  <Num_Resolved_Atoms>  (9) 
nan

>  <Num_Not_Resolved_Atoms>  (9) 
nan

$$$$
CHEMBL578984
     RDKit          3D

  0  0  0  0  0  0  0  0  0  0999 V3000
M  V30 BEGIN CTAB
M  V30 COUNTS 44 47 0 0 0
M  V30 BEGIN ATOM
M  V30 1 C -1.369230 -0.503436 1.303668 0
M  V30 2 C -0.852286 -1.554421 2.204319 0
M  V30 3 C 0.329789 -2.073787 1.781335 0
M  V30 4 O 1.222901 -2.003014 0.853793 0
M  V30 5 C 1.618403 -2.083190 -0.397761 0
M  V30 6 C 1.905207 -3.382080 -0.836885 0
M  V30 7 C 1.776513 -4.559016 -0.082181 0
M  V30 8 N 1.670849 -5.515163 0.554869 0
M  V30 9 C 2.341789 -3.533165 -2.144430 0
M  V30 10 N 2.490505 -2.498233 -2.968202 0
M  V30 11 C 2.218086 -1.222474 -2.575365 0
M  V30 12 C 1.777983 -1.047266 -1.270175 0
M  V30 13 C 1.436934 0.360842 -0.935693 0
M  V30 14 C 1.691303 1.364708 -1.698525 0
M  V30 15 C 1.309230 2.697084 -1.262220 0
M  V30 16 C 1.538325 3.877107 -1.992879 0
M  V30 17 C 1.157513 5.107007 -1.539074 0
M  V30 18 C 0.517049 5.300665 -0.334081 0
M  V30 19 C 0.269404 4.145859 0.422079 0
M  V30 20 C 0.670693 2.916885 -0.069005 0
M  V30 21 C 0.797799 -3.084027 2.670409 0
M  V30 22 C 0.166154 -3.528848 3.838025 0
M  V30 23 C -1.041509 -2.871274 4.102679 0
M  V30 24 N -1.839720 -3.120059 5.185461 0
M  V30 25 C -2.828809 -2.253621 4.989485 0
M  V30 26 C -2.795977 -1.454066 3.909896 0
M  V30 27 C -1.598213 -1.864376 3.307566 0
M  V30 28 H -2.474711 -0.447633 1.365643 0
M  V30 29 H -1.001052 0.503063 1.642338 0
M  V30 30 H -1.148902 -0.699936 0.225799 0
M  V30 31 H 2.574578 -4.520973 -2.529480 0
M  V30 32 H 2.393454 -0.542193 -3.382808 0
M  V30 33 H 0.963082 0.428975 0.027384 0
M  V30 34 H 2.181949 1.267023 -2.645533 0
M  V30 35 H 2.041982 3.607348 -2.935483 0
M  V30 36 H 1.395826 5.952591 -2.192179 0
M  V30 37 H 0.252213 6.294051 -0.050616 0
M  V30 38 H -0.237874 4.326416 1.360079 0
M  V30 39 H 0.406239 2.170489 0.656268 0
M  V30 40 H 1.739644 -3.672119 2.608206 0
M  V30 41 H 0.533129 -4.310704 4.516359 0
M  V30 42 H -1.766954 -3.786429 5.982735 0
M  V30 43 H -3.661161 -2.167237 5.747762 0
M  V30 44 H -3.374242 -0.692194 3.464003 0
M  V30 END ATOM
M  V30 BEGIN BOND
M  V30 1 1 1 2
M  V30 2 2 2 3
M  V30 3 1 3 4
M  V30 4 1 4 5
M  V30 5 2 5 6
M  V30 6 1 6 7
M  V30 7 3 7 8
M  V30 8 1 6 9
M  V30 9 2 9 10
M  V30 10 1 10 11
M  V30 11 2 11 12
M  V30 12 1 12 13
M  V30 13 2 13 14
M  V30 14 1 14 15
M  V30 15 2 15 16
M  V30 16 1 16 17
M  V30 17 2 17 18
M  V30 18 1 18 19
M  V30 19 2 19 20
M  V30 20 1 3 21
M  V30 21 2 21 22
M  V30 22 1 22 23
M  V30 23 1 23 24
M  V30 24 1 24 25
M  V30 25 2 25 26
M  V30 26 1 26 27
M  V30 27 1 27 2
M  V30 28 1 12 5
M  V30 29 1 20 15
M  V30 30 2 27 23
M  V30 31 1 1 28
M  V30 32 1 1 29
M  V30 33 1 1 30
M  V30 34 1 9 31
M  V30 35 1 11 32
M  V30 36 1 13 33
M  V30 37 1 14 34
M  V30 38 1 16 35
M  V30 39 1 17 36
M  V30 40 1 18 37
M  V30 41 1 19 38
M  V30 42 1 20 39
M  V30 43 1 21 40
M  V30 44 1 22 41
M  V30 45 1 24 42
M  V30 46 1 25 43
M  V30 47 1 26 44
M  V30 END BOND
M  V30 END CTAB
M  END
>  <Dataset>  (10) 
ChEMBL_Kinases

>  <Ligand_Instance>  (10) 
nan

>  <PDB_ID>  (10) 
nan

>  <Standardized_SMILES>  (10) 
Cc1c(Oc2c(C#N)cncc2/C=C/c2ccccc2)ccc2[nH]ccc12

>  <Name>  (10) 
nan

>  <Pocket>  (10) 
nan

>  <ATP_Site>  (10) 
nan

>  <Peripheral>  (10) 
nan

>  <Num_H_Atoms_ProtBoundConf>  (10) 
nan

>  <Num_Resolved_Atoms>  (10) 
nan

>  <Num_Not_Resolved_Atoms>  (10) 
nan

$$$$
CHEMBL3746690
     RDKit          3D

  0  0  0  0  0  0  0  0  0  0999 V3000
M  V30 BEGIN CTAB
M  V30 COUNTS 50 52 0 0 0
M  V30 BEGIN ATOM
M  V30 1 C 4.794524 -3.939143 -1.437115 0
M  V30 2 O 3.697994 -3.135985 -1.785353 0
M  V30 3 C 3.465738 -1.902131 -1.180120 0
M  V30 4 C 4.223702 -1.297032 -0.198917 0
M  V30 5 C 3.801062 -0.045920 0.267868 0
M  V30 6 N 4.658395 0.472987 1.272422 0
M  V30 7 S 4.034468 1.180953 2.717926 0
M  V30 8 N 3.134188 -0.040165 3.563330 0
M  V30 9 O 5.135233 1.618899 3.630935 0
M  V30 10 O 3.143375 2.327459 2.333682 0
M  V30 11 C 2.654951 0.536178 -0.259801 0
M  V30 12 C 1.885431 -0.081664 -1.257670 0
M  V30 13 O 0.850166 0.765952 -1.531391 0
M  V30 14 C -0.296172 1.039271 -0.899031 0
M  V30 15 C -0.340298 2.380861 -0.533377 0
M  V30 16 C -1.388369 2.991802 0.137343 0
M  V30 17 F -1.392299 4.319919 0.479386 0
M  V30 18 C -2.473209 2.193694 0.465175 0
M  V30 19 C -2.505473 0.842279 0.134700 0
M  V30 20 N -3.678990 0.235201 0.563450 0
M  V30 21 C -4.251191 -0.758880 1.373909 0
M  V30 22 C -5.057386 -1.844474 1.113691 0
M  V30 23 C -5.448354 -2.642507 2.159954 0
M  V30 24 C -5.086726 -2.427657 3.452338 0
M  V30 25 I -5.813965 -3.794454 4.890429 0
M  V30 26 C -4.268836 -1.333061 3.746484 0
M  V30 27 C -3.875030 -0.528893 2.690674 0
M  V30 28 F -3.081104 0.488014 3.173395 0
M  V30 29 C -1.414506 0.366254 -0.523281 0
M  V30 30 C -1.443117 -1.022152 -0.888350 0
M  V30 31 N -0.813430 -2.111426 -1.489234 0
M  V30 32 O -2.416945 -1.729018 -0.612300 0
M  V30 33 C 2.341469 -1.298315 -1.677216 0
M  V30 34 H 4.588429 -5.026790 -1.636966 0
M  V30 35 H 5.660175 -3.641974 -2.056646 0
M  V30 36 H 5.074459 -3.834320 -0.356284 0
M  V30 37 H 5.089017 -1.853127 0.125320 0
M  V30 38 H 5.703942 0.435646 1.153857 0
M  V30 39 H 2.121915 0.026853 3.417757 0
M  V30 40 H 3.482456 -0.969279 3.267651 0
M  V30 41 H 2.522973 1.493407 0.246881 0
M  V30 42 H 0.457251 3.116543 -0.734696 0
M  V30 43 H -3.289435 2.709093 0.997704 0
M  V30 44 H -4.569703 0.624851 0.154512 0
M  V30 45 H -5.275587 -1.909270 0.054464 0
M  V30 46 H -6.079491 -3.471078 1.863517 0
M  V30 47 H -4.029191 -1.231759 4.780740 0
M  V30 48 H -0.166261 -2.824208 -1.058835 0
M  V30 49 H -0.857261 -2.432676 -2.492958 0
M  V30 50 H 1.692539 -1.680194 -2.450689 0
M  V30 END ATOM
M  V30 BEGIN BOND
M  V30 1 1 1 2
M  V30 2 1 2 3
M  V30 3 2 3 4
M  V30 4 1 4 5
M  V30 5 1 5 6
M  V30 6 1 6 7
M  V30 7 1 7 8
M  V30 8 2 7 9
M  V30 9 2 7 10
M  V30 10 2 5 11
M  V30 11 1 11 12
M  V30 12 1 12 13
M  V30 13 1 13 14
M  V30 14 2 14 15
M  V30 15 1 15 16
M  V30 16 1 16 17
M  V30 17 2 16 18
M  V30 18 1 18 19
M  V30 19 1 19 20
M  V30 20 1 20 21
M  V30 21 2 21 22
M  V30 22 1 22 23
M  V30 23 2 23 24
M  V30 24 1 24 25
M  V30 25 1 24 26
M  V30 26 2 26 27
M  V30 27 1 27 28
M  V30 28 2 19 29
M  V30 29 1 29 30
M  V30 30 1 30 31
M  V30 31 2 30 32
M  V30 32 2 12 33
M  V30 33 1 33 3
M  V30 34 1 29 14
M  V30 35 1 27 21
M  V30 36 1 1 34
M  V30 37 1 1 35
M  V30 38 1 1 36
M  V30 39 1 4 37
M  V30 40 1 6 38
M  V30 41 1 8 39
M  V30 42 1 8 40
M  V30 43 1 11 41
M  V30 44 1 15 42
M  V30 45 1 18 43
M  V30 46 1 20 44
M  V30 47 1 22 45
M  V30 48 1 23 46
M  V30 49 1 26 47
M  V30 50 1 31 48
M  V30 51 1 31 49
M  V30 52 1 33 50
M  V30 END BOND
M  V30 END CTAB
M  END
>  <Dataset>  (11) 
ChEMBL_Kinases

>  <Ligand_Instance>  (11) 
nan

>  <PDB_ID>  (11) 
nan

>  <Standardized_SMILES>  (11) 
COc1cc(NS(N)(=O)=O)cc(Oc2cc(F)cc(Nc3ccc(I)cc3F)c2C(N)=O)c1

>  <Name>  (11) 
nan

>  <Pocket>  (11) 
nan

>  <ATP_Site>  (11) 
nan

>  <Peripheral>  (11) 
nan

>  <Num_H_Atoms_ProtBoundConf>  (11) 
nan

>  <Num_Resolved_Atoms>  (11) 
nan

>  <Num_Not_Resolved_Atoms>  (11) 
nan

$$$$
CHEMBL5093302
     RDKit          3D

  0  0  0  0  0  0  0  0  0  0999 V3000
M  V30 BEGIN CTAB
M  V30 COUNTS 64 69 0 0 0
M  V30 BEGIN ATOM
M  V30 1 C 3.070061 -5.136866 0.846998 0
M  V30 2 C 3.291450 -3.865826 1.587143 0
M  V30 3 N 4.137375 -3.601639 2.624602 0
M  V30 4 N 4.018456 -2.326845 2.988992 0
M  V30 5 C 3.091904 -1.719665 2.201123 0
M  V30 6 N 2.640563 -0.429139 2.204792 0
M  V30 7 C 1.689075 -0.072807 1.292506 0
M  V30 8 C 1.157904 1.285231 1.229724 0
M  V30 9 C 1.620545 2.258601 2.100473 0
M  V30 10 C 1.132998 3.546997 2.055945 0
M  V30 11 C 0.166256 3.925339 1.146805 0
M  V30 12 N -0.353519 5.251980 1.084629 0
M  V30 13 S -0.806065 6.162405 2.462667 0
M  V30 14 O 0.370415 6.403624 3.359417 0
M  V30 15 O -1.273719 7.513365 1.955559 0
M  V30 16 C -2.084375 5.445802 3.381673 0
M  V30 17 C -1.897267 5.092402 4.705737 0
M  V30 18 C -2.835981 4.512140 5.553980 0
M  V30 19 Cl -2.428630 4.127947 7.210896 0
M  V30 20 C -4.074476 4.280343 4.974233 0
M  V30 21 C -4.321793 4.610443 3.660540 0
M  V30 22 C -3.340179 5.183946 2.879609 0
M  V30 23 F -3.613149 5.495445 1.599193 0
M  V30 24 C -0.284346 2.943186 0.285986 0
M  V30 25 C 0.185370 1.643868 0.306807 0
M  V30 26 N 1.213501 -0.983702 0.412726 0
M  V30 27 C 1.664750 -2.264021 0.412826 0
M  V30 28 O 1.159040 -3.166710 -0.497466 0
M  V30 29 C 0.175302 -2.858102 -1.462127 0
M  V30 30 C -1.054098 -3.632806 -1.104226 0
M  V30 31 C -2.034157 -3.610859 -2.235597 0
M  V30 32 N -1.446060 -4.329526 -3.318979 0
M  V30 33 C -1.811927 -5.696133 -3.360696 0
M  V30 34 C -1.242533 -6.541634 -4.488327 0
M  V30 35 C -0.883877 -6.808423 -3.075446 0
M  V30 36 C -0.147351 -3.959495 -3.715040 0
M  V30 37 C 0.609308 -3.000605 -2.880452 0
M  V30 38 C 2.624482 -2.690216 1.307264 0
M  V30 39 H 3.780945 -5.243302 0.002905 0
M  V30 40 H 2.007381 -5.212424 0.547071 0
M  V30 41 H 3.228375 -5.970836 1.589528 0
M  V30 42 H 4.561261 -1.894425 3.757558 0
M  V30 43 H 2.381675 2.048740 2.850094 0
M  V30 44 H 1.459249 4.360590 2.717174 0
M  V30 45 H -0.421508 5.591506 0.103330 0
M  V30 46 H -0.914630 5.289852 5.120989 0
M  V30 47 H -4.839573 3.825370 5.608663 0
M  V30 48 H -5.322451 4.393173 3.288186 0
M  V30 49 H -1.047532 3.157701 -0.463328 0
M  V30 50 H -0.146145 0.860943 -0.348643 0
M  V30 51 H -0.059050 -1.786496 -1.275704 0
M  V30 52 H -0.762366 -4.684741 -0.929736 0
M  V30 53 H -1.490960 -3.200795 -0.160518 0
M  V30 54 H -2.931780 -4.207890 -1.899934 0
M  V30 55 H -2.321604 -2.577544 -2.525469 0
M  V30 56 H -2.880998 -5.860185 -3.048888 0
M  V30 57 H -0.557230 -6.094842 -5.218799 0
M  V30 58 H -2.028100 -7.159668 -4.991109 0
M  V30 59 H 0.160951 -6.670678 -2.731306 0
M  V30 60 H -1.309543 -7.744441 -2.650853 0
M  V30 61 H -0.245488 -3.532253 -4.759115 0
M  V30 62 H 0.449293 -4.898525 -3.915345 0
M  V30 63 H 0.691596 -2.012685 -3.381320 0
M  V30 64 H 1.683448 -3.349568 -2.846201 0
M  V30 END ATOM
M  V30 BEGIN BOND
M  V30 1 1 1 2
M  V30 2 2 2 3
M  V30 3 1 3 4
M  V30 4 1 4 5
M  V30 5 2 5 6
M  V30 6 1 6 7
M  V30 7 1 7 8
M  V30 8 2 8 9
M  V30 9 1 9 10
M  V30 10 2 10 11
M  V30 11 1 11 12
M  V30 12 1 12 13
M  V30 13 2 13 14
M  V30 14 2 13 15
M  V30 15 1 13 16
M  V30 16 2 16 17
M  V30 17 1 17 18
M  V30 18 1 18 19
M  V30 19 2 18 20
M  V30 20 1 20 21
M  V30 21 2 21 22
M  V30 22 1 22 23
M  V30 23 1 11 24
M  V30 24 2 24 25
M  V30 25 2 7 26
M  V30 26 1 26 27
M  V30 27 1 27 28
M  V30 28 1 28 29
M  V30 29 1 29 30
M  V30 30 1 30 31
M  V30 31 1 31 32
M  V30 32 1 32 33
M  V30 33 1 33 34
M  V30 34 1 34 35
M  V30 35 1 32 36
M  V30 36 1 36 37
M  V30 37 2 27 38
M  V30 38 1 38 2
M  V30 39 1 38 5
M  V30 40 1 25 8
M  V30 41 1 37 29
M  V30 42 1 22 16
M  V30 43 1 35 33
M  V30 44 1 1 39
M  V30 45 1 1 40
M  V30 46 1 1 41
M  V30 47 1 4 42
M  V30 48 1 9 43
M  V30 49 1 10 44
M  V30 50 1 12 45
M  V30 51 1 17 46
M  V30 52 1 20 47
M  V30 53 1 21 48
M  V30 54 1 24 49
M  V30 55 1 25 50
M  V30 56 1 29 51
M  V30 57 1 30 52
M  V30 58 1 30 53
M  V30 59 1 31 54
M  V30 60 1 31 55
M  V30 61 1 33 56
M  V30 62 1 34 57
M  V30 63 1 34 58
M  V30 64 1 35 59
M  V30 65 1 35 60
M  V30 66 1 36 61
M  V30 67 1 36 62
M  V30 68 1 37 63
M  V30 69 1 37 64
M  V30 END BOND
M  V30 END CTAB
M  END
>  <Dataset>  (12) 
ChEMBL_Kinases

>  <Ligand_Instance>  (12) 
nan

>  <PDB_ID>  (12) 
nan

>  <Standardized_SMILES>  (12) 
Cc1n[nH]c2nc(-c3ccc(NS(=O)(=O)c4cc(Cl)ccc4F)cc3)nc(OC3CCN(C4CC4)CC3)c12

>  <Name>  (12) 
nan

>  <Pocket>  (12) 
nan

>  <ATP_Site>  (12) 
nan

>  <Peripheral>  (12) 
nan

>  <Num_H_Atoms_ProtBoundConf>  (12) 
nan

>  <Num_Resolved_Atoms>  (12) 
nan

>  <Num_Not_Resolved_Atoms>  (12) 
nan

$$$$
CHEMBL3746673
     RDKit          3D

  0  0  0  0  0  0  0  0  0  0999 V3000
M  V30 BEGIN CTAB
M  V30 COUNTS 56 59 0 0 0
M  V30 BEGIN ATOM
M  V30 1 C 5.079673 -0.634392 3.736910 0
M  V30 2 C 5.554816 -1.454923 2.566734 0
M  V30 3 O 4.917893 -1.119636 1.349553 0
M  V30 4 C 5.041161 0.177021 0.869678 0
M  V30 5 O 5.682406 1.112440 1.425501 0
M  V30 6 N 4.436864 0.598628 -0.338616 0
M  V30 7 C 4.608726 1.970515 -0.775747 0
M  V30 8 C 3.289618 2.623801 -1.175918 0
M  V30 9 C 2.182076 1.719955 -0.717690 0
M  V30 10 N 0.880849 2.346050 -0.793319 0
M  V30 11 C -0.340742 1.716052 -0.422479 0
M  V30 12 N -1.516026 2.373826 -0.524401 0
M  V30 13 C -2.686260 1.822751 -0.188955 0
M  V30 14 C -2.719991 0.527106 0.284338 0
M  V30 15 C -3.964837 -0.013685 0.624283 0
M  V30 16 C -3.921909 -1.330369 1.095969 0
M  V30 17 O -5.163002 -1.846182 1.426899 0
M  V30 18 C -5.721287 -2.952934 0.811757 0
M  V30 19 C -5.275182 -3.769018 -0.205270 0
M  V30 20 C -6.029345 -4.832490 -0.651989 0
M  V30 21 C -7.272230 -5.130188 -0.098570 0
M  V30 22 F -7.917707 -6.199329 -0.622330 0
M  V30 23 C -7.720299 -4.315267 0.918502 0
M  V30 24 C -6.970163 -3.246802 1.372469 0
M  V30 25 F -7.580435 -2.554366 2.387781 0
M  V30 26 C -2.733326 -2.018699 1.207796 0
M  V30 27 O -2.741335 -3.198712 1.637212 0
M  V30 28 N -1.581316 -1.420119 0.857514 0
M  V30 29 C -0.339840 -2.170153 0.985679 0
M  V30 30 C -1.527962 -0.157469 0.394015 0
M  V30 31 N -0.366017 0.455840 0.037023 0
M  V30 32 C 2.263840 0.448331 -1.506773 0
M  V30 33 C 3.625721 -0.169163 -1.264486 0
M  V30 34 H 5.646837 0.323637 3.773090 0
M  V30 35 H 5.277379 -1.243124 4.663321 0
M  V30 36 H 3.983980 -0.480371 3.707886 0
M  V30 37 H 6.659050 -1.385090 2.523904 0
M  V30 38 H 5.311234 -2.518576 2.791310 0
M  V30 39 H 5.261992 2.006645 -1.688953 0
M  V30 40 H 5.074448 2.566188 0.024640 0
M  V30 41 H 3.169424 3.586846 -0.634688 0
M  V30 42 H 3.184623 2.757224 -2.264902 0
M  V30 43 H 2.379956 1.466266 0.344470 0
M  V30 44 H 0.855849 3.321721 -1.144337 0
M  V30 45 H -3.534921 2.458412 -0.320894 0
M  V30 46 H -4.869296 0.573505 0.516558 0
M  V30 47 H -4.307618 -3.460420 -0.574101 0
M  V30 48 H -5.532119 -5.381626 -1.465942 0
M  V30 49 H -8.694062 -4.583618 1.320433 0
M  V30 50 H -0.135879 -2.482796 2.034895 0
M  V30 51 H 0.512569 -1.578431 0.598424 0
M  V30 52 H -0.453316 -3.065492 0.314074 0
M  V30 53 H 1.465024 -0.282448 -1.287016 0
M  V30 54 H 2.171946 0.684962 -2.605240 0
M  V30 55 H 4.207480 -0.211092 -2.232049 0
M  V30 56 H 3.514498 -1.236603 -0.975108 0
M  V30 END ATOM
M  V30 BEGIN BOND
M  V30 1 1 1 2
M  V30 2 1 2 3
M  V30 3 1 3 4
M  V30 4 2 4 5
M  V30 5 1 4 6
M  V30 6 1 6 7
M  V30 7 1 7 8
M  V30 8 1 8 9
M  V30 9 1 9 10
M  V30 10 1 10 11
M  V30 11 2 11 12
M  V30 12 1 12 13
M  V30 13 2 13 14
M  V30 14 1 14 15
M  V30 15 2 15 16
M  V30 16 1 16 17
M  V30 17 1 17 18
M  V30 18 2 18 19
M  V30 19 1 19 20
M  V30 20 2 20 21
M  V30 21 1 21 22
M  V30 22 1 21 23
M  V30 23 2 23 24
M  V30 24 1 24 25
M  V30 25 1 16 26
M  V30 26 2 26 27
M  V30 27 1 26 28
M  V30 28 1 28 29
M  V30 29 1 28 30
M  V30 30 2 30 31
M  V30 31 1 9 32
M  V30 32 1 32 33
M  V30 33 1 33 6
M  V30 34 1 31 11
M  V30 35 1 30 14
M  V30 36 1 24 18
M  V30 37 1 1 34
M  V30 38 1 1 35
M  V30 39 1 1 36
M  V30 40 1 2 37
M  V30 41 1 2 38
M  V30 42 1 7 39
M  V30 43 1 7 40
M  V30 44 1 8 41
M  V30 45 1 8 42
M  V30 46 1 9 43
M  V30 47 1 10 44
M  V30 48 1 13 45
M  V30 49 1 15 46
M  V30 50 1 19 47
M  V30 51 1 20 48
M  V30 52 1 23 49
M  V30 53 1 29 50
M  V30 54 1 29 51
M  V30 55 1 29 52
M  V30 56 1 32 53
M  V30 57 1 32 54
M  V30 58 1 33 55
M  V30 59 1 33 56
M  V30 END BOND
M  V30 END CTAB
M  END
>  <Dataset>  (13) 
ChEMBL_Kinases

>  <Ligand_Instance>  (13) 
nan

>  <PDB_ID>  (13) 
nan

>  <Standardized_SMILES>  (13) 
CCOC(=O)N1CCC(Nc2ncc3cc(Oc4ccc(F)cc4F)c(=O)n(C)c3n2)CC1

>  <Name>  (13) 
nan

>  <Pocket>  (13) 
nan

>  <ATP_Site>  (13) 
nan

>  <Peripheral>  (13) 
nan

>  <Num_H_Atoms_ProtBoundConf>  (13) 
nan

>  <Num_Resolved_Atoms>  (13) 
nan

>  <Num_Not_Resolved_Atoms>  (13) 
nan

$$$$
CHEMBL3746640
     RDKit          3D

  0  0  0  0  0  0  0  0  0  0999 V3000
M  V30 BEGIN CTAB
M  V30 COUNTS 49 51 0 0 0
M  V30 BEGIN ATOM
M  V30 1 N -0.408199 -2.844482 0.292203 0
M  V30 2 C 0.569632 -2.179222 -0.476886 0
M  V30 3 O 0.904265 -2.027777 0.705670 0
M  V30 4 C 1.085311 -1.782868 -1.767915 0
M  V30 5 C 0.426623 -2.189427 -2.890897 0
M  V30 6 O -0.739649 -2.928638 -2.938585 0
M  V30 7 C -1.951947 -2.496097 -2.422334 0
M  V30 8 C -2.908103 -3.503816 -2.567302 0
M  V30 9 C -4.215470 -3.332033 -2.132520 0
M  V30 10 C -4.576912 -2.138051 -1.544015 0
M  V30 11 C -3.635043 -1.141653 -1.399715 0
M  V30 12 C -3.948547 0.164502 -0.778248 0
M  V30 13 N -3.720478 0.138913 0.663995 0
M  V30 14 S -4.108900 1.692266 1.301497 0
M  V30 15 N -3.131834 2.935836 0.659658 0
M  V30 16 O -5.572672 2.030971 1.097346 0
M  V30 17 O -3.858063 1.654817 2.799907 0
M  V30 18 C -2.337760 -1.310842 -1.830626 0
M  V30 19 C 0.949307 -1.846203 -4.119100 0
M  V30 20 C 2.112709 -1.107596 -4.137489 0
M  V30 21 F 2.640388 -0.761975 -5.337708 0
M  V30 22 C 2.743796 -0.717428 -2.977514 0
M  V30 23 F 3.876412 0.003008 -3.096496 0
M  V30 24 C 2.238324 -1.049838 -1.740619 0
M  V30 25 N 2.960190 -0.574758 -0.618919 0
M  V30 26 C 3.057047 0.684823 0.061850 0
M  V30 27 C 4.400316 1.069686 0.008128 0
M  V30 28 C 4.821511 2.272986 0.587604 0
M  V30 29 C 3.888642 3.072170 1.212338 0
M  V30 30 I 4.415809 4.906048 2.118235 0
M  V30 31 C 2.573472 2.673491 1.252811 0
M  V30 32 C 2.158050 1.494871 0.685654 0
M  V30 33 F 0.908702 0.983494 0.644290 0
M  V30 34 H -0.874628 -3.725386 -0.030482 0
M  V30 35 H -0.948619 -3.715134 0.101401 0
M  V30 36 H -2.766946 -4.498707 -3.012970 0
M  V30 37 H -4.992205 -4.079404 -2.221149 0
M  V30 38 H -5.597107 -1.951842 -1.183480 0
M  V30 39 H -5.015324 0.438350 -0.925930 0
M  V30 40 H -3.302283 0.955868 -1.189480 0
M  V30 41 H -4.322793 -0.547621 1.135789 0
M  V30 42 H -2.330593 2.589534 0.094560 0
M  V30 43 H -3.672603 3.683221 0.180416 0
M  V30 44 H -1.508308 -0.618526 -1.779194 0
M  V30 45 H 0.482425 -2.133834 -5.050953 0
M  V30 46 H 3.485812 -1.426549 -0.333160 0
M  V30 47 H 5.265537 0.565484 -0.440781 0
M  V30 48 H 5.833724 2.649829 0.594872 0
M  V30 49 H 1.794488 3.253271 1.726272 0
M  V30 END ATOM
M  V30 BEGIN BOND
M  V30 1 1 1 2
M  V30 2 2 2 3
M  V30 3 1 2 4
M  V30 4 2 4 5
M  V30 5 1 5 6
M  V30 6 1 6 7
M  V30 7 2 7 8
M  V30 8 1 8 9
M  V30 9 2 9 10
M  V30 10 1 10 11
M  V30 11 1 11 12
M  V30 12 1 12 13
M  V30 13 1 13 14
M  V30 14 1 14 15
M  V30 15 2 14 16
M  V30 16 2 14 17
M  V30 17 2 11 18
M  V30 18 1 5 19
M  V30 19 2 19 20
M  V30 20 1 20 21
M  V30 21 1 20 22
M  V30 22 1 22 23
M  V30 23 2 22 24
M  V30 24 1 24 25
M  V30 25 1 25 26
M  V30 26 2 26 27
M  V30 27 1 27 28
M  V30 28 2 28 29
M  V30 29 1 29 30
M  V30 30 1 29 31
M  V30 31 2 31 32
M  V30 32 1 32 33
M  V30 33 1 24 4
M  V30 34 1 32 26
M  V30 35 1 18 7
M  V30 36 1 1 34
M  V30 37 1 1 35
M  V30 38 1 8 36
M  V30 39 1 9 37
M  V30 40 1 10 38
M  V30 41 1 12 39
M  V30 42 1 12 40
M  V30 43 1 13 41
M  V30 44 1 15 42
M  V30 45 1 15 43
M  V30 46 1 18 44
M  V30 47 1 19 45
M  V30 48 1 25 46
M  V30 49 1 27 47
M  V30 50 1 28 48
M  V30 51 1 31 49
M  V30 END BOND
M  V30 END CTAB
M  END
>  <Dataset>  (14) 
ChEMBL_Kinases

>  <Ligand_Instance>  (14) 
nan

>  <PDB_ID>  (14) 
nan

>  <Standardized_SMILES>  (14) 
NC(=O)c1c(Oc2cccc(CNS(N)(=O)=O)c2)cc(F)c(F)c1Nc1ccc(I)cc1F

>  <Name>  (14) 
nan

>  <Pocket>  (14) 
nan

>  <ATP_Site>  (14) 
nan

>  <Peripheral>  (14) 
nan

>  <Num_H_Atoms_ProtBoundConf>  (14) 
nan

>  <Num_Resolved_Atoms>  (14) 
nan

>  <Num_Not_Resolved_Atoms>  (14) 
nan

$$$$
CHEMBL374662
     RDKit          3D

  0  0  0  0  0  0  0  0  0  0999 V3000
M  V30 BEGIN CTAB
M  V30 COUNTS 57 62 0 0 0
M  V30 BEGIN ATOM
M  V30 1 O 2.860639 -3.865954 0.564839 0
M  V30 2 C 3.294906 -2.686358 0.534030 0
M  V30 3 N 4.619766 -2.568438 0.735360 0
M  V30 4 C 5.192956 -1.330605 0.721786 0
M  V30 5 C 6.559123 -1.258492 0.933165 0
M  V30 6 C 7.127429 0.000764 0.916514 0
M  V30 7 C 6.342698 1.137527 0.694846 0
M  V30 8 C 7.000699 2.459523 0.686076 0
M  V30 9 C 6.565351 3.721271 1.046105 0
M  V30 10 N 7.582108 4.580243 0.836983 0
M  V30 11 N 8.631887 3.938529 0.367270 0
M  V30 12 C 8.319459 2.628895 0.257985 0
M  V30 13 C 4.973025 1.012586 0.487340 0
M  V30 14 C 4.370862 -0.248228 0.498742 0
M  V30 15 C 3.007174 -0.392521 0.293517 0
M  V30 16 C 2.424698 -1.642613 0.306626 0
M  V30 17 C 0.997037 -1.812907 0.093025 0
M  V30 18 C 0.117851 -0.777600 -0.140962 0
M  V30 19 C -1.157603 -1.277091 -0.302502 0
M  V30 20 C -2.384578 -0.694565 -0.552687 0
M  V30 21 C -3.536988 -1.436055 -0.673294 0
M  V30 22 C -4.887562 -0.945184 -0.937554 0
M  V30 23 N -5.685356 -0.614294 0.178069 0
M  V30 24 C -6.998573 -0.142714 -0.107892 0
M  V30 25 C -8.088514 -1.140746 0.152660 0
M  V30 26 C -7.564839 -2.495887 0.557522 0
M  V30 27 C -6.524756 -2.395295 1.648713 0
M  V30 28 C -5.507138 -1.316889 1.382457 0
M  V30 29 C -3.389149 -2.808967 -0.527393 0
M  V30 30 C -2.188386 -3.441996 -0.276953 0
M  V30 31 C -1.047572 -2.644727 -0.163234 0
M  V30 32 N 0.253088 -2.906499 0.070056 0
M  V30 33 H 5.235362 -3.397179 0.903934 0
M  V30 34 H 7.167280 -2.133588 1.104705 0
M  V30 35 H 8.185744 0.063201 1.079764 0
M  V30 36 H 5.543506 3.775687 1.408702 0
M  V30 37 H 9.501999 4.483864 0.156814 0
M  V30 38 H 9.032387 1.901113 -0.109370 0
M  V30 39 H 4.365153 1.891218 0.316078 0
M  V30 40 H 2.377877 0.464270 0.120936 0
M  V30 41 H 0.360908 0.288089 -0.196538 0
M  V30 42 H -2.494573 0.374636 -0.665321 0
M  V30 43 H -4.797545 -0.013381 -1.570472 0
M  V30 44 H -5.386354 -1.678191 -1.636883 0
M  V30 45 H -7.196794 0.792356 0.449974 0
M  V30 46 H -7.031431 0.126175 -1.185297 0
M  V30 47 H -8.775662 -0.780066 0.946651 0
M  V30 48 H -8.725993 -1.292880 -0.746423 0
M  V30 49 H -8.410799 -3.089095 0.962449 0
M  V30 50 H -7.199375 -3.049464 -0.342969 0
M  V30 51 H -6.035478 -3.407169 1.707330 0
M  V30 52 H -7.044209 -2.253377 2.614029 0
M  V30 53 H -5.567701 -0.591818 2.242589 0
M  V30 54 H -4.513292 -1.762455 1.422072 0
M  V30 55 H -4.247906 -3.477088 -0.606890 0
M  V30 56 H -2.123276 -4.509063 -0.171816 0
M  V30 57 H 0.562445 -3.874260 0.205825 0
M  V30 END ATOM
M  V30 BEGIN BOND
M  V30 1 2 1 2
M  V30 2 1 2 3
M  V30 3 1 3 4
M  V30 4 2 4 5
M  V30 5 1 5 6
M  V30 6 2 6 7
M  V30 7 1 7 8
M  V30 8 1 8 9
M  V30 9 2 9 10
M  V30 10 1 10 11
M  V30 11 1 11 12
M  V30 12 1 7 13
M  V30 13 2 13 14
M  V30 14 1 14 15
M  V30 15 2 15 16
M  V30 16 1 16 17
M  V30 17 2 17 18
M  V30 18 1 18 19
M  V30 19 2 19 20
M  V30 20 1 20 21
M  V30 21 1 21 22
M  V30 22 1 22 23
M  V30 23 1 23 24
M  V30 24 1 24 25
M  V30 25 1 25 26
M  V30 26 1 26 27
M  V30 27 1 27 28
M  V30 28 2 21 29
M  V30 29 1 29 30
M  V30 30 2 30 31
M  V30 31 1 31 32
M  V30 32 1 16 2
M  V30 33 1 32 17
M  V30 34 1 14 4
M  V30 35 1 31 19
M  V30 36 2 12 8
M  V30 37 1 28 23
M  V30 38 1 3 33
M  V30 39 1 5 34
M  V30 40 1 6 35
M  V30 41 1 9 36
M  V30 42 1 11 37
M  V30 43 1 12 38
M  V30 44 1 13 39
M  V30 45 1 15 40
M  V30 46 1 18 41
M  V30 47 1 20 42
M  V30 48 1 22 43
M  V30 49 1 22 44
M  V30 50 1 24 45
M  V30 51 1 24 46
M  V30 52 1 25 47
M  V30 53 1 25 48
M  V30 54 1 26 49
M  V30 55 1 26 50
M  V30 56 1 27 51
M  V30 57 1 27 52
M  V30 58 1 28 53
M  V30 59 1 28 54
M  V30 60 1 29 55
M  V30 61 1 30 56
M  V30 62 1 32 57
M  V30 END BOND
M  V30 END CTAB
M  END
>  <Dataset>  (15) 
ChEMBL_Kinases

>  <Ligand_Instance>  (15) 
nan

>  <PDB_ID>  (15) 
nan

>  <Standardized_SMILES>  (15) 
O=c1[nH]c2ccc(-c3cn[nH]c3)cc2cc1-c1cc2cc(CN3CCCCC3)ccc2[nH]1

>  <Name>  (15) 
nan

>  <Pocket>  (15) 
nan

>  <ATP_Site>  (15) 
nan

>  <Peripheral>  (15) 
nan

>  <Num_H_Atoms_ProtBoundConf>  (15) 
nan

>  <Num_Resolved_Atoms>  (15) 
nan

>  <Num_Not_Resolved_Atoms>  (15) 
nan

$$$$
CHEMBL3746569
     RDKit          3D

  0  0  0  0  0  0  0  0  0  0999 V3000
M  V30 BEGIN CTAB
M  V30 COUNTS 52 54 0 0 0
M  V30 BEGIN ATOM
M  V30 1 N 2.925319 -1.519192 2.669721 0
M  V30 2 C 3.952486 -1.101388 3.569530 0
M  V30 3 C 4.918168 -0.098938 3.019475 0
M  V30 4 S 5.787566 -0.698976 1.596703 0
M  V30 5 O 6.590133 -1.894485 2.068550 0
M  V30 6 O 6.725734 0.376997 1.129145 0
M  V30 7 N 4.749097 -1.108771 0.302195 0
M  V30 8 C 3.951032 -0.070170 -0.253871 0
M  V30 9 C 4.305438 1.217490 -0.597705 0
M  V30 10 C 3.368811 2.069700 -1.126573 0
M  V30 11 C 2.065292 1.674098 -1.328287 0
M  V30 12 C 1.692323 0.389533 -0.990282 0
M  V30 13 O 0.372950 0.010321 -1.201606 0
M  V30 14 C -0.545722 0.207988 -0.180415 0
M  V30 15 C -0.228861 0.764280 1.047588 0
M  V30 16 C -1.143006 0.959865 2.060855 0
M  V30 17 F -0.730042 1.514011 3.228730 0
M  V30 18 C -2.459026 0.591814 1.875915 0
M  V30 19 C -2.822904 0.033919 0.670748 0
M  V30 20 N -4.190223 -0.315072 0.567054 0
M  V30 21 C -5.046779 -1.426876 0.353377 0
M  V30 22 C -5.975192 -1.652706 -0.636472 0
M  V30 23 C -6.663373 -2.837098 -0.585588 0
M  V30 24 C -6.490257 -3.791993 0.368227 0
M  V30 25 I -7.682487 -5.542689 0.224022 0
M  V30 26 C -5.560132 -3.575738 1.367695 0
M  V30 27 C -4.839318 -2.384468 1.352390 0
M  V30 28 F -3.963996 -2.302925 2.387016 0
M  V30 29 C -1.870256 -0.137876 -0.304479 0
M  V30 30 C -2.254309 -0.722924 -1.573584 0
M  V30 31 N -1.378402 -0.952144 -2.646935 0
M  V30 32 O -3.205369 -1.191549 -2.228985 0
M  V30 33 C 2.632503 -0.479203 -0.454915 0
M  V30 34 H 2.011307 -1.042745 2.785215 0
M  V30 35 H 2.841454 -2.549019 2.544705 0
M  V30 36 H 3.467479 -0.622887 4.448812 0
M  V30 37 H 4.471763 -2.001194 3.948555 0
M  V30 38 H 4.444089 0.877756 2.871220 0
M  V30 39 H 5.693054 0.053997 3.809474 0
M  V30 40 H 4.703439 -2.084282 -0.065214 0
M  V30 41 H 5.326568 1.440245 -0.410314 0
M  V30 42 H 3.766113 3.056779 -1.357814 0
M  V30 43 H 1.385930 2.410435 -1.751827 0
M  V30 44 H 0.797674 1.067588 1.233147 0
M  V30 45 H -3.114245 0.776566 2.714899 0
M  V30 46 H -4.870583 0.467762 0.674728 0
M  V30 47 H -6.039975 -0.840005 -1.344672 0
M  V30 48 H -7.392772 -2.966486 -1.400344 0
M  V30 49 H -5.453528 -4.350138 2.098888 0
M  V30 50 H -0.790408 -1.794286 -2.886170 0
M  V30 51 H -1.108684 -0.338675 -3.454815 0
M  V30 52 H 2.238471 -1.462792 -0.224023 0
M  V30 END ATOM
M  V30 BEGIN BOND
M  V30 1 1 1 2
M  V30 2 1 2 3
M  V30 3 1 3 4
M  V30 4 2 4 5
M  V30 5 2 4 6
M  V30 6 1 4 7
M  V30 7 1 7 8
M  V30 8 2 8 9
M  V30 9 1 9 10
M  V30 10 2 10 11
M  V30 11 1 11 12
M  V30 12 1 12 13
M  V30 13 1 13 14
M  V30 14 2 14 15
M  V30 15 1 15 16
M  V30 16 1 16 17
M  V30 17 2 16 18
M  V30 18 1 18 19
M  V30 19 1 19 20
M  V30 20 1 20 21
M  V30 21 2 21 22
M  V30 22 1 22 23
M  V30 23 2 23 24
M  V30 24 1 24 25
M  V30 25 1 24 26
M  V30 26 2 26 27
M  V30 27 1 27 28
M  V30 28 2 19 29
M  V30 29 1 29 30
M  V30 30 1 30 31
M  V30 31 2 30 32
M  V30 32 2 12 33
M  V30 33 1 33 8
M  V30 34 1 29 14
M  V30 35 1 27 21
M  V30 36 1 1 34
M  V30 37 1 1 35
M  V30 38 1 2 36
M  V30 39 1 2 37
M  V30 40 1 3 38
M  V30 41 1 3 39
M  V30 42 1 7 40
M  V30 43 1 9 41
M  V30 44 1 10 42
M  V30 45 1 11 43
M  V30 46 1 15 44
M  V30 47 1 18 45
M  V30 48 1 20 46
M  V30 49 1 22 47
M  V30 50 1 23 48
M  V30 51 1 26 49
M  V30 52 1 31 50
M  V30 53 1 31 51
M  V30 54 1 33 52
M  V30 END BOND
M  V30 END CTAB
M  END
>  <Dataset>  (16) 
ChEMBL_Kinases

>  <Ligand_Instance>  (16) 
nan

>  <PDB_ID>  (16) 
nan

>  <Standardized_SMILES>  (16) 
NCCS(=O)(=O)Nc1cccc(Oc2cc(F)cc(Nc3ccc(I)cc3F)c2C(N)=O)c1

>  <Name>  (16) 
nan

>  <Pocket>  (16) 
nan

>  <ATP_Site>  (16) 
nan

>  <Peripheral>  (16) 
nan

>  <Num_H_Atoms_ProtBoundConf>  (16) 
nan

>  <Num_Resolved_Atoms>  (16) 
nan

>  <Num_Not_Resolved_Atoms>  (16) 
nan

$$$$
CHEMBL579260
     RDKit          3D

  0  0  0  0  0  0  0  0  0  0999 V3000
M  V30 BEGIN CTAB
M  V30 COUNTS 64 68 0 0 0
M  V30 BEGIN ATOM
M  V30 1 C 2.162578 0.612811 4.404445 0
M  V30 2 C 1.958037 1.925733 3.722831 0
M  V30 3 C 2.447898 2.106467 2.426946 0
M  V30 4 N 3.146352 1.053842 1.731716 0
M  V30 5 C 3.560403 1.448367 0.442096 0
M  V30 6 C 4.769438 2.104156 0.431207 0
M  V30 7 C 5.546288 2.356639 1.610035 0
M  V30 8 N 6.170532 2.570512 2.560130 0
M  V30 9 C 5.266131 2.544098 -0.775121 0
M  V30 10 N 4.533205 2.305223 -1.883780 0
M  V30 11 C 3.358395 1.661324 -1.829892 0
M  V30 12 C 2.807131 1.197750 -0.669436 0
M  V30 13 C 1.550152 0.500521 -0.728363 0
M  V30 14 C 0.787456 -0.101833 0.148326 0
M  V30 15 C -0.480063 -0.771455 -0.075355 0
M  V30 16 C -1.102812 -0.874129 -1.297061 0
M  V30 17 C -2.303089 -1.512965 -1.514118 0
M  V30 18 C -2.955423 -2.103023 -0.456081 0
M  V30 19 O -4.120174 -2.778780 -0.403465 0
M  V30 20 C -5.055767 -3.122157 -1.343368 0
M  V30 21 C -4.649170 -3.980084 -2.483252 0
M  V30 22 N -4.133484 -5.278284 -2.131366 0
M  V30 23 C -2.851121 -5.188623 -1.475577 0
M  V30 24 C -2.201317 -6.518411 -1.826225 0
M  V30 25 C -2.565934 -6.621233 -3.291866 0
M  V30 26 C -3.999610 -6.137159 -3.268187 0
M  V30 27 C -2.343076 -2.013507 0.802577 0
M  V30 28 C -1.134993 -1.361724 0.978073 0
M  V30 29 C 2.219818 3.344263 1.869945 0
M  V30 30 C 1.557431 4.377387 2.501210 0
M  V30 31 C 1.086774 4.171849 3.774187 0
M  V30 32 N 0.419280 4.996940 4.599127 0
M  V30 33 C 0.180704 4.326477 5.741225 0
M  V30 34 C 0.719263 3.044985 5.615861 0
M  V30 35 C 1.289866 2.948125 4.376623 0
M  V30 36 H 1.365981 -0.055432 4.051164 0
M  V30 37 H 1.976575 0.767223 5.502437 0
M  V30 38 H 3.178248 0.223177 4.304148 0
M  V30 39 H 3.263059 0.154612 2.251913 0
M  V30 40 H 6.194006 3.059745 -0.872337 0
M  V30 41 H 2.880259 1.539340 -2.791755 0
M  V30 42 H 1.069522 0.423691 -1.704766 0
M  V30 43 H 1.189775 -0.078906 1.138093 0
M  V30 44 H -0.666986 -0.443495 -2.184211 0
M  V30 45 H -2.805310 -1.599806 -2.463622 0
M  V30 46 H -5.542239 -2.179394 -1.726303 0
M  V30 47 H -5.892338 -3.660261 -0.815680 0
M  V30 48 H -5.597274 -4.178611 -3.073701 0
M  V30 49 H -3.975792 -3.520369 -3.227661 0
M  V30 50 H -2.217053 -4.409070 -1.996440 0
M  V30 51 H -2.905360 -4.994268 -0.395298 0
M  V30 52 H -1.089851 -6.459070 -1.763054 0
M  V30 53 H -2.658353 -7.332149 -1.264697 0
M  V30 54 H -2.489350 -7.622204 -3.713706 0
M  V30 55 H -1.906352 -5.943340 -3.863131 0
M  V30 56 H -4.193018 -5.650080 -4.248667 0
M  V30 57 H -4.644147 -7.048820 -3.203897 0
M  V30 58 H -2.753288 -2.439540 1.732960 0
M  V30 59 H -0.664339 -1.297203 1.966898 0
M  V30 60 H 2.567007 3.559272 0.875716 0
M  V30 61 H 1.408935 5.329991 2.010675 0
M  V30 62 H 0.140782 5.977800 4.384198 0
M  V30 63 H -0.345361 4.779616 6.563764 0
M  V30 64 H 0.681627 2.278068 6.376630 0
M  V30 END ATOM
M  V30 BEGIN BOND
M  V30 1 1 1 2
M  V30 2 2 2 3
M  V30 3 1 3 4
M  V30 4 1 4 5
M  V30 5 2 5 6
M  V30 6 1 6 7
M  V30 7 3 7 8
M  V30 8 1 6 9
M  V30 9 2 9 10
M  V30 10 1 10 11
M  V30 11 2 11 12
M  V30 12 1 12 13
M  V30 13 2 13 14
M  V30 14 1 14 15
M  V30 15 2 15 16
M  V30 16 1 16 17
M  V30 17 2 17 18
M  V30 18 1 18 19
M  V30 19 1 19 20
M  V30 20 1 20 21
M  V30 21 1 21 22
M  V30 22 1 22 23
M  V30 23 1 23 24
M  V30 24 1 24 25
M  V30 25 1 25 26
M  V30 26 1 18 27
M  V30 27 2 27 28
M  V30 28 1 3 29
M  V30 29 2 29 30
M  V30 30 1 30 31
M  V30 31 1 31 32
M  V30 32 1 32 33
M  V30 33 2 33 34
M  V30 34 1 34 35
M  V30 35 1 35 2
M  V30 36 1 12 5
M  V30 37 1 28 15
M  V30 38 2 35 31
M  V30 39 1 26 22
M  V30 40 1 1 36
M  V30 41 1 1 37
M  V30 42 1 1 38
M  V30 43 1 4 39
M  V30 44 1 9 40
M  V30 45 1 11 41
M  V30 46 1 13 42
M  V30 47 1 14 43
M  V30 48 1 16 44
M  V30 49 1 17 45
M  V30 50 1 20 46
M  V30 51 1 20 47
M  V30 52 1 21 48
M  V30 53 1 21 49
M  V30 54 1 23 50
M  V30 55 1 23 51
M  V30 56 1 24 52
M  V30 57 1 24 53
M  V30 58 1 25 54
M  V30 59 1 25 55
M  V30 60 1 26 56
M  V30 61 1 26 57
M  V30 62 1 27 58
M  V30 63 1 28 59
M  V30 64 1 29 60
M  V30 65 1 30 61
M  V30 66 1 32 62
M  V30 67 1 33 63
M  V30 68 1 34 64
M  V30 END BOND
M  V30 END CTAB
M  END
>  <Dataset>  (17) 
ChEMBL_Kinases

>  <Ligand_Instance>  (17) 
nan

>  <PDB_ID>  (17) 
nan

>  <Standardized_SMILES>  (17) 
Cc1c(Nc2c(C#N)cncc2/C=C/c2ccc(OCCN3CCCC3)cc2)ccc2[nH]ccc12

>  <Name>  (17) 
nan

>  <Pocket>  (17) 
nan

>  <ATP_Site>  (17) 
nan

>  <Peripheral>  (17) 
nan

>  <Num_H_Atoms_ProtBoundConf>  (17) 
nan

>  <Num_Resolved_Atoms>  (17) 
nan

>  <Num_Not_Resolved_Atoms>  (17) 
nan

$$$$
CHEMBL5093306
     RDKit          3D

  0  0  0  0  0  0  0  0  0  0999 V3000
M  V30 BEGIN CTAB
M  V30 COUNTS 62 66 0 0 0
M  V30 BEGIN ATOM
M  V30 1 O 2.888070 2.406463 3.585466 0
M  V30 2 C 2.178629 1.924600 2.672204 0
M  V30 3 N 2.712532 0.698464 2.225246 0
M  V30 4 C 3.821340 -0.183759 2.485916 0
M  V30 5 C 3.499597 -1.527657 2.932023 0
M  V30 6 C 4.576560 -2.381850 2.315443 0
M  V30 7 N 4.897223 -1.703218 1.051937 0
M  V30 8 C 4.055733 -2.142746 -0.011897 0
M  V30 9 C 4.370044 -1.531121 -1.354922 0
M  V30 10 O 5.677398 -1.823017 -1.753620 0
M  V30 11 C 4.755647 -0.309284 1.336443 0
M  V30 12 C 0.961196 2.438394 2.060319 0
M  V30 13 C 0.083263 1.566804 1.462013 0
M  V30 14 C -1.072038 2.029371 0.874680 0
M  V30 15 C -2.059597 1.184545 0.210948 0
M  V30 16 C -3.148571 1.838838 -0.325726 0
M  V30 17 C -4.120471 1.105608 -0.969937 0
M  V30 18 C -4.001413 -0.267608 -1.074178 0
M  V30 19 N -4.982214 -1.079866 -1.685037 0
M  V30 20 S -6.050224 -2.403574 -1.504303 0
M  V30 21 O -6.844491 -2.572094 -2.794319 0
M  V30 22 O -7.032010 -2.114086 -0.370082 0
M  V30 23 C -5.233229 -3.898743 -1.151279 0
M  V30 24 C -5.151539 -4.890086 -2.135386 0
M  V30 25 C -4.483462 -6.068052 -1.933444 0
M  V30 26 C -3.852037 -6.327621 -0.726541 0
M  V30 27 C -3.898743 -5.384635 0.286521 0
M  V30 28 Cl -3.119107 -5.665143 1.827237 0
M  V30 29 C -4.587621 -4.225381 0.015337 0
M  V30 30 Cl -4.684216 -3.076334 1.343862 0
M  V30 31 C -2.876823 -0.834508 -0.507065 0
M  V30 32 C -1.862118 -0.176512 0.152222 0
M  V30 33 N -1.260513 3.368828 0.936077 0
M  V30 34 C -0.416874 4.226565 1.513538 0
M  V30 35 N -0.451426 5.557518 1.660643 0
M  V30 36 N 0.632596 5.959590 2.316203 0
M  V30 37 C 1.414410 4.886518 2.618374 0
M  V30 38 C 0.748886 3.796800 2.110801 0
M  V30 39 H 2.273615 0.111993 1.452916 0
M  V30 40 H 4.389597 0.323342 3.325800 0
M  V30 41 H 2.550455 -1.959403 2.523609 0
M  V30 42 H 3.555442 -1.701060 4.034043 0
M  V30 43 H 4.221037 -3.413569 2.075512 0
M  V30 44 H 5.475972 -2.506519 2.951338 0
M  V30 45 H 2.992852 -1.824058 0.205640 0
M  V30 46 H 4.011611 -3.253672 -0.107963 0
M  V30 47 H 4.118232 -0.476398 -1.390788 0
M  V30 48 H 3.715234 -2.056737 -2.113399 0
M  V30 49 H 5.706582 -2.700822 -2.208164 0
M  V30 50 H 5.749854 0.133423 1.590112 0
M  V30 51 H 4.320279 0.250598 0.450064 0
M  V30 52 H 0.294787 0.526797 1.452853 0
M  V30 53 H -3.297986 2.904729 -0.276789 0
M  V30 54 H -4.991626 1.561306 -1.408926 0
M  V30 55 H -5.009900 -0.634768 -2.658035 0
M  V30 56 H -5.602416 -4.794415 -3.104969 0
M  V30 57 H -4.417636 -6.841356 -2.695668 0
M  V30 58 H -3.317672 -7.251252 -0.543104 0
M  V30 59 H -2.764359 -1.926360 -0.591452 0
M  V30 60 H -1.024462 -0.700179 0.562191 0
M  V30 61 H -1.196898 6.196577 1.324875 0
M  V30 62 H 2.361835 4.807552 3.138294 0
M  V30 END ATOM
M  V30 BEGIN BOND
M  V30 1 2 1 2
M  V30 2 1 2 3
M  V30 3 1 3 4
M  V30 4 1 4 5
M  V30 5 1 5 6
M  V30 6 1 6 7
M  V30 7 1 7 8
M  V30 8 1 8 9
M  V30 9 1 9 10
M  V30 10 1 7 11
M  V30 11 1 2 12
M  V30 12 2 12 13
M  V30 13 1 13 14
M  V30 14 1 14 15
M  V30 15 2 15 16
M  V30 16 1 16 17
M  V30 17 2 17 18
M  V30 18 1 18 19
M  V30 19 1 19 20
M  V30 20 2 20 21
M  V30 21 2 20 22
M  V30 22 1 20 23
M  V30 23 2 23 24
M  V30 24 1 24 25
M  V30 25 2 25 26
M  V30 26 1 26 27
M  V30 27 1 27 28
M  V30 28 2 27 29
M  V30 29 1 29 30
M  V30 30 1 18 31
M  V30 31 2 31 32
M  V30 32 2 14 33
M  V30 33 1 33 34
M  V30 34 1 34 35
M  V30 35 1 35 36
M  V30 36 2 36 37
M  V30 37 1 37 38
M  V30 38 1 11 4
M  V30 39 1 38 12
M  V30 40 1 32 15
M  V30 41 2 38 34
M  V30 42 1 29 23
M  V30 43 1 3 39
M  V30 44 1 4 40
M  V30 45 1 5 41
M  V30 46 1 5 42
M  V30 47 1 6 43
M  V30 48 1 6 44
M  V30 49 1 8 45
M  V30 50 1 8 46
M  V30 51 1 9 47
M  V30 52 1 9 48
M  V30 53 1 10 49
M  V30 54 1 11 50
M  V30 55 1 11 51
M  V30 56 1 13 52
M  V30 57 1 16 53
M  V30 58 1 17 54
M  V30 59 1 19 55
M  V30 60 1 24 56
M  V30 61 1 25 57
M  V30 62 1 26 58
M  V30 63 1 31 59
M  V30 64 1 32 60
M  V30 65 1 35 61
M  V30 66 1 37 62
M  V30 END BOND
M  V30 END CTAB
M  END
>  <Dataset>  (18) 
ChEMBL_Kinases

>  <Ligand_Instance>  (18) 
nan

>  <PDB_ID>  (18) 
nan

>  <Standardized_SMILES>  (18) 
O=C(NC1CCN(CCO)C1)c1cc(-c2ccc(NS(=O)(=O)c3cccc(Cl)c3Cl)cc2)nc2[nH]ncc12

>  <Name>  (18) 
nan

>  <Pocket>  (18) 
nan

>  <ATP_Site>  (18) 
nan

>  <Peripheral>  (18) 
nan

>  <Num_H_Atoms_ProtBoundConf>  (18) 
nan

>  <Num_Resolved_Atoms>  (18) 
nan

>  <Num_Not_Resolved_Atoms>  (18) 
nan

$$$$
CHEMBL5093355
     RDKit          3D

  0  0  0  0  0  0  0  0  0  0999 V3000
M  V30 BEGIN CTAB
M  V30 COUNTS 60 64 0 0 0
M  V30 BEGIN ATOM
M  V30 1 C 1.012488 -0.183240 6.008003 0
M  V30 2 O 2.064885 -0.797561 5.296979 0
M  V30 3 C 2.319629 -0.398157 3.993103 0
M  V30 4 C 3.338665 -0.973534 3.264731 0
M  V30 5 C 3.558209 -0.547281 1.971391 0
M  V30 6 C 2.790024 0.442696 1.371094 0
M  V30 7 C 1.752147 1.035413 2.099258 0
M  V30 8 C 0.997967 2.061336 1.415822 0
M  V30 9 N 1.657482 3.179734 1.131025 0
M  V30 10 C 0.814041 4.006848 0.510900 0
M  V30 11 S 0.590497 5.677941 -0.286427 0
M  V30 12 C -1.143358 5.402665 -0.699504 0
M  V30 13 C -1.394047 4.134108 -0.223611 0
M  V30 14 N -0.406596 3.461254 0.373300 0
M  V30 15 C -0.281688 2.248561 0.940457 0
M  V30 16 C -1.262716 1.174826 1.103496 0
M  V30 17 C -1.821595 0.615074 2.231098 0
M  V30 18 C -2.736902 -0.403723 2.077820 0
M  V30 19 N -3.024143 -0.783464 0.843433 0
M  V30 20 C -2.520220 -0.284560 -0.290506 0
M  V30 21 N -2.928186 -0.793097 -1.553003 0
M  V30 22 C -3.896930 -1.864069 -1.553375 0
M  V30 23 C -3.436024 -3.108136 -0.868443 0
M  V30 24 C -2.198180 -3.627387 -1.571697 0
M  V30 25 N -1.663417 -4.827605 -0.987063 0
M  V30 26 S -0.267776 -5.279548 -1.905813 0
M  V30 27 O 0.296012 -6.585548 -1.419274 0
M  V30 28 O -0.695762 -5.426241 -3.349211 0
M  V30 29 C 0.981896 -4.057867 -1.858780 0
M  V30 30 C 0.983188 -3.055346 -2.830276 0
M  V30 31 C 1.892246 -2.027376 -2.932720 0
M  V30 32 C 2.905007 -1.987625 -1.974180 0
M  V30 33 F 3.797788 -0.980709 -2.073684 0
M  V30 34 C 2.932414 -2.957685 -1.005910 0
M  V30 35 C 2.008273 -3.977658 -0.925967 0
M  V30 36 N -1.624907 0.711975 -0.129876 0
M  V30 37 C 1.572540 0.580520 3.376995 0
M  V30 38 H 0.944826 -0.661299 7.020354 0
M  V30 39 H 1.227728 0.903938 6.144226 0
M  V30 40 H 0.052101 -0.265142 5.455491 0
M  V30 41 H 3.905516 -1.736564 3.773425 0
M  V30 42 H 4.372539 -1.043999 1.465100 0
M  V30 43 H 3.014111 0.739204 0.335884 0
M  V30 44 H -1.678625 6.156763 -1.192667 0
M  V30 45 H -2.412994 3.831532 -0.404653 0
M  V30 46 H -1.456462 1.066911 3.118607 0
M  V30 47 H -3.144851 -0.807826 2.992000 0
M  V30 48 H -2.526117 -0.386421 -2.406057 0
M  V30 49 H -4.840108 -1.464762 -1.108551 0
M  V30 50 H -4.123437 -2.099850 -2.612662 0
M  V30 51 H -3.303527 -3.052117 0.208256 0
M  V30 52 H -4.233705 -3.877713 -1.050947 0
M  V30 53 H -2.437428 -3.884431 -2.637994 0
M  V30 54 H -1.422942 -2.836830 -1.613457 0
M  V30 55 H -1.436038 -4.716338 0.023385 0
M  V30 56 H 0.187758 -3.091025 -3.579420 0
M  V30 57 H 1.785000 -1.306272 -3.737590 0
M  V30 58 H 3.730798 -2.905269 -0.270747 0
M  V30 59 H 2.013470 -4.747912 -0.172926 0
M  V30 60 H 0.776111 1.034924 3.946230 0
M  V30 END ATOM
M  V30 BEGIN BOND
M  V30 1 1 1 2
M  V30 2 1 2 3
M  V30 3 2 3 4
M  V30 4 1 4 5
M  V30 5 2 5 6
M  V30 6 1 6 7
M  V30 7 1 7 8
M  V30 8 1 8 9
M  V30 9 2 9 10
M  V30 10 1 10 11
M  V30 11 1 11 12
M  V30 12 2 12 13
M  V30 13 1 13 14
M  V30 14 1 14 15
M  V30 15 1 15 16
M  V30 16 2 16 17
M  V30 17 1 17 18
M  V30 18 2 18 19
M  V30 19 1 19 20
M  V30 20 1 20 21
M  V30 21 1 21 22
M  V30 22 1 22 23
M  V30 23 1 23 24
M  V30 24 1 24 25
M  V30 25 1 25 26
M  V30 26 2 26 27
M  V30 27 2 26 28
M  V30 28 1 26 29
M  V30 29 2 29 30
M  V30 30 1 30 31
M  V30 31 2 31 32
M  V30 32 1 32 33
M  V30 33 1 32 34
M  V30 34 2 34 35
M  V30 35 2 20 36
M  V30 36 2 7 37
M  V30 37 1 37 3
M  V30 38 2 15 8
M  V30 39 1 36 16
M  V30 40 1 14 10
M  V30 41 1 35 29
M  V30 42 1 1 38
M  V30 43 1 1 39
M  V30 44 1 1 40
M  V30 45 1 4 41
M  V30 46 1 5 42
M  V30 47 1 6 43
M  V30 48 1 12 44
M  V30 49 1 13 45
M  V30 50 1 17 46
M  V30 51 1 18 47
M  V30 52 1 21 48
M  V30 53 1 22 49
M  V30 54 1 22 50
M  V30 55 1 23 51
M  V30 56 1 23 52
M  V30 57 1 24 53
M  V30 58 1 24 54
M  V30 59 1 25 55
M  V30 60 1 30 56
M  V30 61 1 31 57
M  V30 62 1 34 58
M  V30 63 1 35 59
M  V30 64 1 37 60
M  V30 END BOND
M  V30 END CTAB
M  END
>  <Dataset>  (19) 
ChEMBL_Kinases

>  <Ligand_Instance>  (19) 
nan

>  <PDB_ID>  (19) 
nan

>  <Standardized_SMILES>  (19) 
COc1cccc(-c2nc3sccn3c2-c2ccnc(NCCCNS(=O)(=O)c3ccc(F)cc3)n2)c1

>  <Name>  (19) 
nan

>  <Pocket>  (19) 
nan

>  <ATP_Site>  (19) 
nan

>  <Peripheral>  (19) 
nan

>  <Num_H_Atoms_ProtBoundConf>  (19) 
nan

>  <Num_Resolved_Atoms>  (19) 
nan

>  <Num_Not_Resolved_Atoms>  (19) 
nan

$$$$
CHEMBL5093381
     RDKit          3D

  0  0  0  0  0  0  0  0  0  0999 V3000
M  V30 BEGIN CTAB
M  V30 COUNTS 37 39 0 0 0
M  V30 BEGIN ATOM
M  V30 1 C -1.806373 -2.815646 1.808396 0
M  V30 2 N -0.654760 -3.666541 2.014963 0
M  V30 3 C -0.944652 -4.964279 2.639424 0
M  V30 4 C 0.710809 -3.446223 1.707973 0
M  V30 5 O 1.542177 -4.376285 2.002245 0
M  V30 6 C 1.374278 -2.311855 1.094361 0
M  V30 7 C 0.794618 -1.163957 0.646773 0
M  V30 8 C 1.422731 -0.089128 0.063277 0
M  V30 9 C 0.710602 1.101930 -0.385479 0
M  V30 10 C 1.219811 1.788063 -1.475470 0
M  V30 11 N 0.583262 2.890838 -1.911588 0
M  V30 12 C -0.548038 3.364810 -1.323368 0
M  V30 13 N -1.348401 4.421104 -1.568680 0
M  V30 14 C -2.355785 4.428024 -0.664005 0
M  V30 15 C -2.171919 3.329407 0.177663 0
M  V30 16 C -1.029960 2.650933 -0.232585 0
M  V30 17 C -0.437290 1.512170 0.276214 0
M  V30 18 C 2.789233 -0.164725 -0.093834 0
M  V30 19 C 3.445958 -1.293945 0.334256 0
M  V30 20 C 2.737884 -2.350943 0.920809 0
M  V30 21 N 3.550999 -3.436999 1.307651 0
M  V30 22 H -1.735416 -1.846202 2.366492 0
M  V30 23 H -1.993124 -2.631405 0.736441 0
M  V30 24 H -2.698880 -3.316733 2.286124 0
M  V30 25 H -0.172159 -5.718047 2.405400 0
M  V30 26 H -1.910799 -5.328913 2.234706 0
M  V30 27 H -1.019685 -4.831786 3.735246 0
M  V30 28 H -0.269779 -1.031674 0.733759 0
M  V30 29 H 2.115275 1.475097 -1.998076 0
M  V30 30 H -1.119593 5.072954 -2.373609 0
M  V30 31 H -3.133657 5.200995 -0.669713 0
M  V30 32 H -2.855664 3.106872 1.000161 0
M  V30 33 H -0.834832 0.985639 1.118728 0
M  V30 34 H 3.338658 0.647990 -0.545498 0
M  V30 35 H 4.511414 -1.324340 0.198600 0
M  V30 36 H 3.841782 -4.185632 0.627567 0
M  V30 37 H 3.948921 -3.637994 2.247647 0
M  V30 END ATOM
M  V30 BEGIN BOND
M  V30 1 1 1 2
M  V30 2 1 2 3
M  V30 3 1 2 4
M  V30 4 2 4 5
M  V30 5 1 4 6
M  V30 6 2 6 7
M  V30 7 1 7 8
M  V30 8 1 8 9
M  V30 9 2 9 10
M  V30 10 1 10 11
M  V30 11 2 11 12
M  V30 12 1 12 13
M  V30 13 1 13 14
M  V30 14 2 14 15
M  V30 15 1 15 16
M  V30 16 2 16 17
M  V30 17 2 8 18
M  V30 18 1 18 19
M  V30 19 2 19 20
M  V30 20 1 20 21
M  V30 21 1 20 6
M  V30 22 1 17 9
M  V30 23 1 16 12
M  V30 24 1 1 22
M  V30 25 1 1 23
M  V30 26 1 1 24
M  V30 27 1 3 25
M  V30 28 1 3 26
M  V30 29 1 3 27
M  V30 30 1 7 28
M  V30 31 1 10 29
M  V30 32 1 13 30
M  V30 33 1 14 31
M  V30 34 1 15 32
M  V30 35 1 17 33
M  V30 36 1 18 34
M  V30 37 1 19 35
M  V30 38 1 21 36
M  V30 39 1 21 37
M  V30 END BOND
M  V30 END CTAB
M  END
>  <Dataset>  (20) 
ChEMBL_Kinases

>  <Ligand_Instance>  (20) 
nan

>  <PDB_ID>  (20) 
nan

>  <Standardized_SMILES>  (20) 
CN(C)C(=O)c1cc(-c2cnc3[nH]ccc3c2)ccc1N

>  <Name>  (20) 
nan

>  <Pocket>  (20) 
nan

>  <ATP_Site>  (20) 
nan

>  <Peripheral>  (20) 
nan

>  <Num_H_Atoms_ProtBoundConf>  (20) 
nan

>  <Num_Resolved_Atoms>  (20) 
nan

>  <Num_Not_Resolved_Atoms>  (20) 
nan

$$$$
CHEMBL579201
     RDKit          3D

  0  0  0  0  0  0  0  0  0  0999 V3000
M  V30 BEGIN CTAB
M  V30 COUNTS 42 45 0 0 0
M  V30 BEGIN ATOM
M  V30 1 N 1.896360 -5.300981 -0.717532 0
M  V30 2 C 2.352850 -4.307409 -0.339665 0
M  V30 3 C 2.892490 -3.089458 0.135390 0
M  V30 4 C 4.116236 -3.115529 0.764636 0
M  V30 5 N 4.650290 -1.977306 1.224005 0
M  V30 6 C 4.017745 -0.823734 1.081597 0
M  V30 7 C 2.788758 -0.671426 0.469468 0
M  V30 8 C 2.192190 0.623387 0.364297 0
M  V30 9 C 1.110187 1.117526 -0.149025 0
M  V30 10 C 0.639718 2.491813 -0.169548 0
M  V30 11 C -0.556021 2.802529 -0.777940 0
M  V30 12 C -1.037737 4.089722 -0.819907 0
M  V30 13 C -0.344261 5.134688 -0.252893 0
M  V30 14 C 0.854901 4.860282 0.363742 0
M  V30 15 C 1.304611 3.561248 0.385897 0
M  V30 16 C 2.287597 -1.864182 0.019192 0
M  V30 17 N 1.028213 -1.923453 -0.632819 0
M  V30 18 C -0.089365 -2.267359 0.218478 0
M  V30 19 C -1.387408 -2.360907 -0.295479 0
M  V30 20 C -2.474557 -2.685251 0.482580 0
M  V30 21 C -2.291325 -2.930992 1.827270 0
M  V30 22 N -3.171936 -3.260896 2.787574 0
M  V30 23 C -2.494334 -3.395638 3.957781 0
M  V30 24 C -1.156107 -3.142202 3.716382 0
M  V30 25 C -1.027640 -2.849167 2.373073 0
M  V30 26 C 0.036530 -2.522586 1.566772 0
M  V30 27 H 4.670852 -4.029257 0.904844 0
M  V30 28 H 4.547508 0.048791 1.496103 0
M  V30 29 H 2.750229 1.456876 0.819525 0
M  V30 30 H 0.505412 0.362938 -0.624387 0
M  V30 31 H -1.127378 2.004881 -1.234036 0
M  V30 32 H -1.986860 4.259081 -1.316329 0
M  V30 33 H -0.720065 6.153847 -0.283014 0
M  V30 34 H 1.410735 5.669973 0.813343 0
M  V30 35 H 2.240942 3.407748 0.878001 0
M  V30 36 H 0.808401 -1.757310 -1.637357 0
M  V30 37 H -1.494678 -2.160651 -1.359688 0
M  V30 38 H -3.445026 -2.729460 -0.028091 0
M  V30 39 H -4.208398 -3.391582 2.652251 0
M  V30 40 H -2.884590 -3.653710 4.932962 0
M  V30 41 H -0.359586 -3.171817 4.459294 0
M  V30 42 H 1.019407 -2.455615 1.974967 0
M  V30 END ATOM
M  V30 BEGIN BOND
M  V30 1 3 1 2
M  V30 2 1 2 3
M  V30 3 2 3 4
M  V30 4 1 4 5
M  V30 5 2 5 6
M  V30 6 1 6 7
M  V30 7 1 7 8
M  V30 8 2 8 9
M  V30 9 1 9 10
M  V30 10 2 10 11
M  V30 11 1 11 12
M  V30 12 2 12 13
M  V30 13 1 13 14
M  V30 14 2 14 15
M  V30 15 2 7 16
M  V30 16 1 16 17
M  V30 17 1 17 18
M  V30 18 2 18 19
M  V30 19 1 19 20
M  V30 20 2 20 21
M  V30 21 1 21 22
M  V30 22 1 22 23
M  V30 23 2 23 24
M  V30 24 1 24 25
M  V30 25 2 25 26
M  V30 26 1 16 3
M  V30 27 1 26 18
M  V30 28 1 15 10
M  V30 29 1 25 21
M  V30 30 1 4 27
M  V30 31 1 6 28
M  V30 32 1 8 29
M  V30 33 1 9 30
M  V30 34 1 11 31
M  V30 35 1 12 32
M  V30 36 1 13 33
M  V30 37 1 14 34
M  V30 38 1 15 35
M  V30 39 1 17 36
M  V30 40 1 19 37
M  V30 41 1 20 38
M  V30 42 1 22 39
M  V30 43 1 23 40
M  V30 44 1 24 41
M  V30 45 1 26 42
M  V30 END BOND
M  V30 END CTAB
M  END
>  <Dataset>  (21) 
ChEMBL_Kinases

>  <Ligand_Instance>  (21) 
nan

>  <PDB_ID>  (21) 
nan

>  <Standardized_SMILES>  (21) 
N#Cc1cncc(/C=C/c2ccccc2)c1Nc1ccc2[nH]ccc2c1

>  <Name>  (21) 
nan

>  <Pocket>  (21) 
nan

>  <ATP_Site>  (21) 
nan

>  <Peripheral>  (21) 
nan

>  <Num_H_Atoms_ProtBoundConf>  (21) 
nan

>  <Num_Resolved_Atoms>  (21) 
nan

>  <Num_Not_Resolved_Atoms>  (21) 
nan

$$$$
CHEMBL3746736
     RDKit          3D

  0  0  0  0  0  0  0  0  0  0999 V3000
M  V30 BEGIN CTAB
M  V30 COUNTS 46 48 0 0 0
M  V30 BEGIN ATOM
M  V30 1 N -0.711281 -0.257301 2.200057 0
M  V30 2 C -0.609909 -0.965721 1.012972 0
M  V30 3 O -1.845062 -0.854073 0.830840 0
M  V30 4 C 0.085572 -1.680121 -0.003600 0
M  V30 5 C 1.425388 -1.776068 0.236993 0
M  V30 6 O 2.338093 -1.383557 1.165935 0
M  V30 7 C 2.634154 -0.084541 1.486929 0
M  V30 8 C 3.459040 0.384230 0.447493 0
M  V30 9 C 3.965834 1.692475 0.438134 0
M  V30 10 C 3.660162 2.564742 1.468453 0
M  V30 11 C 2.851444 2.096195 2.482728 0
M  V30 12 N 2.444987 2.863309 3.610680 0
M  V30 13 S 1.888669 4.494312 3.367709 0
M  V30 14 N 3.082833 5.500974 2.689829 0
M  V30 15 O 1.505722 5.062328 4.719978 0
M  V30 16 O 0.619181 4.467352 2.571628 0
M  V30 17 C 2.359972 0.813111 2.483573 0
M  V30 18 C 2.157892 -2.485871 -0.729155 0
M  V30 19 C 1.519390 -3.038967 -1.844987 0
M  V30 20 F 2.083066 -3.738998 -2.845466 0
M  V30 21 C 0.157775 -2.890529 -2.005648 0
M  V30 22 F -0.555642 -3.393886 -3.061476 0
M  V30 23 C -0.582535 -2.199335 -1.072285 0
M  V30 24 N -1.983082 -2.024213 -1.200112 0
M  V30 25 C -2.964817 -2.914224 -0.680941 0
M  V30 26 C -2.524088 -4.031219 -0.002409 0
M  V30 27 C -3.528025 -4.850281 0.473768 0
M  V30 28 C -4.882519 -4.597941 0.300272 0
M  V30 29 I -6.354407 -5.900265 1.059438 0
M  V30 30 C -5.225648 -3.447985 -0.396503 0
M  V30 31 C -4.282295 -2.573290 -0.907098 0
M  V30 32 F -4.602023 -1.447249 -1.589134 0
M  V30 33 H -0.630630 0.777290 2.343357 0
M  V30 34 H -0.883396 -0.653328 3.168415 0
M  V30 35 H 3.833078 -0.113077 -0.461652 0
M  V30 36 H 4.601652 2.140262 -0.309753 0
M  V30 37 H 3.992896 3.584313 1.560871 0
M  V30 38 H 2.484966 2.438820 4.573072 0
M  V30 39 H 3.316307 6.293893 3.293462 0
M  V30 40 H 2.865670 5.832265 1.725438 0
M  V30 41 H 1.738875 0.335761 3.218031 0
M  V30 42 H 3.216662 -2.725270 -0.811359 0
M  V30 43 H -2.198151 -1.156549 -1.725129 0
M  V30 44 H -1.475697 -4.241811 0.141063 0
M  V30 45 H -3.281964 -5.756298 1.022346 0
M  V30 46 H -6.279817 -3.206135 -0.558858 0
M  V30 END ATOM
M  V30 BEGIN BOND
M  V30 1 1 1 2
M  V30 2 2 2 3
M  V30 3 1 2 4
M  V30 4 2 4 5
M  V30 5 1 5 6
M  V30 6 1 6 7
M  V30 7 2 7 8
M  V30 8 1 8 9
M  V30 9 2 9 10
M  V30 10 1 10 11
M  V30 11 1 11 12
M  V30 12 1 12 13
M  V30 13 1 13 14
M  V30 14 2 13 15
M  V30 15 2 13 16
M  V30 16 2 11 17
M  V30 17 1 5 18
M  V30 18 2 18 19
M  V30 19 1 19 20
M  V30 20 1 19 21
M  V30 21 1 21 22
M  V30 22 2 21 23
M  V30 23 1 23 24
M  V30 24 1 24 25
M  V30 25 2 25 26
M  V30 26 1 26 27
M  V30 27 2 27 28
M  V30 28 1 28 29
M  V30 29 1 28 30
M  V30 30 2 30 31
M  V30 31 1 31 32
M  V30 32 1 23 4
M  V30 33 1 31 25
M  V30 34 1 17 7
M  V30 35 1 1 33
M  V30 36 1 1 34
M  V30 37 1 8 35
M  V30 38 1 9 36
M  V30 39 1 10 37
M  V30 40 1 12 38
M  V30 41 1 14 39
M  V30 42 1 14 40
M  V30 43 1 17 41
M  V30 44 1 18 42
M  V30 45 1 24 43
M  V30 46 1 26 44
M  V30 47 1 27 45
M  V30 48 1 30 46
M  V30 END BOND
M  V30 END CTAB
M  END
>  <Dataset>  (22) 
ChEMBL_Kinases

>  <Ligand_Instance>  (22) 
nan

>  <PDB_ID>  (22) 
nan

>  <Standardized_SMILES>  (22) 
NC(=O)c1c(Oc2cccc(NS(N)(=O)=O)c2)cc(F)c(F)c1Nc1ccc(I)cc1F

>  <Name>  (22) 
nan

>  <Pocket>  (22) 
nan

>  <ATP_Site>  (22) 
nan

>  <Peripheral>  (22) 
nan

>  <Num_H_Atoms_ProtBoundConf>  (22) 
nan

>  <Num_Resolved_Atoms>  (22) 
nan

>  <Num_Not_Resolved_Atoms>  (22) 
nan

$$$$
CHEMBL3735220
     RDKit          3D

  0  0  0  0  0  0  0  0  0  0999 V3000
M  V30 BEGIN CTAB
M  V30 COUNTS 58 60 0 0 0
M  V30 BEGIN ATOM
M  V30 1 C -1.744548 -4.709676 -1.704241 0
M  V30 2 O -0.805278 -3.718492 -1.475848 0
M  V30 3 C 0.405211 -3.524647 -2.115520 0
M  V30 4 C 0.921888 -4.309645 -3.134979 0
M  V30 5 C 2.140435 -4.046856 -3.719952 0
M  V30 6 C 2.900789 -2.979365 -3.307645 0
M  V30 7 N 4.075771 -2.392157 -3.583139 0
M  V30 8 N 4.305232 -1.331040 -2.822131 0
M  V30 9 C 3.253403 -1.157593 -1.973903 0
M  V30 10 C 3.330143 -0.045214 -1.066235 0
M  V30 11 O 4.402087 0.654083 -1.077392 0
M  V30 12 N 2.487678 0.526417 -0.099714 0
M  V30 13 C 3.159746 1.663940 0.494464 0
M  V30 14 C 2.298418 2.332020 1.541270 0
M  V30 15 C 1.009090 2.844962 0.998949 0
M  V30 16 C -0.180625 2.531691 1.881715 0
M  V30 17 N -0.250141 1.134073 2.082782 0
M  V30 18 C -1.447580 0.587066 2.607756 0
M  V30 19 C -2.572003 0.700596 1.607085 0
M  V30 20 C -3.875630 0.098832 2.141899 0
M  V30 21 N -3.695364 -1.307889 2.443751 0
M  V30 22 C -3.488962 -2.107365 1.248855 0
M  V30 23 C -4.869838 -1.825608 3.146418 0
M  V30 24 C 0.921082 0.562456 2.707572 0
M  V30 25 C 2.121641 1.433294 2.724101 0
M  V30 26 C 2.405987 -2.185752 -2.295712 0
M  V30 27 C 1.189762 -2.460577 -1.722367 0
M  V30 28 H -1.864688 -5.362720 -0.790373 0
M  V30 29 H -2.764842 -4.320515 -1.935427 0
M  V30 30 H -1.409769 -5.390740 -2.508922 0
M  V30 31 H 0.341129 -5.152352 -3.474247 0
M  V30 32 H 2.547431 -4.654462 -4.512852 0
M  V30 33 H 4.723855 -2.740756 -4.315942 0
M  V30 34 H 1.579169 0.035525 -0.009080 0
M  V30 35 H 3.387717 2.432145 -0.260167 0
M  V30 36 H 4.088986 1.318128 0.988201 0
M  V30 37 H 2.897460 3.215090 1.907921 0
M  V30 38 H 0.841348 2.406190 -0.005650 0
M  V30 39 H 1.031988 3.951330 0.880019 0
M  V30 40 H -0.093135 3.078388 2.841922 0
M  V30 41 H -1.067030 2.883875 1.326479 0
M  V30 42 H -1.274213 -0.519089 2.729636 0
M  V30 43 H -1.746533 1.004996 3.590783 0
M  V30 44 H -2.732112 1.803057 1.423888 0
M  V30 45 H -2.314598 0.241748 0.652758 0
M  V30 46 H -4.083935 0.601788 3.105871 0
M  V30 47 H -4.660745 0.303466 1.404714 0
M  V30 48 H -3.274170 -1.524130 0.351192 0
M  V30 49 H -4.376338 -2.762320 1.041689 0
M  V30 50 H -2.651484 -2.813262 1.483846 0
M  V30 51 H -4.525695 -2.578355 3.871722 0
M  V30 52 H -5.534216 -2.309264 2.370599 0
M  V30 53 H -5.455449 -1.009850 3.642560 0
M  V30 54 H 1.061777 -0.440123 2.294978 0
M  V30 55 H 0.638758 0.388170 3.787326 0
M  V30 56 H 3.024203 0.754425 2.729015 0
M  V30 57 H 2.205800 1.996688 3.677536 0
M  V30 58 H 0.805545 -1.842475 -0.930566 0
M  V30 END ATOM
M  V30 BEGIN BOND
M  V30 1 1 1 2
M  V30 2 1 2 3
M  V30 3 2 3 4
M  V30 4 1 4 5
M  V30 5 2 5 6
M  V30 6 1 6 7
M  V30 7 1 7 8
M  V30 8 2 8 9
M  V30 9 1 9 10
M  V30 10 2 10 11
M  V30 11 1 10 12
M  V30 12 1 12 13
M  V30 13 1 13 14
M  V30 14 1 14 15
M  V30 15 1 15 16
M  V30 16 1 16 17
M  V30 17 1 17 18
M  V30 18 1 18 19
M  V30 19 1 19 20
M  V30 20 1 20 21
M  V30 21 1 21 22
M  V30 22 1 21 23
M  V30 23 1 17 24
M  V30 24 1 24 25
M  V30 25 1 9 26
M  V30 26 2 26 27
M  V30 27 1 27 3
M  V30 28 1 26 6
M  V30 29 1 25 14
M  V30 30 1 1 28
M  V30 31 1 1 29
M  V30 32 1 1 30
M  V30 33 1 4 31
M  V30 34 1 5 32
M  V30 35 1 7 33
M  V30 36 1 12 34
M  V30 37 1 13 35
M  V30 38 1 13 36
M  V30 39 1 14 37
M  V30 40 1 15 38
M  V30 41 1 15 39
M  V30 42 1 16 40
M  V30 43 1 16 41
M  V30 44 1 18 42
M  V30 45 1 18 43
M  V30 46 1 19 44
M  V30 47 1 19 45
M  V30 48 1 20 46
M  V30 49 1 20 47
M  V30 50 1 22 48
M  V30 51 1 22 49
M  V30 52 1 22 50
M  V30 53 1 23 51
M  V30 54 1 23 52
M  V30 55 1 23 53
M  V30 56 1 24 54
M  V30 57 1 24 55
M  V30 58 1 25 56
M  V30 59 1 25 57
M  V30 60 1 27 58
M  V30 END BOND
M  V30 END CTAB
M  END
>  <Dataset>  (23) 
ChEMBL_Kinases

>  <Ligand_Instance>  (23) 
nan

>  <PDB_ID>  (23) 
nan

>  <Standardized_SMILES>  (23) 
COc1ccc2[nH]nc(C(=O)NCC3CCN(CCCN(C)C)CC3)c2c1

>  <Name>  (23) 
nan

>  <Pocket>  (23) 
nan

>  <ATP_Site>  (23) 
nan

>  <Peripheral>  (23) 
nan

>  <Num_H_Atoms_ProtBoundConf>  (23) 
nan

>  <Num_Resolved_Atoms>  (23) 
nan

>  <Num_Not_Resolved_Atoms>  (23) 
nan

$$$$
CHEMBL3735215
     RDKit          3D

  0  0  0  0  0  0  0  0  0  0999 V3000
M  V30 BEGIN CTAB
M  V30 COUNTS 60 64 0 0 0
M  V30 BEGIN ATOM
M  V30 1 O 4.135726 -2.591102 6.024031 0
M  V30 2 C 3.949255 -2.407199 4.795935 0
M  V30 3 O 3.369444 -3.413211 4.036668 0
M  V30 4 C 4.343528 -1.133382 4.168698 0
M  V30 5 C 4.920940 -0.086218 4.836696 0
M  V30 6 C 5.105499 0.870101 3.845035 0
M  V30 7 C 4.639269 0.370166 2.635591 0
M  V30 8 C 4.601781 0.979918 1.278111 0
M  V30 9 N 3.368878 1.709386 1.042191 0
M  V30 10 C 3.411907 2.257642 -0.273444 0
M  V30 11 C 2.122802 2.740270 -0.834118 0
M  V30 12 C 0.898336 2.041559 -0.292040 0
M  V30 13 C -0.325348 2.846042 -0.563425 0
M  V30 14 N -1.473299 2.137627 -0.025426 0
M  V30 15 C -1.878600 0.837172 -0.431531 0
M  V30 16 O -1.244396 0.201075 -1.312498 0
M  V30 17 C -3.067087 0.210107 0.186446 0
M  V30 18 N -3.842089 0.747156 1.125821 0
M  V30 19 N -4.833437 -0.061324 1.479216 0
M  V30 20 C -4.669401 -1.159725 0.721852 0
M  V30 21 C -5.412413 -2.319448 0.672681 0
M  V30 22 C -5.075251 -3.345658 -0.185401 0
M  V30 23 C -3.959802 -3.176182 -1.002828 0
M  V30 24 C -3.607982 -4.265446 -1.908417 0
M  V30 25 C -4.535498 -4.936373 -2.682893 0
M  V30 26 C -4.108617 -5.964751 -3.519593 0
M  V30 27 C -2.751425 -6.251878 -3.518595 0
M  V30 28 C -1.807305 -5.596954 -2.755329 0
M  V30 29 F -0.526688 -6.018748 -2.889030 0
M  V30 30 C -2.253602 -4.569415 -1.922994 0
M  V30 31 F -1.312643 -3.953194 -1.194741 0
M  V30 32 C -3.185086 -2.034823 -0.990114 0
M  V30 33 C -3.566279 -1.040111 -0.113796 0
M  V30 34 C 1.018547 1.826041 1.211513 0
M  V30 35 C 2.231016 0.898268 1.345148 0
M  V30 36 O 4.194332 -0.842294 2.907091 0
M  V30 37 H 2.723297 -4.073490 4.484671 0
M  V30 38 H 5.174749 -0.016741 5.888506 0
M  V30 39 H 5.535354 1.848310 3.957001 0
M  V30 40 H 5.475078 1.676525 1.171716 0
M  V30 41 H 4.774187 0.164684 0.550765 0
M  V30 42 H 3.977214 1.561981 -0.950352 0
M  V30 43 H 4.092034 3.157393 -0.213671 0
M  V30 44 H 1.981893 3.837301 -0.817560 0
M  V30 45 H 2.142442 2.480773 -1.933812 0
M  V30 46 H 0.849882 1.047718 -0.761490 0
M  V30 47 H -0.420324 2.952233 -1.664861 0
M  V30 48 H -0.242494 3.810430 -0.045331 0
M  V30 49 H -2.073978 2.581207 0.718065 0
M  V30 50 H -5.571933 0.128460 2.191722 0
M  V30 51 H -6.285542 -2.425387 1.327615 0
M  V30 52 H -5.649783 -4.257235 -0.231867 0
M  V30 53 H -5.572266 -4.633152 -2.608765 0
M  V30 54 H -4.831785 -6.473931 -4.110932 0
M  V30 55 H -2.498944 -7.072997 -4.203366 0
M  V30 56 H -2.321021 -1.916214 -1.630423 0
M  V30 57 H 0.107643 1.355880 1.588262 0
M  V30 58 H 1.246546 2.796308 1.697351 0
M  V30 59 H 2.114829 0.102521 0.589292 0
M  V30 60 H 2.354586 0.517362 2.375826 0
M  V30 END ATOM
M  V30 BEGIN BOND
M  V30 1 2 1 2
M  V30 2 1 2 3
M  V30 3 1 2 4
M  V30 4 2 4 5
M  V30 5 1 5 6
M  V30 6 2 6 7
M  V30 7 1 7 8
M  V30 8 1 8 9
M  V30 9 1 9 10
M  V30 10 1 10 11
M  V30 11 1 11 12
M  V30 12 1 12 13
M  V30 13 1 13 14
M  V30 14 1 14 15
M  V30 15 2 15 16
M  V30 16 1 15 17
M  V30 17 2 17 18
M  V30 18 1 18 19
M  V30 19 1 19 20
M  V30 20 2 20 21
M  V30 21 1 21 22
M  V30 22 2 22 23
M  V30 23 1 23 24
M  V30 24 2 24 25
M  V30 25 1 25 26
M  V30 26 2 26 27
M  V30 27 1 27 28
M  V30 28 1 28 29
M  V30 29 2 28 30
M  V30 30 1 30 31
M  V30 31 1 23 32
M  V30 32 2 32 33
M  V30 33 1 12 34
M  V30 34 1 34 35
M  V30 35 1 7 36
M  V30 36 1 36 4
M  V30 37 1 35 9
M  V30 38 1 33 17
M  V30 39 1 33 20
M  V30 40 1 30 24
M  V30 41 1 3 37
M  V30 42 1 5 38
M  V30 43 1 6 39
M  V30 44 1 8 40
M  V30 45 1 8 41
M  V30 46 1 10 42
M  V30 47 1 10 43
M  V30 48 1 11 44
M  V30 49 1 11 45
M  V30 50 1 12 46
M  V30 51 1 13 47
M  V30 52 1 13 48
M  V30 53 1 14 49
M  V30 54 1 19 50
M  V30 55 1 21 51
M  V30 56 1 22 52
M  V30 57 1 25 53
M  V30 58 1 26 54
M  V30 59 1 27 55
M  V30 60 1 32 56
M  V30 61 1 34 57
M  V30 62 1 34 58
M  V30 63 1 35 59
M  V30 64 1 35 60
M  V30 END BOND
M  V30 END CTAB
M  END
>  <Dataset>  (24) 
ChEMBL_Kinases

>  <Ligand_Instance>  (24) 
nan

>  <PDB_ID>  (24) 
nan

>  <Standardized_SMILES>  (24) 
O=C(O)c1ccc(CN2CCC(CNC(=O)c3n[nH]c4ccc(-c5cccc(F)c5F)cc34)CC2)o1

>  <Name>  (24) 
nan

>  <Pocket>  (24) 
nan

>  <ATP_Site>  (24) 
nan

>  <Peripheral>  (24) 
nan

>  <Num_H_Atoms_ProtBoundConf>  (24) 
nan

>  <Num_Resolved_Atoms>  (24) 
nan

>  <Num_Not_Resolved_Atoms>  (24) 
nan

$$$$
CHEMBL3735196
     RDKit          3D

  0  0  0  0  0  0  0  0  0  0999 V3000
M  V30 BEGIN CTAB
M  V30 COUNTS 53 58 0 0 0
M  V30 BEGIN ATOM
M  V30 1 C 0.290037 -1.058012 5.366403 0
M  V30 2 N 0.180681 -2.472121 5.597352 0
M  V30 3 C 1.479826 -3.075465 5.759060 0
M  V30 4 C 2.244041 -2.881683 4.473854 0
M  V30 5 N 1.342965 -2.609131 3.368398 0
M  V30 6 C 1.582818 -1.641566 2.354162 0
M  V30 7 C 2.765235 -0.939994 2.241048 0
M  V30 8 C 2.982593 0.009341 1.243668 0
M  V30 9 C 1.921995 0.190939 0.379622 0
M  V30 10 N 1.863043 1.045724 -0.672887 0
M  V30 11 C 0.647285 0.923018 -1.268364 0
M  V30 12 C 0.073197 1.601189 -2.424227 0
M  V30 13 C -0.064025 2.988501 -2.310937 0
M  V30 14 C -0.599649 3.767421 -3.339219 0
M  V30 15 C -0.996678 3.091616 -4.498933 0
M  V30 16 C -0.854015 1.718068 -4.594900 0
M  V30 17 C -0.325051 0.957946 -3.576658 0
M  V30 18 O -0.290483 -0.386391 -3.921573 0
M  V30 19 C -1.222944 -0.485729 -5.010319 0
M  V30 20 O -1.165875 0.810866 -5.624232 0
M  V30 21 C -0.026730 -0.040524 -0.533492 0
M  V30 22 C -1.362409 -0.553114 -0.735447 0
M  V30 23 C -2.366209 0.413498 -0.590852 0
M  V30 24 C -3.684026 -0.013299 -0.772223 0
M  V30 25 N -4.039181 -1.294301 -1.076264 0
M  V30 26 C -3.045117 -2.196463 -1.207355 0
M  V30 27 C -1.725498 -1.870907 -1.048065 0
M  V30 28 N 0.762977 -0.487179 0.479089 0
M  V30 29 N 0.621252 -1.376668 1.451407 0
M  V30 30 C 0.127960 -3.403265 3.322828 0
M  V30 31 C -0.623911 -3.133526 4.605143 0
M  V30 32 H -0.316077 -0.818961 4.461821 0
M  V30 33 H -0.115752 -0.537573 6.264968 0
M  V30 34 H 1.320397 -0.697960 5.197250 0
M  V30 35 H 2.013223 -2.529787 6.560592 0
M  V30 36 H 1.382474 -4.134524 6.071922 0
M  V30 37 H 2.947435 -3.706288 4.245070 0
M  V30 38 H 2.868046 -1.973181 4.591185 0
M  V30 39 H 3.573203 -1.100932 2.922551 0
M  V30 40 H 3.909950 0.542069 1.176218 0
M  V30 41 H 0.250071 3.507790 -1.398587 0
M  V30 42 H -0.707036 4.821619 -3.259441 0
M  V30 43 H -1.416934 3.695110 -5.308277 0
M  V30 44 H -2.235122 -0.720244 -4.636230 0
M  V30 45 H -0.869597 -1.195411 -5.766465 0
M  V30 46 H -2.163333 1.441895 -0.351833 0
M  V30 47 H -4.482470 0.696913 -0.670052 0
M  V30 48 H -3.286562 -3.229952 -1.449169 0
M  V30 49 H -0.882285 -2.550197 -1.140715 0
M  V30 50 H 0.382330 -4.501260 3.309993 0
M  V30 51 H -0.509150 -3.151366 2.457035 0
M  V30 52 H -1.449120 -2.425023 4.359305 0
M  V30 53 H -1.121730 -4.045507 4.994378 0
M  V30 END ATOM
M  V30 BEGIN BOND
M  V30 1 1 1 2
M  V30 2 1 2 3
M  V30 3 1 3 4
M  V30 4 1 4 5
M  V30 5 1 5 6
M  V30 6 1 6 7
M  V30 7 2 7 8
M  V30 8 1 8 9
M  V30 9 2 9 10
M  V30 10 1 10 11
M  V30 11 1 11 12
M  V30 12 2 12 13
M  V30 13 1 13 14
M  V30 14 2 14 15
M  V30 15 1 15 16
M  V30 16 2 16 17
M  V30 17 1 17 18
M  V30 18 1 18 19
M  V30 19 1 19 20
M  V30 20 2 11 21
M  V30 21 1 21 22
M  V30 22 2 22 23
M  V30 23 1 23 24
M  V30 24 2 24 25
M  V30 25 1 25 26
M  V30 26 2 26 27
M  V30 27 1 21 28
M  V30 28 1 28 29
M  V30 29 1 5 30
M  V30 30 1 30 31
M  V30 31 1 31 2
M  V30 32 2 29 6
M  V30 33 1 28 9
M  V30 34 1 17 12
M  V30 35 1 27 22
M  V30 36 1 20 16
M  V30 37 1 1 32
M  V30 38 1 1 33
M  V30 39 1 1 34
M  V30 40 1 3 35
M  V30 41 1 3 36
M  V30 42 1 4 37
M  V30 43 1 4 38
M  V30 44 1 7 39
M  V30 45 1 8 40
M  V30 46 1 13 41
M  V30 47 1 14 42
M  V30 48 1 15 43
M  V30 49 1 19 44
M  V30 50 1 19 45
M  V30 51 1 23 46
M  V30 52 1 24 47
M  V30 53 1 26 48
M  V30 54 1 27 49
M  V30 55 1 30 50
M  V30 56 1 30 51
M  V30 57 1 31 52
M  V30 58 1 31 53
M  V30 END BOND
M  V30 END CTAB
M  END
>  <Dataset>  (25) 
ChEMBL_Kinases

>  <Ligand_Instance>  (25) 
nan

>  <PDB_ID>  (25) 
nan

>  <Standardized_SMILES>  (25) 
CN1CCN(c2ccc3nc(-c4cccc5c4OCO5)c(-c4ccncc4)n3n2)CC1

>  <Name>  (25) 
nan

>  <Pocket>  (25) 
nan

>  <ATP_Site>  (25) 
nan

>  <Peripheral>  (25) 
nan

>  <Num_H_Atoms_ProtBoundConf>  (25) 
nan

>  <Num_Resolved_Atoms>  (25) 
nan

>  <Num_Not_Resolved_Atoms>  (25) 
nan

$$$$
CHEMBL3735176
     RDKit          3D

  0  0  0  0  0  0  0  0  0  0999 V3000
M  V30 BEGIN CTAB
M  V30 COUNTS 63 67 0 0 0
M  V30 BEGIN ATOM
M  V30 1 C 2.079645 0.563709 5.096827 0
M  V30 2 O 2.485106 0.511078 3.741331 0
M  V30 3 C 3.500306 -0.372871 3.420202 0
M  V30 4 C 4.159620 -1.211500 4.291709 0
M  V30 5 C 5.170789 -2.055746 3.823652 0
M  V30 6 N 5.502556 -2.050827 2.518761 0
M  V30 7 C 4.855857 -1.230230 1.671808 0
M  V30 8 C 3.839151 -0.366497 2.081905 0
M  V30 9 C 3.219929 0.469257 1.069301 0
M  V30 10 C 4.106744 1.083937 0.201461 0
M  V30 11 C 3.578404 1.893610 -0.787073 0
M  V30 12 C 2.218501 2.053642 -0.867956 0
M  V30 13 N 1.389730 2.738339 -1.669366 0
M  V30 14 N 0.102167 2.568603 -1.334664 0
M  V30 15 C 0.051138 1.734947 -0.262255 0
M  V30 16 C -1.249830 1.419835 0.259079 0
M  V30 17 O -2.213701 1.971030 -0.377896 0
M  V30 18 N -1.823374 0.669841 1.285752 0
M  V30 19 C -3.012621 0.259838 1.907427 0
M  V30 20 C -3.984588 -0.552947 1.138808 0
M  V30 21 C -3.313293 -1.853423 0.659408 0
M  V30 22 C -4.386811 -2.522912 -0.210464 0
M  V30 23 N -4.539593 -1.857579 -1.445119 0
M  V30 24 C -3.939956 -2.453920 -2.583512 0
M  V30 25 C -2.479429 -2.624346 -2.507814 0
M  V30 26 C -1.574468 -1.648282 -2.945673 0
M  V30 27 C -0.291632 -2.114226 -2.737268 0
M  V30 28 C -0.467177 -3.361254 -2.178133 0
M  V30 29 C 0.599458 -4.268902 -1.771521 0
M  V30 30 O 0.440781 -5.407789 -1.261283 0
M  V30 31 O 1.943750 -3.931126 -1.922683 0
M  V30 32 O -1.731477 -3.602579 -2.069517 0
M  V30 33 C -4.297387 -0.433610 -1.338920 0
M  V30 34 C -4.732858 0.051325 0.022100 0
M  V30 35 C 1.366460 1.442423 -0.007537 0
M  V30 36 C 1.855449 0.631925 0.985534 0
M  V30 37 H 1.728038 -0.387486 5.503232 0
M  V30 38 H 1.331341 1.371752 5.268800 0
M  V30 39 H 2.976104 0.860357 5.708901 0
M  V30 40 H 3.833259 -1.153970 5.320927 0
M  V30 41 H 5.614820 -2.667907 4.605201 0
M  V30 42 H 5.142984 -1.246834 0.628699 0
M  V30 43 H 5.179824 0.998136 0.213476 0
M  V30 44 H 4.175899 2.432792 -1.532368 0
M  V30 45 H 1.654560 3.352139 -2.479744 0
M  V30 46 H -0.988372 0.238071 1.793724 0
M  V30 47 H -2.769292 -0.338254 2.839197 0
M  V30 48 H -3.529538 1.191054 2.325176 0
M  V30 49 H -4.749529 -0.939890 1.890285 0
M  V30 50 H -2.431696 -1.547076 0.099859 0
M  V30 51 H -3.127832 -2.523395 1.515437 0
M  V30 52 H -4.221334 -3.608205 -0.277076 0
M  V30 53 H -5.332684 -2.409159 0.361403 0
M  V30 54 H -4.397778 -3.449787 -2.765688 0
M  V30 55 H -4.182512 -1.830770 -3.468985 0
M  V30 56 H -1.738267 -0.662791 -3.387278 0
M  V30 57 H 0.652613 -1.618444 -2.959756 0
M  V30 58 H 2.653345 -4.151376 -1.207200 0
M  V30 59 H -3.280730 -0.165017 -1.615641 0
M  V30 60 H -4.980351 0.049710 -2.066439 0
M  V30 61 H -5.844471 -0.156163 0.091292 0
M  V30 62 H -4.670698 1.147286 0.045622 0
M  V30 63 H 1.219486 0.139887 1.672824 0
M  V30 END ATOM
M  V30 BEGIN BOND
M  V30 1 1 1 2
M  V30 2 1 2 3
M  V30 3 2 3 4
M  V30 4 1 4 5
M  V30 5 2 5 6
M  V30 6 1 6 7
M  V30 7 2 7 8
M  V30 8 1 8 9
M  V30 9 2 9 10
M  V30 10 1 10 11
M  V30 11 2 11 12
M  V30 12 1 12 13
M  V30 13 1 13 14
M  V30 14 2 14 15
M  V30 15 1 15 16
M  V30 16 2 16 17
M  V30 17 1 16 18
M  V30 18 1 18 19
M  V30 19 1 19 20
M  V30 20 1 20 21
M  V30 21 1 21 22
M  V30 22 1 22 23
M  V30 23 1 23 24
M  V30 24 1 24 25
M  V30 25 2 25 26
M  V30 26 1 26 27
M  V30 27 2 27 28
M  V30 28 1 28 29
M  V30 29 2 29 30
M  V30 30 1 29 31
M  V30 31 1 28 32
M  V30 32 1 23 33
M  V30 33 1 33 34
M  V30 34 1 15 35
M  V30 35 2 35 36
M  V30 36 1 8 3
M  V30 37 1 36 9
M  V30 38 1 35 12
M  V30 39 1 34 20
M  V30 40 1 32 25
M  V30 41 1 1 37
M  V30 42 1 1 38
M  V30 43 1 1 39
M  V30 44 1 4 40
M  V30 45 1 5 41
M  V30 46 1 7 42
M  V30 47 1 10 43
M  V30 48 1 11 44
M  V30 49 1 13 45
M  V30 50 1 18 46
M  V30 51 1 19 47
M  V30 52 1 19 48
M  V30 53 1 20 49
M  V30 54 1 21 50
M  V30 55 1 21 51
M  V30 56 1 22 52
M  V30 57 1 22 53
M  V30 58 1 24 54
M  V30 59 1 24 55
M  V30 60 1 26 56
M  V30 61 1 27 57
M  V30 62 1 31 58
M  V30 63 1 33 59
M  V30 64 1 33 60
M  V30 65 1 34 61
M  V30 66 1 34 62
M  V30 67 1 36 63
M  V30 END BOND
M  V30 END CTAB
M  END
>  <Dataset>  (26) 
ChEMBL_Kinases

>  <Ligand_Instance>  (26) 
nan

>  <PDB_ID>  (26) 
nan

>  <Standardized_SMILES>  (26) 
COc1ccncc1-c1ccc2[nH]nc(C(=O)NCC3CCN(Cc4ccc(C(=O)O)o4)CC3)c2c1

>  <Name>  (26) 
nan

>  <Pocket>  (26) 
nan

>  <ATP_Site>  (26) 
nan

>  <Peripheral>  (26) 
nan

>  <Num_H_Atoms_ProtBoundConf>  (26) 
nan

>  <Num_Resolved_Atoms>  (26) 
nan

>  <Num_Not_Resolved_Atoms>  (26) 
nan

$$$$
CHEMBL3735154
     RDKit          3D

  0  0  0  0  0  0  0  0  0  0999 V3000
M  V30 BEGIN CTAB
M  V30 COUNTS 56 59 0 0 0
M  V30 BEGIN ATOM
M  V30 1 C 3.291692 -5.649513 3.587845 0
M  V30 2 O 2.853200 -4.617542 2.738840 0
M  V30 3 C 3.452201 -3.366716 2.772828 0
M  V30 4 C 4.504796 -3.038979 3.623852 0
M  V30 5 C 5.060183 -1.781860 3.614352 0
M  V30 6 C 4.584828 -0.813766 2.758024 0
M  V30 7 N 4.923748 0.468862 2.534204 0
M  V30 8 N 4.150584 0.966117 1.596949 0
M  V30 9 C 3.272563 0.035755 1.164933 0
M  V30 10 C 2.247080 0.205698 0.129167 0
M  V30 11 O 1.515631 -0.763296 -0.149667 0
M  V30 12 N 2.125635 1.475756 -0.520795 0
M  V30 13 C 1.142464 1.727974 -1.551088 0
M  V30 14 C -0.269119 1.524490 -1.043179 0
M  V30 15 C -0.568729 2.458601 0.112700 0
M  V30 16 C -2.032885 2.366452 0.484505 0
M  V30 17 N -2.584656 1.224759 -0.167404 0
M  V30 18 C -3.664941 0.574627 0.488516 0
M  V30 19 C -4.095682 -0.587536 -0.356193 0
M  V30 20 C -5.073934 -0.362203 -1.307274 0
M  V30 21 C -5.502540 -1.419020 -2.114340 0
M  V30 22 N -4.959548 -2.644008 -1.958017 0
M  V30 23 C -3.996457 -2.864644 -1.021236 0
M  V30 24 C -3.371871 -4.177446 -0.808751 0
M  V30 25 O -2.483447 -4.386200 0.053783 0
M  V30 26 O -3.675739 -5.322471 -1.514741 0
M  V30 27 C -3.563415 -1.839619 -0.220220 0
M  V30 28 C -2.635606 1.280568 -1.590963 0
M  V30 29 C -1.299175 1.783758 -2.094746 0
M  V30 30 C 3.537461 -1.101146 1.894804 0
M  V30 31 C 2.984539 -2.376433 1.914282 0
M  V30 32 H 2.834217 -6.610103 3.288006 0
M  V30 33 H 2.947464 -5.473868 4.641463 0
M  V30 34 H 4.387028 -5.730038 3.637933 0
M  V30 35 H 4.874940 -3.816967 4.300871 0
M  V30 36 H 5.882475 -1.522830 4.277997 0
M  V30 37 H 5.685560 1.032490 3.012077 0
M  V30 38 H 2.803807 2.230342 -0.202145 0
M  V30 39 H 1.340453 1.178934 -2.477340 0
M  V30 40 H 1.211371 2.803998 -1.813507 0
M  V30 41 H -0.376983 0.498602 -0.672851 0
M  V30 42 H 0.004212 2.110897 1.018563 0
M  V30 43 H -0.287915 3.500034 -0.143939 0
M  V30 44 H -2.178631 2.229877 1.580886 0
M  V30 45 H -2.583988 3.316266 0.242393 0
M  V30 46 H -4.533234 1.205080 0.741789 0
M  V30 47 H -3.235548 0.110722 1.423140 0
M  V30 48 H -5.536411 0.609571 -1.464480 0
M  V30 49 H -6.268763 -1.272350 -2.869444 0
M  V30 50 H -2.916981 -5.890384 -1.886145 0
M  V30 51 H -2.797425 -1.994850 0.531769 0
M  V30 52 H -3.472111 1.890042 -1.992740 0
M  V30 53 H -2.746843 0.226815 -1.967548 0
M  V30 54 H -1.064641 1.311624 -3.068806 0
M  V30 55 H -1.381589 2.883157 -2.309436 0
M  V30 56 H 2.164178 -2.613945 1.243372 0
M  V30 END ATOM
M  V30 BEGIN BOND
M  V30 1 1 1 2
M  V30 2 1 2 3
M  V30 3 2 3 4
M  V30 4 1 4 5
M  V30 5 2 5 6
M  V30 6 1 6 7
M  V30 7 1 7 8
M  V30 8 2 8 9
M  V30 9 1 9 10
M  V30 10 2 10 11
M  V30 11 1 10 12
M  V30 12 1 12 13
M  V30 13 1 13 14
M  V30 14 1 14 15
M  V30 15 1 15 16
M  V30 16 1 16 17
M  V30 17 1 17 18
M  V30 18 1 18 19
M  V30 19 2 19 20
M  V30 20 1 20 21
M  V30 21 2 21 22
M  V30 22 1 22 23
M  V30 23 1 23 24
M  V30 24 2 24 25
M  V30 25 1 24 26
M  V30 26 2 23 27
M  V30 27 1 17 28
M  V30 28 1 28 29
M  V30 29 1 9 30
M  V30 30 2 30 31
M  V30 31 1 31 3
M  V30 32 1 30 6
M  V30 33 1 29 14
M  V30 34 1 27 19
M  V30 35 1 1 32
M  V30 36 1 1 33
M  V30 37 1 1 34
M  V30 38 1 4 35
M  V30 39 1 5 36
M  V30 40 1 7 37
M  V30 41 1 12 38
M  V30 42 1 13 39
M  V30 43 1 13 40
M  V30 44 1 14 41
M  V30 45 1 15 42
M  V30 46 1 15 43
M  V30 47 1 16 44
M  V30 48 1 16 45
M  V30 49 1 18 46
M  V30 50 1 18 47
M  V30 51 1 20 48
M  V30 52 1 21 49
M  V30 53 1 26 50
M  V30 54 1 27 51
M  V30 55 1 28 52
M  V30 56 1 28 53
M  V30 57 1 29 54
M  V30 58 1 29 55
M  V30 59 1 31 56
M  V30 END BOND
M  V30 END CTAB
M  END
>  <Dataset>  (27) 
ChEMBL_Kinases

>  <Ligand_Instance>  (27) 
nan

>  <PDB_ID>  (27) 
nan

>  <Standardized_SMILES>  (27) 
COc1ccc2[nH]nc(C(=O)NCC3CCN(Cc4ccnc(C(=O)O)c4)CC3)c2c1

>  <Name>  (27) 
nan

>  <Pocket>  (27) 
nan

>  <ATP_Site>  (27) 
nan

>  <Peripheral>  (27) 
nan

>  <Num_H_Atoms_ProtBoundConf>  (27) 
nan

>  <Num_Resolved_Atoms>  (27) 
nan

>  <Num_Not_Resolved_Atoms>  (27) 
nan

$$$$
CHEMBL3735095
     RDKit          3D

  0  0  0  0  0  0  0  0  0  0999 V3000
M  V30 BEGIN CTAB
M  V30 COUNTS 49 51 0 0 0
M  V30 BEGIN ATOM
M  V30 1 C -0.975394 -3.584321 -0.114879 0
M  V30 2 C -0.006929 -4.697214 -0.317301 0
M  V30 3 O 0.548599 -4.757102 -1.623353 0
M  V30 4 C 1.279270 -3.710751 -2.155867 0
M  V30 5 O 1.042638 -3.163199 -1.047955 0
M  V30 6 C 2.059648 -2.645202 -2.779416 0
M  V30 7 N 2.273041 -1.494267 -2.006489 0
M  V30 8 C 3.091959 -1.542314 -0.870609 0
M  V30 9 C 2.628367 -0.747465 0.320315 0
M  V30 10 C 2.286841 0.649578 -0.191558 0
M  V30 11 C 2.155566 1.625905 0.898208 0
M  V30 12 N 1.166850 1.414404 1.907894 0
M  V30 13 C -0.245767 1.359489 1.944001 0
M  V30 14 O -0.853892 1.543533 0.863773 0
M  V30 15 C -1.025008 1.103933 3.151322 0
M  V30 16 N -0.570447 0.887174 4.405924 0
M  V30 17 N -1.586437 0.692367 5.230286 0
M  V30 18 C -2.737875 0.774940 4.544281 0
M  V30 19 C -4.099597 0.663105 4.849094 0
M  V30 20 C -5.070591 0.805115 3.880904 0
M  V30 21 C -4.746288 1.063909 2.567093 0
M  V30 22 Br -6.066130 1.264048 1.213430 0
M  V30 23 C -3.402170 1.172856 2.274052 0
M  V30 24 C -2.398536 1.036712 3.218236 0
M  V30 25 C 1.166574 0.519824 -1.170765 0
M  V30 26 C 1.696202 -0.268630 -2.383077 0
M  V30 27 H -0.594851 -2.775144 0.568192 0
M  V30 28 H -1.873360 -3.973982 0.405988 0
M  V30 29 H -1.342655 -3.153328 -1.067031 0
M  V30 30 H 0.761769 -4.648717 0.480896 0
M  V30 31 H -0.518840 -5.664739 -0.175044 0
M  V30 32 H 1.585923 -2.328602 -3.754928 0
M  V30 33 H 3.078411 -3.003919 -3.117888 0
M  V30 34 H 4.088528 -1.093565 -1.162584 0
M  V30 35 H 3.336111 -2.589784 -0.595799 0
M  V30 36 H 1.774587 -1.247594 0.772507 0
M  V30 37 H 3.483962 -0.629825 0.997136 0
M  V30 38 H 3.188727 0.936424 -0.830451 0
M  V30 39 H 3.148121 1.699935 1.439032 0
M  V30 40 H 2.029166 2.683952 0.521140 0
M  V30 41 H 1.519960 1.249007 2.908150 0
M  V30 42 H -1.575784 0.497714 6.273297 0
M  V30 43 H -4.339294 0.458554 5.891048 0
M  V30 44 H -6.131140 0.714365 4.136626 0
M  V30 45 H -3.167970 1.376999 1.233850 0
M  V30 46 H 0.307656 -0.076523 -0.801076 0
M  V30 47 H 0.895205 1.508323 -1.550232 0
M  V30 48 H 2.457436 0.384801 -2.856754 0
M  V30 49 H 0.870740 -0.398229 -3.078018 0
M  V30 END ATOM
M  V30 BEGIN BOND
M  V30 1 1 1 2
M  V30 2 1 2 3
M  V30 3 1 3 4
M  V30 4 2 4 5
M  V30 5 1 4 6
M  V30 6 1 6 7
M  V30 7 1 7 8
M  V30 8 1 8 9
M  V30 9 1 9 10
M  V30 10 1 10 11
M  V30 11 1 11 12
M  V30 12 1 12 13
M  V30 13 2 13 14
M  V30 14 1 13 15
M  V30 15 2 15 16
M  V30 16 1 16 17
M  V30 17 1 17 18
M  V30 18 2 18 19
M  V30 19 1 19 20
M  V30 20 2 20 21
M  V30 21 1 21 22
M  V30 22 1 21 23
M  V30 23 2 23 24
M  V30 24 1 10 25
M  V30 25 1 25 26
M  V30 26 1 26 7
M  V30 27 1 24 15
M  V30 28 1 24 18
M  V30 29 1 1 27
M  V30 30 1 1 28
M  V30 31 1 1 29
M  V30 32 1 2 30
M  V30 33 1 2 31
M  V30 34 1 6 32
M  V30 35 1 6 33
M  V30 36 1 8 34
M  V30 37 1 8 35
M  V30 38 1 9 36
M  V30 39 1 9 37
M  V30 40 1 10 38
M  V30 41 1 11 39
M  V30 42 1 11 40
M  V30 43 1 12 41
M  V30 44 1 17 42
M  V30 45 1 19 43
M  V30 46 1 20 44
M  V30 47 1 23 45
M  V30 48 1 25 46
M  V30 49 1 25 47
M  V30 50 1 26 48
M  V30 51 1 26 49
M  V30 END BOND
M  V30 END CTAB
M  END
>  <Dataset>  (28) 
ChEMBL_Kinases

>  <Ligand_Instance>  (28) 
nan

>  <PDB_ID>  (28) 
nan

>  <Standardized_SMILES>  (28) 
CCOC(=O)CN1CCC(CNC(=O)c2n[nH]c3ccc(Br)cc23)CC1

>  <Name>  (28) 
nan

>  <Pocket>  (28) 
nan

>  <ATP_Site>  (28) 
nan

>  <Peripheral>  (28) 
nan

>  <Num_H_Atoms_ProtBoundConf>  (28) 
nan

>  <Num_Resolved_Atoms>  (28) 
nan

>  <Num_Not_Resolved_Atoms>  (28) 
nan

$$$$
CHEMBL3735079
     RDKit          3D

  0  0  0  0  0  0  0  0  0  0999 V3000
M  V30 BEGIN CTAB
M  V30 COUNTS 60 63 0 0 0
M  V30 BEGIN ATOM
M  V30 1 C 3.197931 0.642762 5.589517 0
M  V30 2 O 2.534516 -0.542517 5.292116 0
M  V30 3 C 3.414609 -1.613741 5.178970 0
M  V30 4 C 4.442795 -1.409621 4.084670 0
M  V30 5 N 3.867477 -1.244824 2.807616 0
M  V30 6 C 4.767230 -1.047347 1.728039 0
M  V30 7 C 4.158914 -1.032950 0.376113 0
M  V30 8 C 2.686386 -0.654539 0.489588 0
M  V30 9 C 2.106635 -0.443383 -0.889807 0
M  V30 10 N 0.726544 -0.094307 -0.763830 0
M  V30 11 C 0.106228 0.986260 -0.141059 0
M  V30 12 O 1.016009 1.728068 0.366280 0
M  V30 13 C -1.257009 1.408254 0.034844 0
M  V30 14 N -1.446391 2.568919 0.720609 0
M  V30 15 N -2.749207 2.817056 0.794945 0
M  V30 16 C -3.491336 1.877660 0.188785 0
M  V30 17 C -4.825945 1.621474 -0.041155 0
M  V30 18 C -5.206423 0.486702 -0.743763 0
M  V30 19 C -4.202965 -0.369376 -1.200069 0
M  V30 20 C -4.614964 -1.558964 -1.937352 0
M  V30 21 C -5.678057 -2.263375 -1.381370 0
M  V30 22 N -6.127951 -3.383268 -1.999398 0
M  V30 23 C -5.577945 -3.837938 -3.137701 0
M  V30 24 C -4.511189 -3.152738 -3.718021 0
M  V30 25 C -4.036904 -2.009961 -3.105606 0
M  V30 26 O -2.985556 -1.213228 -3.551391 0
M  V30 27 C -2.336757 -1.618638 -4.758418 0
M  V30 28 C -2.870291 -0.117940 -0.973062 0
M  V30 29 C -2.530684 1.010237 -0.276827 0
M  V30 30 C 2.042686 -1.790474 1.223219 0
M  V30 31 C 2.662095 -1.948184 2.562191 0
M  V30 32 H 3.749435 0.535423 6.558319 0
M  V30 33 H 2.451429 1.456879 5.730053 0
M  V30 34 H 3.900993 0.939401 4.800706 0
M  V30 35 H 3.901685 -1.777931 6.168018 0
M  V30 36 H 2.828191 -2.556050 5.009187 0
M  V30 37 H 5.043817 -2.359571 4.070382 0
M  V30 38 H 5.129155 -0.622191 4.404343 0
M  V30 39 H 5.597447 -1.781375 1.811645 0
M  V30 40 H 5.237052 -0.031934 1.885093 0
M  V30 41 H 4.141465 -2.093640 -0.003669 0
M  V30 42 H 4.677156 -0.427715 -0.368700 0
M  V30 43 H 2.653028 0.290192 1.037295 0
M  V30 44 H 2.721489 0.366424 -1.347778 0
M  V30 45 H 2.260541 -1.316905 -1.547703 0
M  V30 46 H 0.067212 -0.755900 -1.211184 0
M  V30 47 H -3.148503 3.661378 1.278382 0
M  V30 48 H -5.510188 2.375864 0.372186 0
M  V30 49 H -6.262854 0.344589 -0.889350 0
M  V30 50 H -6.157558 -1.946088 -0.470650 0
M  V30 51 H -5.931736 -4.735407 -3.641227 0
M  V30 52 H -4.005077 -3.435102 -4.624538 0
M  V30 53 H -3.026922 -1.554252 -5.631919 0
M  V30 54 H -1.391197 -1.062664 -4.921601 0
M  V30 55 H -2.078925 -2.706650 -4.660132 0
M  V30 56 H -2.148600 -0.803017 -1.342289 0
M  V30 57 H 2.204267 -2.702998 0.585175 0
M  V30 58 H 0.955170 -1.702509 1.324583 0
M  V30 59 H 1.928516 -1.699278 3.357147 0
M  V30 60 H 2.889709 -3.044011 2.714422 0
M  V30 END ATOM
M  V30 BEGIN BOND
M  V30 1 1 1 2
M  V30 2 1 2 3
M  V30 3 1 3 4
M  V30 4 1 4 5
M  V30 5 1 5 6
M  V30 6 1 6 7
M  V30 7 1 7 8
M  V30 8 1 8 9
M  V30 9 1 9 10
M  V30 10 1 10 11
M  V30 11 2 11 12
M  V30 12 1 11 13
M  V30 13 2 13 14
M  V30 14 1 14 15
M  V30 15 1 15 16
M  V30 16 2 16 17
M  V30 17 1 17 18
M  V30 18 2 18 19
M  V30 19 1 19 20
M  V30 20 2 20 21
M  V30 21 1 21 22
M  V30 22 2 22 23
M  V30 23 1 23 24
M  V30 24 2 24 25
M  V30 25 1 25 26
M  V30 26 1 26 27
M  V30 27 1 19 28
M  V30 28 2 28 29
M  V30 29 1 8 30
M  V30 30 1 30 31
M  V30 31 1 31 5
M  V30 32 1 29 13
M  V30 33 1 29 16
M  V30 34 1 25 20
M  V30 35 1 1 32
M  V30 36 1 1 33
M  V30 37 1 1 34
M  V30 38 1 3 35
M  V30 39 1 3 36
M  V30 40 1 4 37
M  V30 41 1 4 38
M  V30 42 1 6 39
M  V30 43 1 6 40
M  V30 44 1 7 41
M  V30 45 1 7 42
M  V30 46 1 8 43
M  V30 47 1 9 44
M  V30 48 1 9 45
M  V30 49 1 10 46
M  V30 50 1 15 47
M  V30 51 1 17 48
M  V30 52 1 18 49
M  V30 53 1 21 50
M  V30 54 1 23 51
M  V30 55 1 24 52
M  V30 56 1 27 53
M  V30 57 1 27 54
M  V30 58 1 27 55
M  V30 59 1 28 56
M  V30 60 1 30 57
M  V30 61 1 30 58
M  V30 62 1 31 59
M  V30 63 1 31 60
M  V30 END BOND
M  V30 END CTAB
M  END
>  <Dataset>  (29) 
ChEMBL_Kinases

>  <Ligand_Instance>  (29) 
nan

>  <PDB_ID>  (29) 
nan

>  <Standardized_SMILES>  (29) 
COCCN1CCC(CNC(=O)c2n[nH]c3ccc(-c4cnccc4OC)cc23)CC1

>  <Name>  (29) 
nan

>  <Pocket>  (29) 
nan

>  <ATP_Site>  (29) 
nan

>  <Peripheral>  (29) 
nan

>  <Num_H_Atoms_ProtBoundConf>  (29) 
nan

>  <Num_Resolved_Atoms>  (29) 
nan

>  <Num_Not_Resolved_Atoms>  (29) 
nan

$$$$
CHEMBL575915
     RDKit          3D

  0  0  0  0  0  0  0  0  0  0999 V3000
M  V30 BEGIN CTAB
M  V30 COUNTS 43 46 0 0 0
M  V30 BEGIN ATOM
M  V30 1 C 2.588145 -4.610427 -3.435168 0
M  V30 2 O 1.698619 -3.561961 -3.772588 0
M  V30 3 C 1.328306 -2.583665 -2.861585 0
M  V30 4 C 1.864944 -2.662320 -1.583671 0
M  V30 5 C 1.503539 -1.692318 -0.665804 0
M  V30 6 C 0.635225 -0.671372 -1.000909 0
M  V30 7 C 0.111889 -0.609761 -2.275660 0
M  V30 8 C 0.461289 -1.568918 -3.204099 0
M  V30 9 O -0.010238 -1.601223 -4.522052 0
M  V30 10 C -0.908247 -0.585588 -4.942912 0
M  V30 11 C 0.488802 0.152622 0.196730 0
M  V30 12 N -0.127761 1.249408 0.671547 0
M  V30 13 N 0.240655 1.398020 1.930457 0
M  V30 14 C 1.093674 0.427335 2.322664 0
M  V30 15 N 1.666839 0.318877 3.622266 0
M  V30 16 C 1.358918 1.275231 4.640750 0
M  V30 17 C -0.087000 1.335627 4.999864 0
M  V30 18 C -1.002931 2.306156 4.625684 0
M  V30 19 C -2.309955 2.204861 5.050371 0
M  V30 20 C -2.754756 1.154966 5.849830 0
M  V30 21 Cl -4.432293 1.070946 6.366596 0
M  V30 22 C -1.843189 0.170466 6.234356 0
M  V30 23 C -0.532139 0.284439 5.800434 0
M  V30 24 Cl 0.564346 -1.003392 6.329993 0
M  V30 25 C 1.268424 -0.386660 1.223147 0
M  V30 26 C 1.970884 -1.612634 0.743545 0
M  V30 27 H 2.681265 -5.330701 -4.270710 0
M  V30 28 H 3.587456 -4.250253 -3.127772 0
M  V30 29 H 2.118469 -5.117317 -2.541736 0
M  V30 30 H 2.548588 -3.480440 -1.347320 0
M  V30 31 H -0.558925 0.161136 -2.568498 0
M  V30 32 H -0.911579 -0.498282 -6.063441 0
M  V30 33 H -1.942714 -0.756444 -4.560879 0
M  V30 34 H -0.608212 0.424770 -4.589863 0
M  V30 35 H -0.776639 1.896213 0.197341 0
M  V30 36 H 2.315291 -0.480329 3.800248 0
M  V30 37 H 1.902073 1.045544 5.586917 0
M  V30 38 H 1.705736 2.289948 4.351507 0
M  V30 39 H -0.602454 3.094046 4.006984 0
M  V30 40 H -3.008739 2.991997 4.734025 0
M  V30 41 H -2.157734 -0.669162 6.863180 0
M  V30 42 H 3.077083 -1.395491 0.734898 0
M  V30 43 H 1.770014 -2.503331 1.340122 0
M  V30 END ATOM
M  V30 BEGIN BOND
M  V30 1 1 1 2
M  V30 2 1 2 3
M  V30 3 2 3 4
M  V30 4 1 4 5
M  V30 5 2 5 6
M  V30 6 1 6 7
M  V30 7 2 7 8
M  V30 8 1 8 9
M  V30 9 1 9 10
M  V30 10 1 6 11
M  V30 11 1 11 12
M  V30 12 1 12 13
M  V30 13 2 13 14
M  V30 14 1 14 15
M  V30 15 1 15 16
M  V30 16 1 16 17
M  V30 17 2 17 18
M  V30 18 1 18 19
M  V30 19 2 19 20
M  V30 20 1 20 21
M  V30 21 1 20 22
M  V30 22 2 22 23
M  V30 23 1 23 24
M  V30 24 1 14 25
M  V30 25 1 25 26
M  V30 26 1 8 3
M  V30 27 2 25 11
M  V30 28 1 26 5
M  V30 29 1 23 17
M  V30 30 1 1 27
M  V30 31 1 1 28
M  V30 32 1 1 29
M  V30 33 1 4 30
M  V30 34 1 7 31
M  V30 35 1 10 32
M  V30 36 1 10 33
M  V30 37 1 10 34
M  V30 38 1 12 35
M  V30 39 1 15 36
M  V30 40 1 16 37
M  V30 41 1 16 38
M  V30 42 1 18 39
M  V30 43 1 19 40
M  V30 44 1 22 41
M  V30 45 1 26 42
M  V30 46 1 26 43
M  V30 END BOND
M  V30 END CTAB
M  END
>  <Dataset>  (30) 
ChEMBL_Kinases

>  <Ligand_Instance>  (30) 
nan

>  <PDB_ID>  (30) 
nan

>  <Standardized_SMILES>  (30) 
COc1cc2c(cc1OC)-c1[nH]nc(NCc3ccc(Cl)cc3Cl)c1C2

>  <Name>  (30) 
nan

>  <Pocket>  (30) 
nan

>  <ATP_Site>  (30) 
nan

>  <Peripheral>  (30) 
nan

>  <Num_H_Atoms_ProtBoundConf>  (30) 
nan

>  <Num_Resolved_Atoms>  (30) 
nan

>  <Num_Not_Resolved_Atoms>  (30) 
nan

$$$$
CHEMBL3735078
     RDKit          3D

  0  0  0  0  0  0  0  0  0  0999 V3000
M  V30 BEGIN CTAB
M  V30 COUNTS 33 35 0 0 0
M  V30 BEGIN ATOM
M  V30 1 C 1.139310 -3.283425 3.117617 0
M  V30 2 S 2.163595 -4.063871 1.900234 0
M  V30 3 O 2.452411 -5.462172 2.365286 0
M  V30 4 O 3.492552 -3.369906 1.789064 0
M  V30 5 N 1.410586 -4.140360 0.349606 0
M  V30 6 C 1.029816 -2.981911 -0.381865 0
M  V30 7 C 1.345815 -2.969730 -1.739864 0
M  V30 8 C 1.023873 -1.887714 -2.566024 0
M  V30 9 C 0.366020 -0.790004 -2.006006 0
M  V30 10 C 0.052915 -0.801516 -0.661727 0
M  V30 11 C 0.388120 -1.889123 0.119707 0
M  V30 12 C -0.626439 0.478941 -0.377023 0
M  V30 13 C -1.038161 0.763662 0.817708 0
M  V30 14 C -1.712856 2.024733 1.115829 0
M  V30 15 C -1.411066 2.772926 2.296165 0
M  V30 16 C -2.043100 3.933256 2.587921 0
M  V30 17 C -3.095357 4.418283 1.607880 0
M  V30 18 S -3.043047 3.052268 0.297026 0
M  V30 19 C -0.705797 1.254216 -1.604419 0
M  V30 20 O -1.221382 2.384695 -1.704945 0
M  V30 21 N -0.077764 0.437779 -2.608801 0
M  V30 22 H 1.360507 -2.195498 3.213233 0
M  V30 23 H 0.068643 -3.483133 2.958781 0
M  V30 24 H 1.347809 -3.702413 4.145786 0
M  V30 25 H 1.207187 -5.060013 -0.107161 0
M  V30 26 H 1.856707 -3.812621 -2.193872 0
M  V30 27 H 1.299366 -1.945951 -3.609113 0
M  V30 28 H 0.140145 -1.890805 1.169000 0
M  V30 29 H -0.931260 0.121318 1.664318 0
M  V30 30 H -0.672717 2.461181 3.013084 0
M  V30 31 H -1.948728 4.613797 3.409166 0
M  V30 32 H -3.695143 5.301010 1.663144 0
M  V30 33 H 0.018418 0.730030 -3.604628 0
M  V30 END ATOM
M  V30 BEGIN BOND
M  V30 1 1 1 2
M  V30 2 2 2 3
M  V30 3 2 2 4
M  V30 4 1 2 5
M  V30 5 1 5 6
M  V30 6 2 6 7
M  V30 7 1 7 8
M  V30 8 2 8 9
M  V30 9 1 9 10
M  V30 10 2 10 11
M  V30 11 1 10 12
M  V30 12 2 12 13
M  V30 13 1 13 14
M  V30 14 2 14 15
M  V30 15 1 15 16
M  V30 16 2 16 17
M  V30 17 1 17 18
M  V30 18 1 12 19
M  V30 19 2 19 20
M  V30 20 1 19 21
M  V30 21 1 11 6
M  V30 22 1 18 14
M  V30 23 1 21 9
M  V30 24 1 1 22
M  V30 25 1 1 23
M  V30 26 1 1 24
M  V30 27 1 5 25
M  V30 28 1 7 26
M  V30 29 1 8 27
M  V30 30 1 11 28
M  V30 31 1 13 29
M  V30 32 1 15 30
M  V30 33 1 16 31
M  V30 34 1 17 32
M  V30 35 1 21 33
M  V30 END BOND
M  V30 END CTAB
M  END
>  <Dataset>  (31) 
ChEMBL_Kinases

>  <Ligand_Instance>  (31) 
nan

>  <PDB_ID>  (31) 
nan

>  <Standardized_SMILES>  (31) 
CS(=O)(=O)Nc1ccc2c(c1)/C(=C/c1cccs1)C(=O)N2

>  <Name>  (31) 
nan

>  <Pocket>  (31) 
nan

>  <ATP_Site>  (31) 
nan

>  <Peripheral>  (31) 
nan

>  <Num_H_Atoms_ProtBoundConf>  (31) 
nan

>  <Num_Resolved_Atoms>  (31) 
nan

>  <Num_Not_Resolved_Atoms>  (31) 
nan

$$$$
CHEMBL3735061
     RDKit          3D

  0  0  0  0  0  0  0  0  0  0999 V3000
M  V30 BEGIN CTAB
M  V30 COUNTS 62 66 0 0 0
M  V30 BEGIN ATOM
M  V30 1 O -0.235883 -2.865946 2.183005 0
M  V30 2 C -0.344553 -1.818013 1.493375 0
M  V30 3 N 0.635534 -0.789496 1.747525 0
M  V30 4 C 1.576943 -1.148206 2.754981 0
M  V30 5 C 2.556947 0.009660 2.924227 0
M  V30 6 C 1.793391 1.202213 3.322939 0
M  V30 7 C 1.772715 2.360440 2.384403 0
M  V30 8 N 2.756662 2.445795 1.410703 0
M  V30 9 C 3.029880 3.678617 0.834425 0
M  V30 10 C 2.011570 4.328031 -0.031960 0
M  V30 11 C 1.592519 3.588290 -1.220886 0
M  V30 12 C 0.507683 2.716705 -1.233702 0
M  V30 13 C 0.163798 2.046073 -2.389032 0
M  V30 14 C 0.853142 2.191613 -3.572730 0
M  V30 15 C 1.935276 3.060599 -3.561027 0
M  V30 16 C 2.292868 3.743295 -2.402517 0
M  V30 17 C 3.120148 1.260305 0.790987 0
M  V30 18 C 3.375798 0.094868 1.690979 0
M  V30 19 C -1.386793 -1.617428 0.485693 0
M  V30 20 N -1.596482 -0.534601 -0.316319 0
M  V30 21 N -2.649126 -0.761038 -1.088725 0
M  V30 22 C -3.151132 -1.996968 -0.809031 0
M  V30 23 C -4.229901 -2.683239 -1.339313 0
M  V30 24 C -4.505586 -3.943440 -0.851180 0
M  V30 25 C -3.736963 -4.529247 0.144651 0
M  V30 26 C -4.058075 -5.865890 0.639936 0
M  V30 27 C -3.000733 -6.642771 1.077217 0
M  V30 28 C -3.196289 -7.931420 1.569151 0
M  V30 29 C -4.498111 -8.435494 1.614870 0
M  V30 30 N -5.521331 -7.651687 1.178962 0
M  V30 31 C -5.302947 -6.408217 0.707828 0
M  V30 32 C -2.650629 -3.820788 0.668549 0
M  V30 33 C -2.356634 -2.552910 0.191571 0
M  V30 34 H 0.508997 0.064345 1.158822 0
M  V30 35 H 2.195335 -2.027051 2.513073 0
M  V30 36 H 1.125143 -1.318669 3.763266 0
M  V30 37 H 3.223942 -0.344312 3.768668 0
M  V30 38 H 0.730000 0.957408 3.589217 0
M  V30 39 H 2.202972 1.577855 4.308154 0
M  V30 40 H 1.785339 3.327640 2.979483 0
M  V30 41 H 0.757104 2.414639 1.888512 0
M  V30 42 H 3.992726 3.683731 0.264571 0
M  V30 43 H 3.233915 4.418060 1.671796 0
M  V30 44 H 2.477342 5.294150 -0.391133 0
M  V30 45 H 1.098520 4.651617 0.504256 0
M  V30 46 H -0.074063 2.557822 -0.346560 0
M  V30 47 H -0.691200 1.375861 -2.349395 0
M  V30 48 H 0.559086 1.652389 -4.461762 0
M  V30 49 H 2.464737 3.157661 -4.512641 0
M  V30 50 H 3.157035 4.403215 -2.492255 0
M  V30 51 H 4.081332 1.450355 0.214070 0
M  V30 52 H 2.397714 0.934521 0.010193 0
M  V30 53 H 3.299904 -0.831002 1.056709 0
M  V30 54 H 4.474558 0.109732 1.958366 0
M  V30 55 H -3.001396 -0.069012 -1.788402 0
M  V30 56 H -4.835572 -2.215602 -2.127559 0
M  V30 57 H -5.360450 -4.503310 -1.262563 0
M  V30 58 H -1.979388 -6.266596 1.048892 0
M  V30 59 H -2.344451 -8.505647 1.900714 0
M  V30 60 H -4.671020 -9.431855 1.992542 0
M  V30 61 H -6.134035 -5.800683 0.365572 0
M  V30 62 H -2.029016 -4.269211 1.459545 0
M  V30 END ATOM
M  V30 BEGIN BOND
M  V30 1 2 1 2
M  V30 2 1 2 3
M  V30 3 1 3 4
M  V30 4 1 4 5
M  V30 5 1 5 6
M  V30 6 1 6 7
M  V30 7 1 7 8
M  V30 8 1 8 9
M  V30 9 1 9 10
M  V30 10 1 10 11
M  V30 11 2 11 12
M  V30 12 1 12 13
M  V30 13 2 13 14
M  V30 14 1 14 15
M  V30 15 2 15 16
M  V30 16 1 8 17
M  V30 17 1 17 18
M  V30 18 1 2 19
M  V30 19 2 19 20
M  V30 20 1 20 21
M  V30 21 1 21 22
M  V30 22 2 22 23
M  V30 23 1 23 24
M  V30 24 2 24 25
M  V30 25 1 25 26
M  V30 26 2 26 27
M  V30 27 1 27 28
M  V30 28 2 28 29
M  V30 29 1 29 30
M  V30 30 2 30 31
M  V30 31 1 25 32
M  V30 32 2 32 33
M  V30 33 1 18 5
M  V30 34 1 33 19
M  V30 35 1 16 11
M  V30 36 1 33 22
M  V30 37 1 31 26
M  V30 38 1 3 34
M  V30 39 1 4 35
M  V30 40 1 4 36
M  V30 41 1 5 37
M  V30 42 1 6 38
M  V30 43 1 6 39
M  V30 44 1 7 40
M  V30 45 1 7 41
M  V30 46 1 9 42
M  V30 47 1 9 43
M  V30 48 1 10 44
M  V30 49 1 10 45
M  V30 50 1 12 46
M  V30 51 1 13 47
M  V30 52 1 14 48
M  V30 53 1 15 49
M  V30 54 1 16 50
M  V30 55 1 17 51
M  V30 56 1 17 52
M  V30 57 1 18 53
M  V30 58 1 18 54
M  V30 59 1 21 55
M  V30 60 1 23 56
M  V30 61 1 24 57
M  V30 62 1 27 58
M  V30 63 1 28 59
M  V30 64 1 29 60
M  V30 65 1 31 61
M  V30 66 1 32 62
M  V30 END BOND
M  V30 END CTAB
M  END
>  <Dataset>  (32) 
ChEMBL_Kinases

>  <Ligand_Instance>  (32) 
nan

>  <PDB_ID>  (32) 
nan

>  <Standardized_SMILES>  (32) 
O=C(NCC1CCN(CCc2ccccc2)CC1)c1n[nH]c2ccc(-c3cccnc3)cc12

>  <Name>  (32) 
nan

>  <Pocket>  (32) 
nan

>  <ATP_Site>  (32) 
nan

>  <Peripheral>  (32) 
nan

>  <Num_H_Atoms_ProtBoundConf>  (32) 
nan

>  <Num_Resolved_Atoms>  (32) 
nan

>  <Num_Not_Resolved_Atoms>  (32) 
nan

$$$$
CHEMBL3741655
     RDKit          3D

  0  0  0  0  0  0  0  0  0  0999 V3000
M  V30 BEGIN CTAB
M  V30 COUNTS 57 62 0 0 0
M  V30 BEGIN ATOM
M  V30 1 C -1.103302 -4.092455 3.063722 0
M  V30 2 C -0.202303 -2.958539 2.790359 0
M  V30 3 N 1.085758 -2.739083 3.077371 0
M  V30 4 C 1.496601 -1.538869 2.622290 0
M  V30 5 C 2.865300 -1.082645 2.818971 0
M  V30 6 C 3.069149 0.055502 3.579134 0
M  V30 7 C 4.337695 0.555080 3.813731 0
M  V30 8 C 5.436436 -0.109910 3.267296 0
M  V30 9 C 5.185147 -1.240266 2.516558 0
M  V30 10 C 3.929630 -1.762813 2.265101 0
M  V30 11 C 0.389955 -0.963995 2.006576 0
M  V30 12 C 0.461318 0.365162 1.386052 0
M  V30 13 C 1.232257 0.783344 0.317910 0
M  V30 14 C 1.132187 2.093813 -0.093871 0
M  V30 15 C 0.290442 2.990528 0.526365 0
M  V30 16 C -0.481331 2.571225 1.595678 0
M  V30 17 C -0.390232 1.243774 2.024875 0
M  V30 18 C -0.680150 -1.851276 2.109115 0
M  V30 19 C -1.985910 -1.514084 1.547661 0
M  V30 20 N -3.087778 -1.380785 2.319806 0
M  V30 21 N -4.271276 -1.075534 1.806929 0
M  V30 22 C -4.457074 -0.879458 0.500676 0
M  V30 23 C -5.771384 -0.534730 -0.117510 0
M  V30 24 C -3.383340 -0.994384 -0.375030 0
M  V30 25 N -3.218831 -0.867472 -1.706318 0
M  V30 26 N -1.950721 -1.087630 -2.044644 0
M  V30 27 C -1.339485 -1.058944 -3.329920 0
M  V30 28 C -1.306340 0.016134 -4.191762 0
M  V30 29 C -0.695756 -0.027610 -5.422714 0
M  V30 30 C -0.072977 -1.208316 -5.840138 0
M  V30 31 Cl 0.725960 -1.343545 -7.392819 0
M  V30 32 C -0.123922 -2.258559 -4.959957 0
M  V30 33 C -0.725656 -2.254711 -3.717644 0
M  V30 34 C -1.276351 -1.365346 -0.893204 0
M  V30 35 C -2.157435 -1.313676 0.180548 0
M  V30 36 H -0.522391 -4.864084 3.642145 0
M  V30 37 H -1.976055 -3.840284 3.683436 0
M  V30 38 H -1.383003 -4.597779 2.111758 0
M  V30 39 H 1.581034 -3.506927 3.599742 0
M  V30 40 H 2.252883 0.627984 4.038259 0
M  V30 41 H 4.561448 1.431315 4.393545 0
M  V30 42 H 6.456900 0.238182 3.418772 0
M  V30 43 H 6.005780 -1.808719 2.059305 0
M  V30 44 H 3.790526 -2.654164 1.667882 0
M  V30 45 H 1.851385 0.000024 -0.089081 0
M  V30 46 H 1.767174 2.338684 -0.933095 0
M  V30 47 H 0.287856 4.006141 0.120721 0
M  V30 48 H -1.138318 3.321521 2.059931 0
M  V30 49 H -1.043140 1.043438 2.867183 0
M  V30 50 H -5.717494 0.496086 -0.557061 0
M  V30 51 H -6.040303 -1.207605 -0.954773 0
M  V30 52 H -6.589632 -0.527260 0.614246 0
M  V30 53 H -1.804190 0.928933 -3.834408 0
M  V30 54 H -0.690182 0.837613 -6.073337 0
M  V30 55 H 0.360229 -3.185913 -5.277403 0
M  V30 56 H -0.693572 -3.165336 -3.112140 0
M  V30 57 H -0.211201 -1.595527 -0.805730 0
M  V30 END ATOM
M  V30 BEGIN BOND
M  V30 1 1 1 2
M  V30 2 1 2 3
M  V30 3 1 3 4
M  V30 4 1 4 5
M  V30 5 2 5 6
M  V30 6 1 6 7
M  V30 7 2 7 8
M  V30 8 1 8 9
M  V30 9 2 9 10
M  V30 10 2 4 11
M  V30 11 1 11 12
M  V30 12 2 12 13
M  V30 13 1 13 14
M  V30 14 2 14 15
M  V30 15 1 15 16
M  V30 16 2 16 17
M  V30 17 1 11 18
M  V30 18 1 18 19
M  V30 19 2 19 20
M  V30 20 1 20 21
M  V30 21 2 21 22
M  V30 22 1 22 23
M  V30 23 1 22 24
M  V30 24 2 24 25
M  V30 25 1 25 26
M  V30 26 1 26 27
M  V30 27 2 27 28
M  V30 28 1 28 29
M  V30 29 2 29 30
M  V30 30 1 30 31
M  V30 31 1 30 32
M  V30 32 2 32 33
M  V30 33 1 26 34
M  V30 34 2 34 35
M  V30 35 2 18 2
M  V30 36 1 35 19
M  V30 37 1 10 5
M  V30 38 1 17 12
M  V30 39 1 35 24
M  V30 40 1 33 27
M  V30 41 1 1 36
M  V30 42 1 1 37
M  V30 43 1 1 38
M  V30 44 1 3 39
M  V30 45 1 6 40
M  V30 46 1 7 41
M  V30 47 1 8 42
M  V30 48 1 9 43
M  V30 49 1 10 44
M  V30 50 1 13 45
M  V30 51 1 14 46
M  V30 52 1 15 47
M  V30 53 1 16 48
M  V30 54 1 17 49
M  V30 55 1 23 50
M  V30 56 1 23 51
M  V30 57 1 23 52
M  V30 58 1 28 53
M  V30 59 1 29 54
M  V30 60 1 32 55
M  V30 61 1 33 56
M  V30 62 1 34 57
M  V30 END BOND
M  V30 END CTAB
M  END
>  <Dataset>  (33) 
ChEMBL_Kinases

>  <Ligand_Instance>  (33) 
nan

>  <PDB_ID>  (33) 
nan

>  <Standardized_SMILES>  (33) 
Cc1[nH]c(-c2ccccc2)c(-c2ccccc2)c1-c1nnc(C)c2nn(-c3ccc(Cl)cc3)cc12

>  <Name>  (33) 
nan

>  <Pocket>  (33) 
nan

>  <ATP_Site>  (33) 
nan

>  <Peripheral>  (33) 
nan

>  <Num_H_Atoms_ProtBoundConf>  (33) 
nan

>  <Num_Resolved_Atoms>  (33) 
nan

>  <Num_Not_Resolved_Atoms>  (33) 
nan

$$$$
CHEMBL3734973
     RDKit          3D

  0  0  0  0  0  0  0  0  0  0999 V3000
M  V30 BEGIN CTAB
M  V30 COUNTS 59 62 0 0 0
M  V30 BEGIN ATOM
M  V30 1 C -0.421904 -4.378266 3.462762 0
M  V30 2 C 1.028872 -4.416881 3.908584 0
M  V30 3 O 1.856624 -3.556805 3.140776 0
M  V30 4 C 1.643206 -2.176263 3.072975 0
M  V30 5 O 0.682757 -1.625018 3.706829 0
M  V30 6 C 2.638774 -1.438837 2.199208 0
M  V30 7 N 2.644022 -0.249411 1.997674 0
M  V30 8 C 3.546880 0.352021 1.216089 0
M  V30 9 C 3.491615 1.844392 1.008545 0
M  V30 10 N 2.715563 2.244323 -0.077569 0
M  V30 11 C 2.610427 3.629578 -0.341515 0
M  V30 12 C 1.575538 4.021297 -1.335100 0
M  V30 13 C 0.552451 2.878004 -1.551446 0
M  V30 14 C -0.199033 2.769888 -0.287790 0
M  V30 15 N -1.234132 1.812087 -0.165214 0
M  V30 16 C -1.425876 0.411730 -0.182891 0
M  V30 17 O -0.414155 -0.275343 -0.344797 0
M  V30 18 C -2.710610 -0.254054 -0.025933 0
M  V30 19 N -3.922049 0.323861 0.160490 0
M  V30 20 N -4.866774 -0.601591 0.261954 0
M  V30 21 C -4.288088 -1.809912 0.143161 0
M  V30 22 C -4.773333 -3.103785 0.169244 0
M  V30 23 C -3.905949 -4.178853 0.014660 0
M  V30 24 C -2.540633 -3.960246 -0.167707 0
M  V30 25 O -1.709182 -5.057000 -0.318065 0
M  V30 26 C -2.304837 -6.355053 -0.277292 0
M  V30 27 C -2.058858 -2.673436 -0.193478 0
M  V30 28 C -2.917805 -1.611343 -0.040510 0
M  V30 29 C 1.342239 1.719427 -2.036530 0
M  V30 30 C 2.432526 1.318798 -1.097148 0
M  V30 31 C 4.545313 -0.485083 0.601286 0
M  V30 32 S 4.034096 -2.126715 1.259931 0
M  V30 33 H -1.088586 -4.400528 4.353672 0
M  V30 34 H -0.649108 -5.189885 2.743432 0
M  V30 35 H -0.652352 -3.435394 2.911134 0
M  V30 36 H 1.390309 -5.453273 3.707009 0
M  V30 37 H 1.138267 -4.247079 4.999727 0
M  V30 38 H 4.553225 2.161611 0.862008 0
M  V30 39 H 3.170343 2.373967 1.928636 0
M  V30 40 H 2.341373 4.127105 0.636766 0
M  V30 41 H 3.582028 4.091475 -0.629539 0
M  V30 42 H 1.969479 4.336381 -2.327045 0
M  V30 43 H 0.951958 4.879221 -0.975192 0
M  V30 44 H -0.133008 3.234685 -2.346216 0
M  V30 45 H -0.645838 3.786632 -0.094577 0
M  V30 46 H 0.481770 2.641146 0.607185 0
M  V30 47 H -2.210590 2.240465 -0.007297 0
M  V30 48 H -5.893532 -0.501748 0.407678 0
M  V30 49 H -5.839936 -3.266782 0.311927 0
M  V30 50 H -4.368739 -5.152763 0.047696 0
M  V30 51 H -2.769133 -6.571463 0.720470 0
M  V30 52 H -3.118741 -6.361934 -1.016548 0
M  V30 53 H -1.572290 -7.138842 -0.566071 0
M  V30 54 H -1.015561 -2.537554 -0.333907 0
M  V30 55 H 0.709762 0.897419 -2.409890 0
M  V30 56 H 1.828906 2.101735 -3.010795 0
M  V30 57 H 2.204348 0.328205 -0.669801 0
M  V30 58 H 3.370500 1.149829 -1.699868 0
M  V30 59 H 5.286333 -0.099077 -0.022230 0
M  V30 END ATOM
M  V30 BEGIN BOND
M  V30 1 1 1 2
M  V30 2 1 2 3
M  V30 3 1 3 4
M  V30 4 2 4 5
M  V30 5 1 4 6
M  V30 6 2 6 7
M  V30 7 1 7 8
M  V30 8 1 8 9
M  V30 9 1 9 10
M  V30 10 1 10 11
M  V30 11 1 11 12
M  V30 12 1 12 13
M  V30 13 1 13 14
M  V30 14 1 14 15
M  V30 15 1 15 16
M  V30 16 2 16 17
M  V30 17 1 16 18
M  V30 18 2 18 19
M  V30 19 1 19 20
M  V30 20 1 20 21
M  V30 21 2 21 22
M  V30 22 1 22 23
M  V30 23 2 23 24
M  V30 24 1 24 25
M  V30 25 1 25 26
M  V30 26 1 24 27
M  V30 27 2 27 28
M  V30 28 1 13 29
M  V30 29 1 29 30
M  V30 30 2 8 31
M  V30 31 1 31 32
M  V30 32 1 32 6
M  V30 33 1 30 10
M  V30 34 1 28 18
M  V30 35 1 28 21
M  V30 36 1 1 33
M  V30 37 1 1 34
M  V30 38 1 1 35
M  V30 39 1 2 36
M  V30 40 1 2 37
M  V30 41 1 9 38
M  V30 42 1 9 39
M  V30 43 1 11 40
M  V30 44 1 11 41
M  V30 45 1 12 42
M  V30 46 1 12 43
M  V30 47 1 13 44
M  V30 48 1 14 45
M  V30 49 1 14 46
M  V30 50 1 15 47
M  V30 51 1 20 48
M  V30 52 1 22 49
M  V30 53 1 23 50
M  V30 54 1 26 51
M  V30 55 1 26 52
M  V30 56 1 26 53
M  V30 57 1 27 54
M  V30 58 1 29 55
M  V30 59 1 29 56
M  V30 60 1 30 57
M  V30 61 1 30 58
M  V30 62 1 31 59
M  V30 END BOND
M  V30 END CTAB
M  END
>  <Dataset>  (34) 
ChEMBL_Kinases

>  <Ligand_Instance>  (34) 
nan

>  <PDB_ID>  (34) 
nan

>  <Standardized_SMILES>  (34) 
CCOC(=O)c1nc(CN2CCC(CNC(=O)c3n[nH]c4ccc(OC)cc34)CC2)cs1

>  <Name>  (34) 
nan

>  <Pocket>  (34) 
nan

>  <ATP_Site>  (34) 
nan

>  <Peripheral>  (34) 
nan

>  <Num_H_Atoms_ProtBoundConf>  (34) 
nan

>  <Num_Resolved_Atoms>  (34) 
nan

>  <Num_Not_Resolved_Atoms>  (34) 
nan

$$$$
CHEMBL3734956
     RDKit          3D

  0  0  0  0  0  0  0  0  0  0999 V3000
M  V30 BEGIN CTAB
M  V30 COUNTS 53 55 0 0 0
M  V30 BEGIN ATOM
M  V30 1 C -1.155995 -6.682098 -2.734817 0
M  V30 2 O -0.649854 -5.477657 -2.213811 0
M  V30 3 C -0.259731 -4.387734 -2.980992 0
M  V30 4 C -0.304746 -4.306423 -4.380109 0
M  V30 5 C 0.119270 -3.150439 -5.009364 0
M  V30 6 C 0.590574 -2.057657 -4.341394 0
M  V30 7 N 1.042808 -0.884959 -4.747407 0
M  V30 8 N 1.385990 -0.186699 -3.696350 0
M  V30 9 C 1.152264 -0.916785 -2.558397 0
M  V30 10 C 1.408762 -0.499783 -1.189492 0
M  V30 11 O 0.933049 -1.243136 -0.267181 0
M  V30 12 N 2.131609 0.645009 -0.794072 0
M  V30 13 C 2.501370 1.313337 0.395946 0
M  V30 14 C 1.454810 2.030137 1.148325 0
M  V30 15 C 1.963884 2.678510 2.413547 0
M  V30 16 C 1.208341 2.319892 3.638662 0
M  V30 17 N 0.460590 1.128131 3.688006 0
M  V30 18 C -0.842973 1.309751 4.272151 0
M  V30 19 C -1.737345 0.148600 4.304876 0
M  V30 20 C -3.075840 0.511363 4.978541 0
M  V30 21 C -3.973988 -0.673303 4.973594 0
M  V30 22 O -4.078880 -1.168545 3.797839 0
M  V30 23 O -4.835129 -1.714186 5.288218 0
M  V30 24 C 0.532974 0.334309 2.527535 0
M  V30 25 C 0.196078 1.268438 1.377698 0
M  V30 26 C 0.637209 -2.134222 -2.951180 0
M  V30 27 C 0.222694 -3.270120 -2.291012 0
M  V30 28 H -0.680276 -7.531857 -2.213272 0
M  V30 29 H -2.277924 -6.731899 -2.587959 0
M  V30 30 H -0.984051 -6.785098 -3.808169 0
M  V30 31 H -0.677073 -5.164970 -4.920015 0
M  V30 32 H 0.078838 -3.096491 -6.089794 0
M  V30 33 H 1.133274 -0.519715 -5.742214 0
M  V30 34 H 2.461231 1.096408 -1.707095 0
M  V30 35 H 3.313832 2.046866 0.118782 0
M  V30 36 H 3.039495 0.549951 1.058418 0
M  V30 37 H 1.135150 2.886455 0.441692 0
M  V30 38 H 3.029619 2.381486 2.496352 0
M  V30 39 H 1.947261 3.772515 2.271818 0
M  V30 40 H 0.457981 3.155415 3.852390 0
M  V30 41 H 1.873245 2.374990 4.523218 0
M  V30 42 H -1.411291 2.181324 3.831936 0
M  V30 43 H -0.661190 1.622217 5.346638 0
M  V30 44 H -1.313563 -0.651011 4.972981 0
M  V30 45 H -2.006398 -0.296279 3.351786 0
M  V30 46 H -2.921800 0.931185 5.973283 0
M  V30 47 H -3.520615 1.305685 4.357865 0
M  V30 48 H -4.475817 -2.516600 5.844787 0
M  V30 49 H 1.589031 -0.010861 2.427931 0
M  V30 50 H -0.063214 -0.586684 2.525578 0
M  V30 51 H -0.523927 2.088763 1.788141 0
M  V30 52 H -0.260831 0.833270 0.512548 0
M  V30 53 H 0.277285 -3.282778 -1.209383 0
M  V30 END ATOM
M  V30 BEGIN BOND
M  V30 1 1 1 2
M  V30 2 1 2 3
M  V30 3 2 3 4
M  V30 4 1 4 5
M  V30 5 2 5 6
M  V30 6 1 6 7
M  V30 7 1 7 8
M  V30 8 2 8 9
M  V30 9 1 9 10
M  V30 10 2 10 11
M  V30 11 1 10 12
M  V30 12 1 12 13
M  V30 13 1 13 14
M  V30 14 1 14 15
M  V30 15 1 15 16
M  V30 16 1 16 17
M  V30 17 1 17 18
M  V30 18 1 18 19
M  V30 19 1 19 20
M  V30 20 1 20 21
M  V30 21 2 21 22
M  V30 22 1 21 23
M  V30 23 1 17 24
M  V30 24 1 24 25
M  V30 25 1 9 26
M  V30 26 2 26 27
M  V30 27 1 27 3
M  V30 28 1 26 6
M  V30 29 1 25 14
M  V30 30 1 1 28
M  V30 31 1 1 29
M  V30 32 1 1 30
M  V30 33 1 4 31
M  V30 34 1 5 32
M  V30 35 1 7 33
M  V30 36 1 12 34
M  V30 37 1 13 35
M  V30 38 1 13 36
M  V30 39 1 14 37
M  V30 40 1 15 38
M  V30 41 1 15 39
M  V30 42 1 16 40
M  V30 43 1 16 41
M  V30 44 1 18 42
M  V30 45 1 18 43
M  V30 46 1 19 44
M  V30 47 1 19 45
M  V30 48 1 20 46
M  V30 49 1 20 47
M  V30 50 1 23 48
M  V30 51 1 24 49
M  V30 52 1 24 50
M  V30 53 1 25 51
M  V30 54 1 25 52
M  V30 55 1 27 53
M  V30 END BOND
M  V30 END CTAB
M  END
>  <Dataset>  (35) 
ChEMBL_Kinases

>  <Ligand_Instance>  (35) 
nan

>  <PDB_ID>  (35) 
nan

>  <Standardized_SMILES>  (35) 
COc1ccc2[nH]nc(C(=O)NCC3CCN(CCCC(=O)O)CC3)c2c1

>  <Name>  (35) 
nan

>  <Pocket>  (35) 
nan

>  <ATP_Site>  (35) 
nan

>  <Peripheral>  (35) 
nan

>  <Num_H_Atoms_ProtBoundConf>  (35) 
nan

>  <Num_Resolved_Atoms>  (35) 
nan

>  <Num_Not_Resolved_Atoms>  (35) 
nan

$$$$
CHEMBL3734924
     RDKit          3D

  0  0  0  0  0  0  0  0  0  0999 V3000
M  V30 BEGIN CTAB
M  V30 COUNTS 63 67 0 0 0
M  V30 BEGIN ATOM
M  V30 1 C 2.018161 0.882051 5.072876 0
M  V30 2 O 2.456834 0.783020 3.732736 0
M  V30 3 C 3.472506 -0.111556 3.420621 0
M  V30 4 N 4.085951 -0.909968 4.314839 0
M  V30 5 C 5.060494 -1.771564 4.028900 0
M  V30 6 C 5.466930 -1.845619 2.712866 0
M  V30 7 C 4.854625 -1.033727 1.757564 0
M  V30 8 C 3.836241 -0.141597 2.090890 0
M  V30 9 C 3.266809 0.659139 1.011019 0
M  V30 10 C 4.140687 1.250490 0.118898 0
M  V30 11 C 3.599711 2.006539 -0.900468 0
M  V30 12 C 2.233879 2.146646 -0.996818 0
M  V30 13 N 1.392300 2.774977 -1.815799 0
M  V30 14 N 0.110880 2.598856 -1.475653 0
M  V30 15 C 0.073593 1.811358 -0.369601 0
M  V30 16 C -1.220692 1.495307 0.167167 0
M  V30 17 O -2.194296 2.004676 -0.488430 0
M  V30 18 N -1.775556 0.775135 1.226439 0
M  V30 19 C -2.957057 0.368892 1.870493 0
M  V30 20 C -3.930716 -0.485805 1.153730 0
M  V30 21 C -3.328252 -1.824087 0.683344 0
M  V30 22 C -4.484174 -2.494143 -0.067340 0
M  V30 23 N -4.605431 -1.890608 -1.338031 0
M  V30 24 C -4.037133 -2.591334 -2.437726 0
M  V30 25 C -2.581666 -2.827798 -2.332328 0
M  V30 26 C -1.595545 -1.958862 -2.806894 0
M  V30 27 C -0.350666 -2.491331 -2.541540 0
M  V30 28 C -0.655908 -3.694724 -1.898913 0
M  V30 29 C 0.330922 -4.658957 -1.400936 0
M  V30 30 O 0.005543 -5.734410 -0.825872 0
M  V30 31 O 1.685085 -4.405378 -1.554116 0
M  V30 32 O -1.962826 -3.852669 -1.797128 0
M  V30 33 C -4.286106 -0.480338 -1.318502 0
M  V30 34 C -4.704739 0.081076 0.028922 0
M  V30 35 C 1.391655 1.549280 -0.098547 0
M  V30 36 C 1.900120 0.793447 0.922837 0
M  V30 37 H 2.152373 -0.070273 5.620039 0
M  V30 38 H 0.923248 1.097548 5.085704 0
M  V30 39 H 2.491350 1.738787 5.597281 0
M  V30 40 H 5.508695 -2.383432 4.801852 0
M  V30 41 H 6.261793 -2.535247 2.424488 0
M  V30 42 H 5.217865 -1.137611 0.739604 0
M  V30 43 H 5.219540 1.167867 0.155707 0
M  V30 44 H 4.167959 2.518422 -1.658974 0
M  V30 45 H 1.650753 3.358238 -2.651851 0
M  V30 46 H -0.942069 0.374610 1.748375 0
M  V30 47 H -2.709825 -0.150535 2.838893 0
M  V30 48 H -3.564820 1.271397 2.224812 0
M  V30 49 H -4.653699 -0.846130 1.985391 0
M  V30 50 H -2.509912 -1.533797 -0.012877 0
M  V30 51 H -2.951022 -2.424989 1.510326 0
M  V30 52 H -4.384589 -3.586672 -0.066830 0
M  V30 53 H -5.412075 -2.289651 0.518489 0
M  V30 54 H -4.573603 -3.548376 -2.601543 0
M  V30 55 H -4.205786 -1.988722 -3.355080 0
M  V30 56 H -1.746716 -0.996324 -3.315495 0
M  V30 57 H 0.609616 -2.074559 -2.775893 0
M  V30 58 H 2.402642 -4.767893 -0.925769 0
M  V30 59 H -4.911662 0.019978 -2.081377 0
M  V30 60 H -3.230897 -0.275201 -1.482517 0
M  V30 61 H -5.805401 -0.136889 0.199413 0
M  V30 62 H -4.635287 1.174206 0.011485 0
M  V30 63 H 1.263900 0.316269 1.637141 0
M  V30 END ATOM
M  V30 BEGIN BOND
M  V30 1 1 1 2
M  V30 2 1 2 3
M  V30 3 2 3 4
M  V30 4 1 4 5
M  V30 5 2 5 6
M  V30 6 1 6 7
M  V30 7 2 7 8
M  V30 8 1 8 9
M  V30 9 2 9 10
M  V30 10 1 10 11
M  V30 11 2 11 12
M  V30 12 1 12 13
M  V30 13 1 13 14
M  V30 14 2 14 15
M  V30 15 1 15 16
M  V30 16 2 16 17
M  V30 17 1 16 18
M  V30 18 1 18 19
M  V30 19 1 19 20
M  V30 20 1 20 21
M  V30 21 1 21 22
M  V30 22 1 22 23
M  V30 23 1 23 24
M  V30 24 1 24 25
M  V30 25 2 25 26
M  V30 26 1 26 27
M  V30 27 2 27 28
M  V30 28 1 28 29
M  V30 29 2 29 30
M  V30 30 1 29 31
M  V30 31 1 28 32
M  V30 32 1 23 33
M  V30 33 1 33 34
M  V30 34 1 15 35
M  V30 35 2 35 36
M  V30 36 1 8 3
M  V30 37 1 36 9
M  V30 38 1 35 12
M  V30 39 1 34 20
M  V30 40 1 32 25
M  V30 41 1 1 37
M  V30 42 1 1 38
M  V30 43 1 1 39
M  V30 44 1 5 40
M  V30 45 1 6 41
M  V30 46 1 7 42
M  V30 47 1 10 43
M  V30 48 1 11 44
M  V30 49 1 13 45
M  V30 50 1 18 46
M  V30 51 1 19 47
M  V30 52 1 19 48
M  V30 53 1 20 49
M  V30 54 1 21 50
M  V30 55 1 21 51
M  V30 56 1 22 52
M  V30 57 1 22 53
M  V30 58 1 24 54
M  V30 59 1 24 55
M  V30 60 1 26 56
M  V30 61 1 27 57
M  V30 62 1 31 58
M  V30 63 1 33 59
M  V30 64 1 33 60
M  V30 65 1 34 61
M  V30 66 1 34 62
M  V30 67 1 36 63
M  V30 END BOND
M  V30 END CTAB
M  END
>  <Dataset>  (36) 
ChEMBL_Kinases

>  <Ligand_Instance>  (36) 
nan

>  <PDB_ID>  (36) 
nan

>  <Standardized_SMILES>  (36) 
COc1ncccc1-c1ccc2[nH]nc(C(=O)NCC3CCN(Cc4ccc(C(=O)O)o4)CC3)c2c1

>  <Name>  (36) 
nan

>  <Pocket>  (36) 
nan

>  <ATP_Site>  (36) 
nan

>  <Peripheral>  (36) 
nan

>  <Num_H_Atoms_ProtBoundConf>  (36) 
nan

>  <Num_Resolved_Atoms>  (36) 
nan

>  <Num_Not_Resolved_Atoms>  (36) 
nan

$$$$
CHEMBL3734911
     RDKit          3D

  0  0  0  0  0  0  0  0  0  0999 V3000
M  V30 BEGIN CTAB
M  V30 COUNTS 66 69 0 0 0
M  V30 BEGIN ATOM
M  V30 1 C 4.005322 -1.039590 6.261731 0
M  V30 2 O 5.221798 -1.389875 5.633714 0
M  V30 3 C 5.502906 -1.242933 4.303049 0
M  V30 4 C 6.786295 -1.670518 3.944128 0
M  V30 5 C 7.205054 -1.577693 2.618263 0
M  V30 6 C 6.348048 -1.064176 1.671427 0
M  V30 7 N 6.360101 -0.815933 0.350785 0
M  V30 8 N 5.198290 -0.285961 -0.068987 0
M  V30 9 C 4.375357 -0.170147 0.988151 0
M  V30 10 C 3.095272 0.379291 0.696183 0
M  V30 11 O 2.786018 0.710395 -0.491273 0
M  V30 12 N 1.956015 0.683905 1.471431 0
M  V30 13 C 0.880523 1.240346 0.692939 0
M  V30 14 C -0.318473 1.563812 1.548042 0
M  V30 15 C -0.786820 0.275123 2.200680 0
M  V30 16 C -1.221393 -0.644252 1.113812 0
M  V30 17 N -2.335396 -0.115876 0.379357 0
M  V30 18 C -3.513150 -0.950166 0.499751 0
M  V30 19 C -4.659763 -0.657250 -0.356560 0
M  V30 20 C -4.580179 -0.787205 -1.827556 0
M  V30 21 C -3.553529 0.077696 -2.432046 0
M  V30 22 C -3.159344 -0.368036 -3.842092 0
M  V30 23 C -2.484747 -1.727561 -3.596884 0
M  V30 24 C -3.589470 -2.666001 -3.252376 0
M  V30 25 C -2.998126 -3.996816 -2.745169 0
M  V30 26 C -4.627633 -2.202981 -2.320291 0
M  V30 27 C -2.638713 1.259894 0.693932 0
M  V30 28 C -1.443058 2.158721 0.725459 0
M  V30 29 C 5.088702 -0.646877 2.035564 0
M  V30 30 C 4.675739 -0.736895 3.334755 0
M  V30 31 H 3.175548 -1.066301 5.536208 0
M  V30 32 H 3.767186 -1.796142 7.053327 0
M  V30 33 H 4.110860 -0.056914 6.746927 0
M  V30 34 H 7.560754 -2.095921 4.595667 0
M  V30 35 H 8.181233 -1.888838 2.274072 0
M  V30 36 H 7.190903 -1.019621 -0.257819 0
M  V30 37 H 2.037201 0.472936 2.479750 0
M  V30 38 H 0.624824 0.676156 -0.214644 0
M  V30 39 H 1.246568 2.248749 0.326384 0
M  V30 40 H 0.025982 2.228691 2.364006 0
M  V30 41 H 0.073837 -0.091617 2.783023 0
M  V30 42 H -1.681082 0.463960 2.848303 0
M  V30 43 H -1.533845 -1.590566 1.610738 0
M  V30 44 H -0.431189 -0.918943 0.378136 0
M  V30 45 H -3.862825 -0.754953 1.559591 0
M  V30 46 H -3.166358 -1.987471 0.531926 0
M  V30 47 H -5.522778 -1.293180 0.021029 0
M  V30 48 H -4.963941 0.415607 -0.147259 0
M  V30 49 H -5.573472 -0.330676 -2.180878 0
M  V30 50 H -3.918042 1.118800 -2.551403 0
M  V30 51 H -2.581659 0.159099 -1.915392 0
M  V30 52 H -4.038385 -0.559549 -4.456584 0
M  V30 53 H -2.455125 0.375623 -4.221637 0
M  V30 54 H -1.707749 -1.635874 -2.810661 0
M  V30 55 H -1.988152 -2.058076 -4.510656 0
M  V30 56 H -4.050657 -2.957005 -4.251802 0
M  V30 57 H -2.182713 -3.734105 -2.031384 0
M  V30 58 H -3.852785 -4.528166 -2.242292 0
M  V30 59 H -2.629101 -4.617706 -3.570311 0
M  V30 60 H -4.674705 -2.936501 -1.454750 0
M  V30 61 H -5.632975 -2.410749 -2.806334 0
M  V30 62 H -3.171629 1.271442 1.664595 0
M  V30 63 H -3.335716 1.641026 -0.065063 0
M  V30 64 H -1.737151 3.103216 1.220882 0
M  V30 65 H -1.039311 2.413570 -0.267674 0
M  V30 66 H 3.717586 -0.426741 3.649295 0
M  V30 END ATOM
M  V30 BEGIN BOND
M  V30 1 1 1 2
M  V30 2 1 2 3
M  V30 3 2 3 4
M  V30 4 1 4 5
M  V30 5 2 5 6
M  V30 6 1 6 7
M  V30 7 1 7 8
M  V30 8 2 8 9
M  V30 9 1 9 10
M  V30 10 2 10 11
M  V30 11 1 10 12
M  V30 12 1 12 13
M  V30 13 1 13 14
M  V30 14 1 14 15
M  V30 15 1 15 16
M  V30 16 1 16 17
M  V30 17 1 17 18
M  V30 18 1 18 19
M  V30 19 1 19 20
M  V30 20 1 20 21
M  V30 21 1 21 22
M  V30 22 1 22 23
M  V30 23 1 23 24
M  V30 24 1 24 25
M  V30 25 1 24 26
M  V30 26 1 17 27
M  V30 27 1 27 28
M  V30 28 1 9 29
M  V30 29 2 29 30
M  V30 30 1 30 3
M  V30 31 1 29 6
M  V30 32 1 28 14
M  V30 33 1 26 20
M  V30 34 1 1 31
M  V30 35 1 1 32
M  V30 36 1 1 33
M  V30 37 1 4 34
M  V30 38 1 5 35
M  V30 39 1 7 36
M  V30 40 1 12 37
M  V30 41 1 13 38
M  V30 42 1 13 39
M  V30 43 1 14 40
M  V30 44 1 15 41
M  V30 45 1 15 42
M  V30 46 1 16 43
M  V30 47 1 16 44
M  V30 48 1 18 45
M  V30 49 1 18 46
M  V30 50 1 19 47
M  V30 51 1 19 48
M  V30 52 1 20 49
M  V30 53 1 21 50
M  V30 54 1 21 51
M  V30 55 1 22 52
M  V30 56 1 22 53
M  V30 57 1 23 54
M  V30 58 1 23 55
M  V30 59 1 24 56
M  V30 60 1 25 57
M  V30 61 1 25 58
M  V30 62 1 25 59
M  V30 63 1 26 60
M  V30 64 1 26 61
M  V30 65 1 27 62
M  V30 66 1 27 63
M  V30 67 1 28 64
M  V30 68 1 28 65
M  V30 69 1 30 66
M  V30 END BOND
M  V30 END CTAB
M  END
>  <Dataset>  (37) 
ChEMBL_Kinases

>  <Ligand_Instance>  (37) 
nan

>  <PDB_ID>  (37) 
nan

>  <Standardized_SMILES>  (37) 
COc1ccc2[nH]nc(C(=O)NCC3CCN(CCC4CCCC(C)C4)CC3)c2c1

>  <Name>  (37) 
nan

>  <Pocket>  (37) 
nan

>  <ATP_Site>  (37) 
nan

>  <Peripheral>  (37) 
nan

>  <Num_H_Atoms_ProtBoundConf>  (37) 
nan

>  <Num_Resolved_Atoms>  (37) 
nan

>  <Num_Not_Resolved_Atoms>  (37) 
nan

$$$$
CHEMBL3734895
     RDKit          3D

  0  0  0  0  0  0  0  0  0  0999 V3000
M  V30 BEGIN CTAB
M  V30 COUNTS 64 68 0 0 0
M  V30 BEGIN ATOM
M  V30 1 C 6.486833 -2.491162 1.021897 0
M  V30 2 O 6.618226 -1.146043 1.360087 0
M  V30 3 C 5.675053 -0.169163 1.085213 0
M  V30 4 C 4.485058 -0.389406 0.444525 0
M  V30 5 C 3.695087 0.691541 0.266027 0
M  V30 6 C 3.914830 1.991514 0.637929 0
M  V30 7 C 3.015518 3.119133 0.416844 0
M  V30 8 C 3.515728 4.407514 0.225225 0
M  V30 9 C 2.706557 5.509318 0.017960 0
M  V30 10 C 1.337915 5.322915 0.000417 0
M  V30 11 N 0.234376 6.078826 -0.145973 0
M  V30 12 N -0.871771 5.357522 -0.060669 0
M  V30 13 C -0.553982 4.053434 0.151943 0
M  V30 14 C -1.636187 3.105870 0.286714 0
M  V30 15 O -2.803010 3.561769 0.465020 0
M  V30 16 N -1.679182 1.707857 0.261308 0
M  V30 17 C -2.982217 1.074324 0.452185 0
M  V30 18 C -2.759092 -0.426748 0.368933 0
M  V30 19 C -2.215516 -0.771031 -0.959218 0
M  V30 20 C -3.021215 -1.854452 -1.613864 0
M  V30 21 N -3.173365 -2.926083 -0.703494 0
M  V30 22 C -3.419264 -4.206522 -1.272412 0
M  V30 23 C -3.573105 -5.250005 -0.226887 0
M  V30 24 C -4.708879 -5.687281 0.423737 0
M  V30 25 C -4.361217 -6.689319 1.331038 0
M  V30 26 C -3.002218 -6.797600 1.167337 0
M  V30 27 C -2.188695 -7.738401 1.922729 0
M  V30 28 O -2.627396 -8.527195 2.773782 0
M  V30 29 O -0.829267 -7.938660 1.852019 0
M  V30 30 O -2.571502 -5.966713 0.273252 0
M  V30 31 C -3.994314 -2.623366 0.441109 0
M  V30 32 C -3.939026 -1.194128 0.864162 0
M  V30 33 C 0.817441 4.065257 0.185898 0
M  V30 34 C 1.648046 2.998074 0.388212 0
M  V30 35 C 5.145158 2.186748 1.293894 0
M  V30 36 C 6.023233 1.116322 1.518073 0
M  V30 37 H 6.107687 -2.703484 0.019125 0
M  V30 38 H 7.478280 -2.993409 1.166091 0
M  V30 39 H 5.791675 -2.949050 1.749737 0
M  V30 40 H 4.236664 -1.387299 0.119329 0
M  V30 41 H 2.749113 0.543248 -0.237467 0
M  V30 42 H 4.590068 4.580190 0.231965 0
M  V30 43 H 3.075474 6.514912 -0.131662 0
M  V30 44 H 0.237659 7.108458 -0.310119 0
M  V30 45 H -0.778948 1.217160 0.101673 0
M  V30 46 H -3.312311 1.337613 1.464236 0
M  V30 47 H -3.735304 1.425444 -0.258267 0
M  V30 48 H -1.919033 -0.687845 1.091715 0
M  V30 49 H -1.118409 -0.992612 -0.957586 0
M  V30 50 H -2.278318 0.143972 -1.626406 0
M  V30 51 H -3.983216 -1.428313 -1.923740 0
M  V30 52 H -2.424223 -2.215008 -2.475136 0
M  V30 53 H -4.374924 -4.133739 -1.839198 0
M  V30 54 H -2.663925 -4.553122 -1.978608 0
M  V30 55 H -5.704506 -5.306288 0.247513 0
M  V30 56 H -5.064196 -7.207461 1.975567 0
M  V30 57 H -0.224573 -7.863829 2.677039 0
M  V30 58 H -5.023925 -2.954571 0.194603 0
M  V30 59 H -3.656298 -3.287908 1.262859 0
M  V30 60 H -4.003360 -1.161939 1.970305 0
M  V30 61 H -4.849612 -0.680327 0.492478 0
M  V30 62 H 1.276091 2.022680 0.541637 0
M  V30 63 H 5.405151 3.176554 1.622691 0
M  V30 64 H 6.969048 1.295934 2.028387 0
M  V30 END ATOM
M  V30 BEGIN BOND
M  V30 1 1 1 2
M  V30 2 1 2 3
M  V30 3 2 3 4
M  V30 4 1 4 5
M  V30 5 2 5 6
M  V30 6 1 6 7
M  V30 7 2 7 8
M  V30 8 1 8 9
M  V30 9 2 9 10
M  V30 10 1 10 11
M  V30 11 1 11 12
M  V30 12 2 12 13
M  V30 13 1 13 14
M  V30 14 2 14 15
M  V30 15 1 14 16
M  V30 16 1 16 17
M  V30 17 1 17 18
M  V30 18 1 18 19
M  V30 19 1 19 20
M  V30 20 1 20 21
M  V30 21 1 21 22
M  V30 22 1 22 23
M  V30 23 2 23 24
M  V30 24 1 24 25
M  V30 25 2 25 26
M  V30 26 1 26 27
M  V30 27 2 27 28
M  V30 28 1 27 29
M  V30 29 1 26 30
M  V30 30 1 21 31
M  V30 31 1 31 32
M  V30 32 1 13 33
M  V30 33 2 33 34
M  V30 34 1 6 35
M  V30 35 2 35 36
M  V30 36 1 36 3
M  V30 37 1 34 7
M  V30 38 1 33 10
M  V30 39 1 32 18
M  V30 40 1 30 23
M  V30 41 1 1 37
M  V30 42 1 1 38
M  V30 43 1 1 39
M  V30 44 1 4 40
M  V30 45 1 5 41
M  V30 46 1 8 42
M  V30 47 1 9 43
M  V30 48 1 11 44
M  V30 49 1 16 45
M  V30 50 1 17 46
M  V30 51 1 17 47
M  V30 52 1 18 48
M  V30 53 1 19 49
M  V30 54 1 19 50
M  V30 55 1 20 51
M  V30 56 1 20 52
M  V30 57 1 22 53
M  V30 58 1 22 54
M  V30 59 1 24 55
M  V30 60 1 25 56
M  V30 61 1 29 57
M  V30 62 1 31 58
M  V30 63 1 31 59
M  V30 64 1 32 60
M  V30 65 1 32 61
M  V30 66 1 34 62
M  V30 67 1 35 63
M  V30 68 1 36 64
M  V30 END BOND
M  V30 END CTAB
M  END
>  <Dataset>  (38) 
ChEMBL_Kinases

>  <Ligand_Instance>  (38) 
nan

>  <PDB_ID>  (38) 
nan

>  <Standardized_SMILES>  (38) 
COc1ccc(-c2ccc3[nH]nc(C(=O)NCC4CCN(Cc5ccc(C(=O)O)o5)CC4)c3c2)cc1

>  <Name>  (38) 
nan

>  <Pocket>  (38) 
nan

>  <ATP_Site>  (38) 
nan

>  <Peripheral>  (38) 
nan

>  <Num_H_Atoms_ProtBoundConf>  (38) 
nan

>  <Num_Resolved_Atoms>  (38) 
nan

>  <Num_Not_Resolved_Atoms>  (38) 
nan

$$$$
CHEMBL373487
     RDKit          3D

  0  0  0  0  0  0  0  0  0  0999 V3000
M  V30 BEGIN CTAB
M  V30 COUNTS 48 51 0 0 0
M  V30 BEGIN ATOM
M  V30 1 C 0.347323 -5.846518 -2.118888 0
M  V30 2 C 0.761642 -5.446951 -0.754695 0
M  V30 3 N 1.071992 -6.190568 0.313564 0
M  V30 4 N 1.391180 -5.414684 1.343663 0
M  V30 5 C 1.294087 -4.128488 0.962506 0
M  V30 6 C 1.513343 -2.954704 1.641123 0
M  V30 7 C 1.323612 -1.768964 0.955411 0
M  V30 8 C 0.929011 -1.709807 -0.362309 0
M  V30 9 N 0.726318 -0.493965 -1.069563 0
M  V30 10 C 0.868870 0.827651 -0.547558 0
M  V30 11 C 0.672959 1.900315 -1.634557 0
M  V30 12 C 1.046820 3.198040 -1.003236 0
M  V30 13 C 0.965295 3.253628 0.482705 0
M  V30 14 N 0.121533 2.332934 1.131066 0
M  V30 15 C -0.531347 2.697985 2.317979 0
M  V30 16 C -1.367807 1.567596 2.821095 0
M  V30 17 C -0.818215 0.629907 3.699387 0
M  V30 18 C -1.582653 -0.422981 4.173790 0
M  V30 19 C -2.911804 -0.558609 3.778996 0
M  V30 20 C -3.465399 0.366310 2.908392 0
M  V30 21 C -2.700055 1.414818 2.437493 0
M  V30 22 C -0.240382 1.161734 0.455350 0
M  V30 23 C 0.729863 -2.922524 -0.972736 0
M  V30 24 C 0.901554 -4.136583 -0.346351 0
M  V30 25 H -0.744349 -6.043114 -2.163043 0
M  V30 26 H 0.616598 -5.063162 -2.840128 0
M  V30 27 H 0.876057 -6.763654 -2.438288 0
M  V30 28 H 1.663967 -5.800656 2.270791 0
M  V30 29 H 1.823404 -2.966107 2.675593 0
M  V30 30 H 1.508211 -0.882494 1.512785 0
M  V30 31 H 0.442713 -0.561881 -2.078771 0
M  V30 32 H 1.856361 1.030599 -0.096035 0
M  V30 33 H 1.279544 1.715369 -2.518397 0
M  V30 34 H -0.423683 1.905845 -1.847005 0
M  V30 35 H 0.348762 3.980550 -1.422068 0
M  V30 36 H 2.070948 3.477633 -1.371948 0
M  V30 37 H 0.692538 4.284559 0.793580 0
M  V30 38 H 2.021786 3.131744 0.863858 0
M  V30 39 H -1.223991 3.550005 2.118259 0
M  V30 40 H 0.127437 3.018816 3.150493 0
M  V30 41 H 0.234064 0.764621 3.992248 0
M  V30 42 H -1.128806 -1.146484 4.862442 0
M  V30 43 H -3.526144 -1.377092 4.140350 0
M  V30 44 H -4.503828 0.294420 2.575437 0
M  V30 45 H -3.101699 2.153533 1.757290 0
M  V30 46 H -0.476903 0.350234 1.137079 0
M  V30 47 H -1.155037 1.354950 -0.181181 0
M  V30 48 H 0.418335 -2.931018 -2.011242 0
M  V30 END ATOM
M  V30 BEGIN BOND
M  V30 1 1 1 2
M  V30 2 2 2 3
M  V30 3 1 3 4
M  V30 4 1 4 5
M  V30 5 2 5 6
M  V30 6 1 6 7
M  V30 7 2 7 8
M  V30 8 1 8 9
M  V30 9 1 9 10
M  V30 10 1 10 11
M  V30 11 1 11 12
M  V30 12 1 12 13
M  V30 13 1 13 14
M  V30 14 1 14 15
M  V30 15 1 15 16
M  V30 16 2 16 17
M  V30 17 1 17 18
M  V30 18 2 18 19
M  V30 19 1 19 20
M  V30 20 2 20 21
M  V30 21 1 14 22
M  V30 22 1 8 23
M  V30 23 2 23 24
M  V30 24 1 24 2
M  V30 25 1 24 5
M  V30 26 1 22 10
M  V30 27 1 21 16
M  V30 28 1 1 25
M  V30 29 1 1 26
M  V30 30 1 1 27
M  V30 31 1 4 28
M  V30 32 1 6 29
M  V30 33 1 7 30
M  V30 34 1 9 31
M  V30 35 1 10 32
M  V30 36 1 11 33
M  V30 37 1 11 34
M  V30 38 1 12 35
M  V30 39 1 12 36
M  V30 40 1 13 37
M  V30 41 1 13 38
M  V30 42 1 15 39
M  V30 43 1 15 40
M  V30 44 1 17 41
M  V30 45 1 18 42
M  V30 46 1 19 43
M  V30 47 1 20 44
M  V30 48 1 21 45
M  V30 49 1 22 46
M  V30 50 1 22 47
M  V30 51 1 23 48
M  V30 END BOND
M  V30 END CTAB
M  END
>  <Dataset>  (39) 
ChEMBL_Kinases

>  <Ligand_Instance>  (39) 
nan

>  <PDB_ID>  (39) 
nan

>  <Standardized_SMILES>  (39) 
Cc1n[nH]c2ccc(NC3CCCN(Cc4ccccc4)C3)cc12

>  <Name>  (39) 
nan

>  <Pocket>  (39) 
nan

>  <ATP_Site>  (39) 
nan

>  <Peripheral>  (39) 
nan

>  <Num_H_Atoms_ProtBoundConf>  (39) 
nan

>  <Num_Resolved_Atoms>  (39) 
nan

>  <Num_Not_Resolved_Atoms>  (39) 
nan

$$$$
CHEMBL3734854
     RDKit          3D

  0  0  0  0  0  0  0  0  0  0999 V3000
M  V30 BEGIN CTAB
M  V30 COUNTS 69 73 0 0 0
M  V30 BEGIN ATOM
M  V30 1 O 1.650867 -1.661753 -1.032933 0
M  V30 2 C 1.546563 -2.933009 -0.953088 0
M  V30 3 N 0.854239 -3.319640 0.230006 0
M  V30 4 C 0.446562 -2.231327 1.033461 0
M  V30 5 N 1.160429 -1.659462 2.026373 0
M  V30 6 C 0.430483 -0.647617 2.557525 0
M  V30 7 C 0.653921 0.266167 3.580012 0
M  V30 8 C -0.311416 1.211208 3.901702 0
M  V30 9 C -0.074676 2.180535 4.986188 0
M  V30 10 N 0.548652 3.402374 4.564289 0
M  V30 11 C 1.840989 3.218261 3.960148 0
M  V30 12 C 2.519933 4.578110 3.851908 0
M  V30 13 C 1.710448 5.479705 2.945234 0
M  V30 14 C 0.331248 5.580983 3.557413 0
M  V30 15 C -0.307422 4.231566 3.755399 0
M  V30 16 C -1.517262 1.241592 3.189558 0
M  V30 17 C -1.691267 0.310025 2.180248 0
M  V30 18 C -0.747254 -0.644482 1.836277 0
M  V30 19 N -0.741690 -1.620098 0.894736 0
M  V30 20 C -1.855248 -1.845943 -0.008841 0 CFG=1
M  V30 21 C -1.841413 -0.951091 -1.212182 0
M  V30 22 C -2.732601 -1.586416 -2.281272 0
M  V30 23 C -3.930866 -2.223007 -1.573767 0 CFG=1
M  V30 24 C -4.921383 -2.638892 -2.646841 0
M  V30 25 O -4.268385 -3.558524 -3.483682 0
M  V30 26 C -3.455149 -3.478690 -0.834012 0
M  V30 27 C -2.014162 -3.306435 -0.361471 0
M  V30 28 C 2.071983 -3.864607 -1.950334 0
M  V30 29 C 1.996211 -5.241214 -1.928708 0
M  V30 30 C 2.544056 -5.988062 -2.950288 0
M  V30 31 C 3.183122 -5.392376 -4.023358 0
M  V30 32 C 3.260986 -4.023662 -4.049297 0
M  V30 33 N 3.916509 -3.388143 -5.148061 0 CHG=1 VAL=4
M  V30 34 O 3.993204 -2.134992 -5.181475 0
M  V30 35 O 4.478064 -4.091197 -6.190015 0 CHG=-1 VAL=1
M  V30 36 C 2.711924 -3.282935 -3.026075 0
M  V30 37 H 0.711605 -4.360159 0.395762 0
M  V30 38 H 1.579515 0.223928 4.108328 0
M  V30 39 H 0.605936 1.681985 5.706658 0
M  V30 40 H -1.024698 2.440082 5.484712 0
M  V30 41 H 1.765922 2.829129 2.915679 0
M  V30 42 H 2.483227 2.613592 4.602484 0
M  V30 43 H 2.485801 5.069817 4.867561 0
M  V30 44 H 3.540450 4.523276 3.471414 0
M  V30 45 H 2.141848 6.502633 2.986322 0
M  V30 46 H 1.691678 5.162798 1.903304 0
M  V30 47 H -0.301705 6.113197 2.797077 0
M  V30 48 H 0.355956 6.206116 4.462230 0
M  V30 49 H -0.367757 3.780468 2.746849 0
M  V30 50 H -1.261543 4.404050 4.252702 0
M  V30 51 H -2.298444 1.948140 3.393513 0
M  V30 52 H -2.629383 0.341741 1.634046 0
M  V30 53 H -2.812007 -1.589273 0.534532 0
M  V30 54 H -0.860888 -0.704322 -1.613281 0
M  V30 55 H -2.317024 0.036598 -0.946939 0
M  V30 56 H -3.137488 -0.791696 -2.927714 0
M  V30 57 H -2.186602 -2.362723 -2.831758 0
M  V30 58 H -4.337323 -1.458180 -0.900704 0
M  V30 59 H -5.133447 -1.748326 -3.286155 0
M  V30 60 H -5.852379 -3.031966 -2.229423 0
M  V30 61 H -4.129197 -3.227631 -4.395650 0
M  V30 62 H -4.135772 -3.624543 0.039924 0
M  V30 63 H -3.564648 -4.313996 -1.546582 0
M  V30 64 H -1.812497 -3.898826 0.543878 0
M  V30 65 H -1.382164 -3.627674 -1.214540 0
M  V30 66 H 1.480944 -5.654260 -1.058061 0
M  V30 67 H 2.446931 -7.067927 -2.867207 0
M  V30 68 H 3.607989 -6.003831 -4.818216 0
M  V30 69 H 2.815805 -2.204945 -3.121194 0
M  V30 END ATOM
M  V30 BEGIN BOND
M  V30 1 2 1 2
M  V30 2 1 2 3
M  V30 3 1 3 4
M  V30 4 2 4 5
M  V30 5 1 5 6
M  V30 6 2 6 7
M  V30 7 1 7 8
M  V30 8 1 8 9
M  V30 9 1 9 10
M  V30 10 1 10 11
M  V30 11 1 11 12
M  V30 12 1 12 13
M  V30 13 1 13 14
M  V30 14 1 14 15
M  V30 15 2 8 16
M  V30 16 1 16 17
M  V30 17 2 17 18
M  V30 18 1 18 19
M  V30 19 1 19 20
M  V30 20 1 20 21
M  V30 21 1 21 22
M  V30 22 1 22 23
M  V30 23 1 23 24
M  V30 24 1 24 25
M  V30 25 1 23 26
M  V30 26 1 26 27
M  V30 27 1 2 28
M  V30 28 2 28 29
M  V30 29 1 29 30
M  V30 30 2 30 31
M  V30 31 1 31 32
M  V30 32 1 32 33
M  V30 33 2 33 34
M  V30 34 1 33 35
M  V30 35 2 32 36
M  V30 36 1 19 4
M  V30 37 1 27 20
M  V30 38 1 36 28
M  V30 39 1 18 6
M  V30 40 1 15 10
M  V30 41 1 3 37
M  V30 42 1 7 38
M  V30 43 1 9 39
M  V30 44 1 9 40
M  V30 45 1 11 41
M  V30 46 1 11 42
M  V30 47 1 12 43
M  V30 48 1 12 44
M  V30 49 1 13 45
M  V30 50 1 13 46
M  V30 51 1 14 47
M  V30 52 1 14 48
M  V30 53 1 15 49
M  V30 54 1 15 50
M  V30 55 1 16 51
M  V30 56 1 17 52
M  V30 57 1 20 53 CFG=1
M  V30 58 1 21 54
M  V30 59 1 21 55
M  V30 60 1 22 56
M  V30 61 1 22 57
M  V30 62 1 23 58 CFG=1
M  V30 63 1 24 59
M  V30 64 1 24 60
M  V30 65 1 25 61
M  V30 66 1 26 62
M  V30 67 1 26 63
M  V30 68 1 27 64
M  V30 69 1 27 65
M  V30 70 1 29 66
M  V30 71 1 30 67
M  V30 72 1 31 68
M  V30 73 1 36 69
M  V30 END BOND
M  V30 END CTAB
M  END
>  <Dataset>  (40) 
ChEMBL_Kinases

>  <Ligand_Instance>  (40) 
nan

>  <PDB_ID>  (40) 
nan

>  <Standardized_SMILES>  (40) 
O=C(Nc1nc2cc(CN3CCCCC3)ccc2n1[C@H]1CC[C@@H](CO)CC1)c1cccc([N+](=O)[O-])c1

>  <Name>  (40) 
nan

>  <Pocket>  (40) 
nan

>  <ATP_Site>  (40) 
nan

>  <Peripheral>  (40) 
nan

>  <Num_H_Atoms_ProtBoundConf>  (40) 
nan

>  <Num_Resolved_Atoms>  (40) 
nan

>  <Num_Not_Resolved_Atoms>  (40) 
nan

$$$$
CHEMBL3734853
     RDKit          3D

  0  0  0  0  0  0  0  0  0  0999 V3000
M  V30 BEGIN CTAB
M  V30 COUNTS 60 63 0 0 0
M  V30 BEGIN ATOM
M  V30 1 C 2.041397 0.395272 5.964443 0
M  V30 2 O 2.512718 -0.892910 6.083906 0
M  V30 3 C 2.728340 -1.562559 4.902373 0
M  V30 4 C 3.735111 -0.858666 4.061096 0
M  V30 5 N 4.002646 -1.533772 2.836957 0
M  V30 6 C 4.935187 -0.978612 1.945507 0
M  V30 7 C 4.391166 -1.148115 0.539981 0
M  V30 8 C 2.924759 -0.753538 0.559254 0
M  V30 9 C 2.367474 -0.527617 -0.802258 0
M  V30 10 N 0.973446 -0.159377 -0.744763 0
M  V30 11 C 0.374581 0.948939 -0.133985 0
M  V30 12 O 1.283125 1.655831 0.407818 0
M  V30 13 C -0.985842 1.401159 -0.016766 0
M  V30 14 N -1.160619 2.574140 0.659870 0
M  V30 15 N -2.474571 2.853248 0.679695 0
M  V30 16 C -3.203869 1.929713 0.050989 0
M  V30 17 C -4.530874 1.702257 -0.230444 0
M  V30 18 C -4.891676 0.572843 -0.939657 0
M  V30 19 C -3.910522 -0.328324 -1.365281 0
M  V30 20 C -4.289808 -1.533170 -2.120071 0
M  V30 21 C -5.379775 -2.203841 -1.590168 0
M  V30 22 C -5.844010 -3.352697 -2.198360 0
M  V30 23 C -5.189928 -3.788682 -3.326470 0
M  V30 24 N -4.115760 -3.131600 -3.852553 0
M  V30 25 C -3.672225 -2.016952 -3.254965 0
M  V30 26 O -2.580363 -1.271949 -3.715274 0
M  V30 27 C -1.932084 -1.757035 -4.884741 0
M  V30 28 C -2.592849 -0.082978 -1.074394 0
M  V30 29 C -2.255684 1.027946 -0.378884 0
M  V30 30 C 2.127057 -1.749758 1.372462 0
M  V30 31 C 3.064030 -2.448399 2.335855 0
M  V30 32 H 1.867158 0.853753 6.972337 0
M  V30 33 H 1.154368 0.475492 5.316223 0
M  V30 34 H 2.853835 0.999022 5.454699 0
M  V30 35 H 3.063384 -2.589004 5.184609 0
M  V30 36 H 1.728269 -1.612489 4.388411 0
M  V30 37 H 4.616155 -0.602569 4.664809 0
M  V30 38 H 3.276505 0.130181 3.747689 0
M  V30 39 H 5.951604 -1.455477 2.027542 0
M  V30 40 H 5.098292 0.082970 2.176550 0
M  V30 41 H 4.460587 -2.188502 0.196273 0
M  V30 42 H 4.933874 -0.469454 -0.140741 0
M  V30 43 H 2.901209 0.202701 1.119930 0
M  V30 44 H 2.955242 0.341310 -1.233690 0
M  V30 45 H 2.538278 -1.376354 -1.458741 0
M  V30 46 H 0.327285 -0.796212 -1.216680 0
M  V30 47 H -2.864485 3.709203 1.144254 0
M  V30 48 H -5.240004 2.431698 0.123478 0
M  V30 49 H -5.949776 0.405706 -1.155460 0
M  V30 50 H -5.912202 -1.882344 -0.704222 0
M  V30 51 H -6.684458 -3.902714 -1.821442 0
M  V30 52 H -5.543326 -4.686517 -3.812042 0
M  V30 53 H -2.578128 -2.426820 -5.493918 0
M  V30 54 H -1.033977 -2.340776 -4.595700 0
M  V30 55 H -1.621508 -0.938515 -5.552046 0
M  V30 56 H -1.888288 -0.786635 -1.412723 0
M  V30 57 H 1.586595 -2.472730 0.727006 0
M  V30 58 H 1.398975 -1.205621 2.010592 0
M  V30 59 H 3.594209 -3.227953 1.721639 0
M  V30 60 H 2.516427 -2.997108 3.115063 0
M  V30 END ATOM
M  V30 BEGIN BOND
M  V30 1 1 1 2
M  V30 2 1 2 3
M  V30 3 1 3 4
M  V30 4 1 4 5
M  V30 5 1 5 6
M  V30 6 1 6 7
M  V30 7 1 7 8
M  V30 8 1 8 9
M  V30 9 1 9 10
M  V30 10 1 10 11
M  V30 11 2 11 12
M  V30 12 1 11 13
M  V30 13 2 13 14
M  V30 14 1 14 15
M  V30 15 1 15 16
M  V30 16 2 16 17
M  V30 17 1 17 18
M  V30 18 2 18 19
M  V30 19 1 19 20
M  V30 20 2 20 21
M  V30 21 1 21 22
M  V30 22 2 22 23
M  V30 23 1 23 24
M  V30 24 2 24 25
M  V30 25 1 25 26
M  V30 26 1 26 27
M  V30 27 1 19 28
M  V30 28 2 28 29
M  V30 29 1 8 30
M  V30 30 1 30 31
M  V30 31 1 31 5
M  V30 32 1 29 13
M  V30 33 1 29 16
M  V30 34 1 25 20
M  V30 35 1 1 32
M  V30 36 1 1 33
M  V30 37 1 1 34
M  V30 38 1 3 35
M  V30 39 1 3 36
M  V30 40 1 4 37
M  V30 41 1 4 38
M  V30 42 1 6 39
M  V30 43 1 6 40
M  V30 44 1 7 41
M  V30 45 1 7 42
M  V30 46 1 8 43
M  V30 47 1 9 44
M  V30 48 1 9 45
M  V30 49 1 10 46
M  V30 50 1 15 47
M  V30 51 1 17 48
M  V30 52 1 18 49
M  V30 53 1 21 50
M  V30 54 1 22 51
M  V30 55 1 23 52
M  V30 56 1 27 53
M  V30 57 1 27 54
M  V30 58 1 27 55
M  V30 59 1 28 56
M  V30 60 1 30 57
M  V30 61 1 30 58
M  V30 62 1 31 59
M  V30 63 1 31 60
M  V30 END BOND
M  V30 END CTAB
M  END
>  <Dataset>  (41) 
ChEMBL_Kinases

>  <Ligand_Instance>  (41) 
nan

>  <PDB_ID>  (41) 
nan

>  <Standardized_SMILES>  (41) 
COCCN1CCC(CNC(=O)c2n[nH]c3ccc(-c4cccnc4OC)cc23)CC1

>  <Name>  (41) 
nan

>  <Pocket>  (41) 
nan

>  <ATP_Site>  (41) 
nan

>  <Peripheral>  (41) 
nan

>  <Num_H_Atoms_ProtBoundConf>  (41) 
nan

>  <Num_Resolved_Atoms>  (41) 
nan

>  <Num_Not_Resolved_Atoms>  (41) 
nan

$$$$
CHEMBL511819
     RDKit          3D

  0  0  0  0  0  0  0  0  0  0999 V3000
M  V30 BEGIN CTAB
M  V30 COUNTS 58 59 0 0 0
M  V30 BEGIN ATOM
M  V30 1 C -1.191790 -3.429833 3.456719 0
M  V30 2 C 0.064846 -3.809371 2.738506 0
M  V30 3 C 1.164216 -2.788703 2.952462 0
M  V30 4 C 2.425166 -3.251173 2.180940 0
M  V30 5 C 3.520399 -2.287167 2.361132 0
M  V30 6 C 3.390637 -0.890967 1.971921 0
M  V30 7 C 2.850267 -0.265892 0.903352 0
M  V30 8 C 2.641951 1.132354 0.381716 0
M  V30 9 C 1.368998 0.988307 -0.421568 0
M  V30 10 C 1.460947 1.635374 -1.786770 0
M  V30 11 O 0.253346 1.401975 -2.430410 0
M  V30 12 C 0.164491 1.528925 0.331768 0
M  V30 13 O -0.973234 1.301780 -0.479680 0
M  V30 14 C -2.262429 1.682068 -0.083586 0
M  V30 15 O -2.196879 2.228313 1.062846 0
M  V30 16 C -3.435219 1.452809 -0.909728 0
M  V30 17 C -3.289458 0.837521 -2.133618 0
M  V30 18 C -4.449747 0.644479 -2.881450 0
M  V30 19 C -5.671311 1.058992 -2.395856 0
M  V30 20 O -6.819657 0.850540 -3.171838 0
M  V30 21 C -6.608952 0.207445 -4.433315 0
M  V30 22 C -5.792559 1.675580 -1.161907 0
M  V30 23 C -4.644040 1.880284 -0.393585 0
M  V30 24 O 1.144092 -0.395230 -0.632415 0
M  V30 25 C 2.314111 -1.067580 -0.198511 0
M  V30 26 O 2.929387 -2.126919 -0.547158 0
M  V30 27 C 4.934160 -2.806519 2.455727 0
M  V30 28 C 5.138767 -3.738046 3.587443 0
M  V30 29 H -1.327770 -4.070242 4.371837 0
M  V30 30 H -1.259033 -2.375510 3.755261 0
M  V30 31 H -2.096611 -3.636027 2.818324 0
M  V30 32 H -0.170125 -3.955845 1.673078 0
M  V30 33 H 0.414410 -4.796840 3.138319 0
M  V30 34 H 0.843978 -1.828520 2.520378 0
M  V30 35 H 1.368679 -2.696918 4.016877 0
M  V30 36 H 2.642262 -4.215238 2.805740 0
M  V30 37 H 2.202323 -3.720708 1.240222 0
M  V30 38 H 3.387254 -2.138349 3.528140 0
M  V30 39 H 3.802470 -0.079552 2.636130 0
M  V30 40 H 3.513914 1.332312 -0.280042 0
M  V30 41 H 2.550400 1.850498 1.217836 0
M  V30 42 H 2.237585 1.083921 -2.371563 0
M  V30 43 H 1.680097 2.720075 -1.721074 0
M  V30 44 H 0.359664 1.389720 -3.421876 0
M  V30 45 H 0.068059 1.050980 1.305975 0
M  V30 46 H 0.328395 2.636188 0.422413 0
M  V30 47 H -2.348655 0.516685 -2.510833 0
M  V30 48 H -4.314939 0.153792 -3.851816 0
M  V30 49 H -6.204842 -0.814003 -4.265971 0
M  V30 50 H -5.878833 0.820242 -5.001187 0
M  V30 51 H -7.551958 0.107271 -4.993678 0
M  V30 52 H -6.803714 1.972701 -0.854802 0
M  V30 53 H -4.758306 2.361511 0.563521 0
M  V30 54 H 5.348565 -3.231743 1.532692 0
M  V30 55 H 5.606323 -1.942208 2.661184 0
M  V30 56 H 5.177400 -4.787622 3.170962 0
M  V30 57 H 4.361887 -3.763676 4.366920 0
M  V30 58 H 6.135226 -3.630092 4.091163 0
M  V30 END ATOM
M  V30 BEGIN BOND
M  V30 1 1 1 2
M  V30 2 1 2 3
M  V30 3 1 3 4
M  V30 4 1 4 5
M  V30 5 1 5 6
M  V30 6 2 6 7
M  V30 7 1 7 8
M  V30 8 1 8 9
M  V30 9 1 9 10
M  V30 10 1 10 11
M  V30 11 1 9 12
M  V30 12 1 12 13
M  V30 13 1 13 14
M  V30 14 2 14 15
M  V30 15 1 14 16
M  V30 16 2 16 17
M  V30 17 1 17 18
M  V30 18 2 18 19
M  V30 19 1 19 20
M  V30 20 1 20 21
M  V30 21 1 19 22
M  V30 22 2 22 23
M  V30 23 1 9 24
M  V30 24 1 24 25
M  V30 25 2 25 26
M  V30 26 1 5 27
M  V30 27 1 27 28
M  V30 28 1 25 7
M  V30 29 1 23 16
M  V30 30 1 1 29
M  V30 31 1 1 30
M  V30 32 1 1 31
M  V30 33 1 2 32
M  V30 34 1 2 33
M  V30 35 1 3 34
M  V30 36 1 3 35
M  V30 37 1 4 36
M  V30 38 1 4 37
M  V30 39 1 5 38
M  V30 40 1 6 39
M  V30 41 1 8 40
M  V30 42 1 8 41
M  V30 43 1 10 42
M  V30 44 1 10 43
M  V30 45 1 11 44
M  V30 46 1 12 45
M  V30 47 1 12 46
M  V30 48 1 17 47
M  V30 49 1 18 48
M  V30 50 1 21 49
M  V30 51 1 21 50
M  V30 52 1 21 51
M  V30 53 1 22 52
M  V30 54 1 23 53
M  V30 55 1 27 54
M  V30 56 1 27 55
M  V30 57 1 28 56
M  V30 58 1 28 57
M  V30 59 1 28 58
M  V30 END BOND
M  V30 END CTAB
M  END
>  <Dataset>  (42) 
ChEMBL_Kinases

>  <Ligand_Instance>  (42) 
nan

>  <PDB_ID>  (42) 
nan

>  <Standardized_SMILES>  (42) 
CCCCC(/C=C1/CC(CO)(COC(=O)c2ccc(OC)cc2)OC1=O)CC

>  <Name>  (42) 
nan

>  <Pocket>  (42) 
nan

>  <ATP_Site>  (42) 
nan

>  <Peripheral>  (42) 
nan

>  <Num_H_Atoms_ProtBoundConf>  (42) 
nan

>  <Num_Resolved_Atoms>  (42) 
nan

>  <Num_Not_Resolved_Atoms>  (42) 
nan

$$$$
CHEMBL511820
     RDKit          3D

  0  0  0  0  0  0  0  0  0  0999 V3000
M  V30 BEGIN CTAB
M  V30 COUNTS 53 55 0 0 0
M  V30 BEGIN ATOM
M  V30 1 C 1.116420 0.514592 3.458635 0
M  V30 2 N 2.239636 -0.113538 2.786472 0
M  V30 3 C 2.324739 -1.580498 2.885767 0
M  V30 4 C 3.349549 0.313993 2.005595 0
M  V30 5 C 4.600182 0.095416 2.539451 0
M  V30 6 C 5.682976 0.505413 1.790702 0
M  V30 7 C 5.580702 1.111384 0.558183 0
M  V30 8 C 4.318776 1.314046 0.055323 0
M  V30 9 C 3.225388 0.908604 0.794803 0
M  V30 10 C 1.964415 1.183570 0.177252 0
M  V30 11 O 1.841936 1.703725 -0.959459 0
M  V30 12 O 0.594110 1.160015 0.210742 0
M  V30 13 C -0.178843 1.639131 -0.874652 0
M  V30 14 C -1.621961 1.462604 -0.469322 0
M  V30 15 C -1.958595 2.384867 0.705506 0
M  V30 16 O -1.103347 2.062074 1.741875 0
M  V30 17 C -1.972573 0.042558 -0.155038 0
M  V30 18 C -3.228202 -0.171827 -0.910561 0
M  V30 19 C -3.771979 -1.358929 -1.161044 0
M  V30 20 C -3.333615 -2.693432 -0.798765 0
M  V30 21 C -2.816694 -3.098000 0.390437 0
M  V30 22 C -2.394420 -4.370295 0.706269 0
M  V30 23 C -2.495151 -5.341345 -0.255470 0
M  V30 24 N -2.061337 -6.660580 0.057095 0 CHG=1 VAL=4
M  V30 25 O -1.600725 -6.947128 1.167342 0
M  V30 26 O -2.115303 -7.702359 -0.826249 0 CHG=-1 VAL=1
M  V30 27 C -3.004178 -5.018147 -1.476913 0
M  V30 28 C -3.409262 -3.725919 -1.730567 0
M  V30 29 C -3.691772 1.153009 -1.291160 0
M  V30 30 O -4.947008 1.401783 -1.360747 0
M  V30 31 O -2.502287 1.834573 -1.490002 0
M  V30 32 H 1.137738 1.601376 3.392599 0
M  V30 33 H 0.148856 0.063658 3.133191 0
M  V30 34 H 1.221507 0.249299 4.545125 0
M  V30 35 H 1.490436 -1.979285 3.492238 0
M  V30 36 H 2.419787 -2.045298 1.892801 0
M  V30 37 H 3.238193 -1.767303 3.505772 0
M  V30 38 H 4.758642 -0.378764 3.510710 0
M  V30 39 H 6.656820 0.329490 2.220563 0
M  V30 40 H 6.480132 1.401961 0.038401 0
M  V30 41 H 4.252547 1.790346 -0.912733 0
M  V30 42 H -0.016368 1.092572 -1.803299 0
M  V30 43 H 0.001622 2.721402 -1.051868 0
M  V30 44 H -3.023150 2.229534 0.968306 0
M  V30 45 H -1.801449 3.442420 0.420921 0
M  V30 46 H -0.437789 2.751692 1.925977 0
M  V30 47 H -2.074616 -0.135809 0.938265 0
M  V30 48 H -1.206608 -0.614574 -0.613790 0
M  V30 49 H -4.712787 -1.394295 -1.729536 0
M  V30 50 H -2.720140 -2.378721 1.186246 0
M  V30 51 H -1.995319 -4.612671 1.673770 0
M  V30 52 H -3.066401 -5.813181 -2.206985 0
M  V30 53 H -3.797165 -3.577194 -2.730573 0
M  V30 END ATOM
M  V30 BEGIN BOND
M  V30 1 1 1 2
M  V30 2 1 2 3
M  V30 3 1 2 4
M  V30 4 2 4 5
M  V30 5 1 5 6
M  V30 6 2 6 7
M  V30 7 1 7 8
M  V30 8 2 8 9
M  V30 9 1 9 10
M  V30 10 2 10 11
M  V30 11 1 10 12
M  V30 12 1 12 13
M  V30 13 1 13 14
M  V30 14 1 14 15
M  V30 15 1 15 16
M  V30 16 1 14 17
M  V30 17 1 17 18
M  V30 18 2 18 19
M  V30 19 1 19 20
M  V30 20 2 20 21
M  V30 21 1 21 22
M  V30 22 2 22 23
M  V30 23 1 23 24
M  V30 24 2 24 25
M  V30 25 1 24 26
M  V30 26 1 23 27
M  V30 27 2 27 28
M  V30 28 1 18 29
M  V30 29 2 29 30
M  V30 30 1 29 31
M  V30 31 1 9 4
M  V30 32 1 31 14
M  V30 33 1 28 20
M  V30 34 1 1 32
M  V30 35 1 1 33
M  V30 36 1 1 34
M  V30 37 1 3 35
M  V30 38 1 3 36
M  V30 39 1 3 37
M  V30 40 1 5 38
M  V30 41 1 6 39
M  V30 42 1 7 40
M  V30 43 1 8 41
M  V30 44 1 13 42
M  V30 45 1 13 43
M  V30 46 1 15 44
M  V30 47 1 15 45
M  V30 48 1 16 46
M  V30 49 1 17 47
M  V30 50 1 17 48
M  V30 51 1 19 49
M  V30 52 1 21 50
M  V30 53 1 22 51
M  V30 54 1 27 52
M  V30 55 1 28 53
M  V30 END BOND
M  V30 END CTAB
M  END
>  <Dataset>  (43) 
ChEMBL_Kinases

>  <Ligand_Instance>  (43) 
nan

>  <PDB_ID>  (43) 
nan

>  <Standardized_SMILES>  (43) 
CN(C)c1ccccc1C(=O)OCC1(CO)C/C(=C\c2ccc([N+](=O)[O-])cc2)C(=O)O1

>  <Name>  (43) 
nan

>  <Pocket>  (43) 
nan

>  <ATP_Site>  (43) 
nan

>  <Peripheral>  (43) 
nan

>  <Num_H_Atoms_ProtBoundConf>  (43) 
nan

>  <Num_Resolved_Atoms>  (43) 
nan

>  <Num_Not_Resolved_Atoms>  (43) 
nan

$$$$
CHEMBL511846
     RDKit          3D

  0  0  0  0  0  0  0  0  0  0999 V3000
M  V30 BEGIN CTAB
M  V30 COUNTS 62 62 0 0 0
M  V30 BEGIN ATOM
M  V30 1 C 1.662628 -4.168858 2.157195 0
M  V30 2 C 3.167051 -4.001969 1.923634 0
M  V30 3 C 3.729284 -3.009032 2.951144 0
M  V30 4 C 3.061355 -1.682173 2.810763 0
M  V30 5 C 3.597619 -0.680479 3.816702 0
M  V30 6 C 2.901149 0.664314 3.655995 0
M  V30 7 C 3.188718 1.115257 2.262453 0
M  V30 8 O 4.235349 1.725943 1.948365 0
M  V30 9 O 2.305938 0.883368 1.218072 0
M  V30 10 C 2.645419 1.337420 -0.056171 0
M  V30 11 C 1.597630 1.008085 -1.095555 0
M  V30 12 C 1.991720 1.555660 -2.449548 0
M  V30 13 O 1.015090 1.179903 -3.371456 0
M  V30 14 C 0.248535 1.565261 -0.743352 0
M  V30 15 C -0.669099 0.409455 -0.984503 0
M  V30 16 C -1.952039 0.276302 -1.256246 0
M  V30 17 C -2.774604 -0.909143 -1.479587 0
M  V30 18 C -3.536307 -0.819290 -2.815324 0
M  V30 19 C -4.341778 -2.100601 -2.919473 0
M  V30 20 C -3.897322 -0.978343 -0.436639 0
M  V30 21 C -3.333604 -1.049099 0.957586 0
M  V30 22 C -4.537686 -1.114085 1.906439 0
M  V30 23 C -5.407293 0.095893 1.760924 0
M  V30 24 C 0.165493 -0.778763 -0.857237 0
M  V30 25 O -0.199989 -1.932158 -0.575315 0
M  V30 26 O 1.496340 -0.398669 -1.112751 0
M  V30 27 H 1.283441 -5.142769 1.814751 0
M  V30 28 H 1.412915 -3.959935 3.224407 0
M  V30 29 H 1.142795 -3.393539 1.524568 0
M  V30 30 H 3.373516 -3.633588 0.898324 0
M  V30 31 H 3.660082 -4.983264 2.039095 0
M  V30 32 H 4.822706 -2.949518 2.795698 0
M  V30 33 H 3.589441 -3.424674 3.963554 0
M  V30 34 H 1.975081 -1.804320 3.010313 0
M  V30 35 H 3.271717 -1.281548 1.803121 0
M  V30 36 H 4.673532 -0.497633 3.549848 0
M  V30 37 H 3.559956 -1.077811 4.833323 0
M  V30 38 H 1.845048 0.655070 3.917712 0
M  V30 39 H 3.481082 1.358949 4.329867 0
M  V30 40 H 3.648715 1.001862 -0.385342 0
M  V30 41 H 2.708680 2.449747 -0.023884 0
M  V30 42 H 3.003189 1.226399 -2.730968 0
M  V30 43 H 2.008539 2.662399 -2.450251 0
M  V30 44 H 0.420866 1.933685 -3.611675 0
M  V30 45 H 0.179687 1.857564 0.345826 0
M  V30 46 H -0.047742 2.455976 -1.308992 0
M  V30 47 H -2.493957 1.232110 -1.326182 0
M  V30 48 H -2.288274 -1.875642 -1.479494 0
M  V30 49 H -2.869650 -0.669605 -3.666525 0
M  V30 50 H -4.235577 0.062279 -2.794159 0
M  V30 51 H -3.878605 -2.942066 -2.346104 0
M  V30 52 H -4.434813 -2.440045 -3.975152 0
M  V30 53 H -5.334283 -1.927426 -2.457356 0
M  V30 54 H -4.526381 -0.088906 -0.570243 0
M  V30 55 H -4.520390 -1.872881 -0.588116 0
M  V30 56 H -2.759285 -1.991272 1.042794 0
M  V30 57 H -2.753851 -0.173433 1.256134 0
M  V30 58 H -4.152960 -1.157556 2.936127 0
M  V30 59 H -5.167102 -2.005222 1.672481 0
M  V30 60 H -6.092218 0.060363 0.909135 0
M  V30 61 H -5.928437 0.335827 2.730525 0
M  V30 62 H -4.738241 0.983982 1.584432 0
M  V30 END ATOM
M  V30 BEGIN BOND
M  V30 1 1 1 2
M  V30 2 1 2 3
M  V30 3 1 3 4
M  V30 4 1 4 5
M  V30 5 1 5 6
M  V30 6 1 6 7
M  V30 7 2 7 8
M  V30 8 1 7 9
M  V30 9 1 9 10
M  V30 10 1 10 11
M  V30 11 1 11 12
M  V30 12 1 12 13
M  V30 13 1 11 14
M  V30 14 1 14 15
M  V30 15 2 15 16
M  V30 16 1 16 17
M  V30 17 1 17 18
M  V30 18 1 18 19
M  V30 19 1 17 20
M  V30 20 1 20 21
M  V30 21 1 21 22
M  V30 22 1 22 23
M  V30 23 1 15 24
M  V30 24 2 24 25
M  V30 25 1 24 26
M  V30 26 1 26 11
M  V30 27 1 1 27
M  V30 28 1 1 28
M  V30 29 1 1 29
M  V30 30 1 2 30
M  V30 31 1 2 31
M  V30 32 1 3 32
M  V30 33 1 3 33
M  V30 34 1 4 34
M  V30 35 1 4 35
M  V30 36 1 5 36
M  V30 37 1 5 37
M  V30 38 1 6 38
M  V30 39 1 6 39
M  V30 40 1 10 40
M  V30 41 1 10 41
M  V30 42 1 12 42
M  V30 43 1 12 43
M  V30 44 1 13 44
M  V30 45 1 14 45
M  V30 46 1 14 46
M  V30 47 1 16 47
M  V30 48 1 17 48
M  V30 49 1 18 49
M  V30 50 1 18 50
M  V30 51 1 19 51
M  V30 52 1 19 52
M  V30 53 1 19 53
M  V30 54 1 20 54
M  V30 55 1 20 55
M  V30 56 1 21 56
M  V30 57 1 21 57
M  V30 58 1 22 58
M  V30 59 1 22 59
M  V30 60 1 23 60
M  V30 61 1 23 61
M  V30 62 1 23 62
M  V30 END BOND
M  V30 END CTAB
M  END
>  <Dataset>  (44) 
ChEMBL_Kinases

>  <Ligand_Instance>  (44) 
nan

>  <PDB_ID>  (44) 
nan

>  <Standardized_SMILES>  (44) 
CCCCCCC(=O)OCC1(CO)C/C(=C/C(CC)CCCC)C(=O)O1

>  <Name>  (44) 
nan

>  <Pocket>  (44) 
nan

>  <ATP_Site>  (44) 
nan

>  <Peripheral>  (44) 
nan

>  <Num_H_Atoms_ProtBoundConf>  (44) 
nan

>  <Num_Resolved_Atoms>  (44) 
nan

>  <Num_Not_Resolved_Atoms>  (44) 
nan

$$$$
CHEMBL3734985
     RDKit          3D

  0  0  0  0  0  0  0  0  0  0999 V3000
M  V30 BEGIN CTAB
M  V30 COUNTS 54 57 0 0 0
M  V30 BEGIN ATOM
M  V30 1 C 3.721876 -4.124068 1.524156 0
M  V30 2 O 4.939757 -4.036137 0.775045 0
M  V30 3 C 5.270118 -2.913947 0.030263 0
M  V30 4 C 6.466362 -2.868221 -0.689069 0
M  V30 5 C 6.762093 -1.747852 -1.413891 0
M  V30 6 C 5.962163 -0.626142 -1.501333 0
M  V30 7 N 5.924002 0.583136 -2.079232 0
M  V30 8 N 4.802830 1.213271 -1.738257 0
M  V30 9 C 4.070846 0.440519 -0.927907 0
M  V30 10 C 2.821695 0.992003 -0.474590 0
M  V30 11 O 2.457546 2.121673 -0.965111 0
M  V30 12 N 1.841427 0.603764 0.412255 0
M  V30 13 C 0.649164 1.338657 0.705722 0
M  V30 14 C -0.199883 0.626683 1.733870 0
M  V30 15 C -1.439732 1.449334 1.991675 0
M  V30 16 C -2.584164 0.824792 1.212039 0
M  V30 17 N -3.011651 -0.386394 1.821174 0
M  V30 18 C -3.835830 -1.258483 1.083512 0
M  V30 19 C -5.176259 -0.857615 0.727840 0
M  V30 20 C -5.939294 0.212408 1.112618 0
M  V30 21 C -7.232508 0.419066 0.660665 0
M  V30 22 C -7.815347 -0.488624 -0.230284 0
M  V30 23 Cl -9.453492 -0.216488 -0.792416 0
M  V30 24 C -7.070254 -1.567436 -0.628978 0
M  V30 25 C -5.781431 -1.754276 -0.165793 0
M  V30 26 Cl -5.009951 -3.212642 -0.812427 0
M  V30 27 C -1.832507 -1.146067 2.192578 0
M  V30 28 C -0.642166 -0.750727 1.312177 0
M  V30 29 C 4.791318 -0.717562 -0.773401 0
M  V30 30 C 4.452383 -1.809358 -0.037794 0
M  V30 31 H 3.661880 -3.310525 2.264423 0
M  V30 32 H 2.905597 -4.067275 0.767576 0
M  V30 33 H 3.702037 -5.085717 2.046168 0
M  V30 34 H 7.125130 -3.724799 -0.649697 0
M  V30 35 H 7.687493 -1.703063 -1.974975 0
M  V30 36 H 6.679359 0.923078 -2.688902 0
M  V30 37 H 2.002735 -0.288401 0.893526 0
M  V30 38 H 0.946530 2.308661 1.208091 0
M  V30 39 H 0.058730 1.648451 -0.180640 0
M  V30 40 H 0.430858 0.587376 2.656841 0
M  V30 41 H -1.301267 2.497128 1.643795 0
M  V30 42 H -1.666662 1.456551 3.080271 0
M  V30 43 H -2.252780 0.610293 0.173077 0
M  V30 44 H -3.331337 1.628005 1.119186 0
M  V30 45 H -3.923458 -2.211551 1.687926 0
M  V30 46 H -3.281566 -1.594938 0.167954 0
M  V30 47 H -5.461035 0.878576 1.796343 0
M  V30 48 H -7.755802 1.292379 1.019024 0
M  V30 49 H -7.583488 -2.217401 -1.309805 0
M  V30 50 H -1.956026 -2.247715 1.990713 0
M  V30 51 H -1.549526 -1.062567 3.240931 0
M  V30 52 H -0.870416 -0.867859 0.258524 0
M  V30 53 H 0.174218 -1.450449 1.616698 0
M  V30 54 H 3.540642 -1.864962 0.516543 0
M  V30 END ATOM
M  V30 BEGIN BOND
M  V30 1 1 1 2
M  V30 2 1 2 3
M  V30 3 2 3 4
M  V30 4 1 4 5
M  V30 5 2 5 6
M  V30 6 1 6 7
M  V30 7 1 7 8
M  V30 8 2 8 9
M  V30 9 1 9 10
M  V30 10 2 10 11
M  V30 11 1 10 12
M  V30 12 1 12 13
M  V30 13 1 13 14
M  V30 14 1 14 15
M  V30 15 1 15 16
M  V30 16 1 16 17
M  V30 17 1 17 18
M  V30 18 1 18 19
M  V30 19 2 19 20
M  V30 20 1 20 21
M  V30 21 2 21 22
M  V30 22 1 22 23
M  V30 23 1 22 24
M  V30 24 2 24 25
M  V30 25 1 25 26
M  V30 26 1 17 27
M  V30 27 1 27 28
M  V30 28 1 9 29
M  V30 29 2 29 30
M  V30 30 1 30 3
M  V30 31 1 29 6
M  V30 32 1 28 14
M  V30 33 1 25 19
M  V30 34 1 1 31
M  V30 35 1 1 32
M  V30 36 1 1 33
M  V30 37 1 4 34
M  V30 38 1 5 35
M  V30 39 1 7 36
M  V30 40 1 12 37
M  V30 41 1 13 38
M  V30 42 1 13 39
M  V30 43 1 14 40
M  V30 44 1 15 41
M  V30 45 1 15 42
M  V30 46 1 16 43
M  V30 47 1 16 44
M  V30 48 1 18 45
M  V30 49 1 18 46
M  V30 50 1 20 47
M  V30 51 1 21 48
M  V30 52 1 24 49
M  V30 53 1 27 50
M  V30 54 1 27 51
M  V30 55 1 28 52
M  V30 56 1 28 53
M  V30 57 1 30 54
M  V30 END BOND
M  V30 END CTAB
M  END
>  <Dataset>  (45) 
ChEMBL_Kinases

>  <Ligand_Instance>  (45) 
nan

>  <PDB_ID>  (45) 
nan

>  <Standardized_SMILES>  (45) 
COc1ccc2[nH]nc(C(=O)NCC3CCN(Cc4ccc(Cl)cc4Cl)CC3)c2c1

>  <Name>  (45) 
nan

>  <Pocket>  (45) 
nan

>  <ATP_Site>  (45) 
nan

>  <Peripheral>  (45) 
nan

>  <Num_H_Atoms_ProtBoundConf>  (45) 
nan

>  <Num_Resolved_Atoms>  (45) 
nan

>  <Num_Not_Resolved_Atoms>  (45) 
nan

$$$$
CHEMBL3735529
     RDKit          3D

  0  0  0  0  0  0  0  0  0  0999 V3000
M  V30 BEGIN CTAB
M  V30 COUNTS 60 63 0 0 0
M  V30 BEGIN ATOM
M  V30 1 C 3.653469 -1.214671 7.047478 0
M  V30 2 C 4.839434 -0.936282 6.146996 0
M  V30 3 O 4.492491 -0.198702 5.011230 0
M  V30 4 C 3.931419 1.063730 5.018675 0
M  V30 5 O 3.692643 1.641550 6.094534 0
M  V30 6 C 3.608285 1.742312 3.749157 0
M  V30 7 C 3.048098 2.998455 3.678907 0
M  V30 8 C 2.922914 3.228867 2.322913 0
M  V30 9 C 3.397553 2.136124 1.628295 0
M  V30 10 C 3.523782 1.797568 0.176379 0
M  V30 11 N 2.380776 1.152503 -0.288570 0
M  V30 12 C 1.143409 1.789553 -0.229828 0
M  V30 13 C 0.148374 0.915141 0.520300 0
M  V30 14 C 0.686036 -0.501472 0.515108 0
M  V30 15 C -0.165910 -1.500505 1.189652 0
M  V30 16 N -1.490968 -1.697476 0.708695 0
M  V30 17 C -2.084927 -2.134429 -0.495331 0
M  V30 18 O -1.300535 -2.452089 -1.418424 0
M  V30 19 C -3.519875 -2.224807 -0.692869 0
M  V30 20 N -4.479117 -1.914477 0.211299 0
M  V30 21 N -5.675924 -2.126772 -0.334233 0
M  V30 22 C -5.496751 -2.580762 -1.608835 0
M  V30 23 C -6.377702 -2.948662 -2.600864 0
M  V30 24 C -5.953136 -3.385730 -3.837486 0
M  V30 25 C -4.582947 -3.439014 -4.040238 0
M  V30 26 O -4.070626 -3.859701 -5.234316 0
M  V30 27 C -4.752936 -4.276544 -6.371043 0
M  V30 28 C -3.651314 -3.074765 -3.060417 0
M  V30 29 C -4.139108 -2.646985 -1.847265 0
M  V30 30 C 1.166678 -0.814025 -0.859143 0
M  V30 31 C 2.489591 -0.034317 -1.056795 0
M  V30 32 O 3.796251 1.274485 2.539165 0
M  V30 33 H 3.008960 -0.341020 7.155867 0
M  V30 34 H 4.049201 -1.597283 8.013751 0
M  V30 35 H 3.024028 -2.044501 6.631741 0
M  V30 36 H 5.181665 -1.943194 5.769230 0
M  V30 37 H 5.699316 -0.529980 6.721482 0
M  V30 38 H 2.749664 3.698176 4.459132 0
M  V30 39 H 2.535520 4.080336 1.797721 0
M  V30 40 H 4.484514 1.302646 -0.014243 0
M  V30 41 H 3.603679 2.789615 -0.358530 0
M  V30 42 H 0.803819 1.993505 -1.287482 0
M  V30 43 H 1.209116 2.734958 0.321806 0
M  V30 44 H -0.074413 1.296413 1.517644 0
M  V30 45 H -0.775906 0.882256 -0.127530 0
M  V30 46 H 1.635269 -0.429483 1.152665 0
M  V30 47 H 0.373249 -2.500107 1.050391 0
M  V30 48 H -0.126632 -1.352239 2.283174 0
M  V30 49 H -2.230265 -1.459582 1.420706 0
M  V30 50 H -6.610869 -1.971913 0.135481 0
M  V30 51 H -7.458987 -2.891834 -2.399457 0
M  V30 52 H -6.642444 -3.676584 -4.622213 0
M  V30 53 H -5.232845 -3.496851 -6.970571 0
M  V30 54 H -4.005176 -4.802717 -7.033381 0
M  V30 55 H -5.479568 -5.076496 -6.104186 0
M  V30 56 H -2.586400 -3.132084 -3.262692 0
M  V30 57 H 1.331857 -1.870069 -1.090004 0
M  V30 58 H 0.410809 -0.398275 -1.587733 0
M  V30 59 H 3.361297 -0.608373 -0.758574 0
M  V30 60 H 2.538787 0.221614 -2.132454 0
M  V30 END ATOM
M  V30 BEGIN BOND
M  V30 1 1 1 2
M  V30 2 1 2 3
M  V30 3 1 3 4
M  V30 4 2 4 5
M  V30 5 1 4 6
M  V30 6 2 6 7
M  V30 7 1 7 8
M  V30 8 2 8 9
M  V30 9 1 9 10
M  V30 10 1 10 11
M  V30 11 1 11 12
M  V30 12 1 12 13
M  V30 13 1 13 14
M  V30 14 1 14 15
M  V30 15 1 15 16
M  V30 16 1 16 17
M  V30 17 2 17 18
M  V30 18 1 17 19
M  V30 19 2 19 20
M  V30 20 1 20 21
M  V30 21 1 21 22
M  V30 22 2 22 23
M  V30 23 1 23 24
M  V30 24 2 24 25
M  V30 25 1 25 26
M  V30 26 1 26 27
M  V30 27 1 25 28
M  V30 28 2 28 29
M  V30 29 1 14 30
M  V30 30 1 30 31
M  V30 31 1 9 32
M  V30 32 1 32 6
M  V30 33 1 31 11
M  V30 34 1 29 19
M  V30 35 1 29 22
M  V30 36 1 1 33
M  V30 37 1 1 34
M  V30 38 1 1 35
M  V30 39 1 2 36
M  V30 40 1 2 37
M  V30 41 1 7 38
M  V30 42 1 8 39
M  V30 43 1 10 40
M  V30 44 1 10 41
M  V30 45 1 12 42
M  V30 46 1 12 43
M  V30 47 1 13 44
M  V30 48 1 13 45
M  V30 49 1 14 46
M  V30 50 1 15 47
M  V30 51 1 15 48
M  V30 52 1 16 49
M  V30 53 1 21 50
M  V30 54 1 23 51
M  V30 55 1 24 52
M  V30 56 1 27 53
M  V30 57 1 27 54
M  V30 58 1 27 55
M  V30 59 1 28 56
M  V30 60 1 30 57
M  V30 61 1 30 58
M  V30 62 1 31 59
M  V30 63 1 31 60
M  V30 END BOND
M  V30 END CTAB
M  END
>  <Dataset>  (46) 
ChEMBL_Kinases

>  <Ligand_Instance>  (46) 
nan

>  <PDB_ID>  (46) 
nan

>  <Standardized_SMILES>  (46) 
CCOC(=O)c1ccc(CN2CCC(CNC(=O)c3n[nH]c4ccc(OC)cc34)CC2)o1

>  <Name>  (46) 
nan

>  <Pocket>  (46) 
nan

>  <ATP_Site>  (46) 
nan

>  <Peripheral>  (46) 
nan

>  <Num_H_Atoms_ProtBoundConf>  (46) 
nan

>  <Num_Resolved_Atoms>  (46) 
nan

>  <Num_Not_Resolved_Atoms>  (46) 
nan

$$$$
CHEMBL3735527
     RDKit          3D

  0  0  0  0  0  0  0  0  0  0999 V3000
M  V30 BEGIN CTAB
M  V30 COUNTS 61 63 0 0 0
M  V30 BEGIN ATOM
M  V30 1 C -1.646147 -1.866045 4.135241 0
M  V30 2 C -0.367791 -1.092248 3.998640 0
M  V30 3 C 0.636749 -1.411491 3.219366 0
M  V30 4 C 1.843420 -0.588678 3.157744 0
M  V30 5 O 1.790018 0.412371 3.920999 0
M  V30 6 N 2.946797 -0.889860 2.327349 0
M  V30 7 C 4.101464 0.025902 2.351822 0
M  V30 8 C 3.629176 1.422419 1.920109 0
M  V30 9 C 3.070412 1.343262 0.542224 0
M  V30 10 N 2.539939 2.611833 0.067735 0
M  V30 11 C 2.389045 2.611291 -1.339175 0
M  V30 12 C 1.049642 2.727600 -1.939464 0
M  V30 13 C -0.107143 2.341276 -1.073658 0
M  V30 14 C -0.405970 0.893755 -1.231388 0
M  V30 15 N -1.509241 0.388926 -0.454768 0
M  V30 16 C -1.669382 -1.021345 -0.738073 0
M  V30 17 O -0.827649 -1.480630 -1.577853 0
M  V30 18 C -2.693021 -1.856240 -0.134901 0
M  V30 19 N -3.618315 -1.511157 0.761050 0
M  V30 20 N -4.354543 -2.598788 1.030355 0
M  V30 21 C -3.925329 -3.655690 0.323935 0
M  V30 22 C -4.322637 -4.992895 0.224701 0
M  V30 23 C -3.637665 -5.849346 -0.634819 0
M  V30 24 C -2.570346 -5.381718 -1.385880 0
M  V30 25 O -2.035910 -6.385189 -2.166865 0
M  V30 26 C -0.950221 -6.234705 -3.044070 0
M  V30 27 C -2.168489 -4.045221 -1.289617 0
M  V30 28 C -2.851800 -3.188331 -0.432205 0
M  V30 29 C 0.052741 2.874429 0.290514 0
M  V30 30 C 1.419510 2.952031 0.867458 0
M  V30 31 H -1.838528 -2.348494 3.156978 0
M  V30 32 H -2.482212 -1.186170 4.412619 0
M  V30 33 H -1.581892 -2.637702 4.915903 0
M  V30 34 H -0.334288 -0.197620 4.631204 0
M  V30 35 H 0.499961 -2.307834 2.643208 0
M  V30 36 H 2.918343 -1.748825 1.723216 0
M  V30 37 H 4.507647 0.039593 3.386411 0
M  V30 38 H 4.867005 -0.298748 1.626843 0
M  V30 39 H 3.024700 1.868804 2.685082 0
M  V30 40 H 4.583618 2.032020 1.886652 0
M  V30 41 H 3.837827 0.914515 -0.149108 0
M  V30 42 H 2.250457 0.570977 0.577594 0
M  V30 43 H 3.063802 3.382739 -1.827401 0
M  V30 44 H 2.848441 1.641163 -1.714758 0
M  V30 45 H 0.998482 2.088739 -2.870400 0
M  V30 46 H 0.906587 3.790625 -2.294395 0
M  V30 47 H -1.004411 2.878586 -1.530121 0
M  V30 48 H -0.641176 0.647381 -2.305354 0
M  V30 49 H 0.515845 0.284632 -1.031712 0
M  V30 50 H -2.218139 0.738558 0.241680 0
M  V30 51 H -5.155964 -2.590809 1.707107 0
M  V30 52 H -5.166812 -5.270244 0.845904 0
M  V30 53 H -4.034140 -6.850165 -0.629474 0
M  V30 54 H -0.783744 -5.193914 -3.390878 0
M  V30 55 H -0.019320 -6.560609 -2.528622 0
M  V30 56 H -1.120893 -6.844204 -3.963280 0
M  V30 57 H -1.338429 -3.776099 -1.904995 0
M  V30 58 H -0.387456 3.929058 0.319465 0
M  V30 59 H -0.589331 2.349723 1.051084 0
M  V30 60 H 1.440974 2.412387 1.871465 0
M  V30 61 H 1.597917 4.025801 1.197011 0
M  V30 END ATOM
M  V30 BEGIN BOND
M  V30 1 1 1 2
M  V30 2 2 2 3
M  V30 3 1 3 4
M  V30 4 2 4 5
M  V30 5 1 4 6
M  V30 6 1 6 7
M  V30 7 1 7 8
M  V30 8 1 8 9
M  V30 9 1 9 10
M  V30 10 1 10 11
M  V30 11 1 11 12
M  V30 12 1 12 13
M  V30 13 1 13 14
M  V30 14 1 14 15
M  V30 15 1 15 16
M  V30 16 2 16 17
M  V30 17 1 16 18
M  V30 18 2 18 19
M  V30 19 1 19 20
M  V30 20 1 20 21
M  V30 21 2 21 22
M  V30 22 1 22 23
M  V30 23 2 23 24
M  V30 24 1 24 25
M  V30 25 1 25 26
M  V30 26 1 24 27
M  V30 27 2 27 28
M  V30 28 1 13 29
M  V30 29 1 29 30
M  V30 30 1 30 10
M  V30 31 1 28 18
M  V30 32 1 28 21
M  V30 33 1 1 31
M  V30 34 1 1 32
M  V30 35 1 1 33
M  V30 36 1 2 34
M  V30 37 1 3 35
M  V30 38 1 6 36
M  V30 39 1 7 37
M  V30 40 1 7 38
M  V30 41 1 8 39
M  V30 42 1 8 40
M  V30 43 1 9 41
M  V30 44 1 9 42
M  V30 45 1 11 43
M  V30 46 1 11 44
M  V30 47 1 12 45
M  V30 48 1 12 46
M  V30 49 1 13 47
M  V30 50 1 14 48
M  V30 51 1 14 49
M  V30 52 1 15 50
M  V30 53 1 20 51
M  V30 54 1 22 52
M  V30 55 1 23 53
M  V30 56 1 26 54
M  V30 57 1 26 55
M  V30 58 1 26 56
M  V30 59 1 27 57
M  V30 60 1 29 58
M  V30 61 1 29 59
M  V30 62 1 30 60
M  V30 63 1 30 61
M  V30 END BOND
M  V30 END CTAB
M  END
>  <Dataset>  (47) 
ChEMBL_Kinases

>  <Ligand_Instance>  (47) 
nan

>  <PDB_ID>  (47) 
nan

>  <Standardized_SMILES>  (47) 
C/C=C/C(=O)NCCCN1CCC(CNC(=O)c2n[nH]c3ccc(OC)cc23)CC1

>  <Name>  (47) 
nan

>  <Pocket>  (47) 
nan

>  <ATP_Site>  (47) 
nan

>  <Peripheral>  (47) 
nan

>  <Num_H_Atoms_ProtBoundConf>  (47) 
nan

>  <Num_Resolved_Atoms>  (47) 
nan

>  <Num_Not_Resolved_Atoms>  (47) 
nan

$$$$
CHEMBL3735522
     RDKit          3D

  0  0  0  0  0  0  0  0  0  0999 V3000
M  V30 BEGIN CTAB
M  V30 COUNTS 60 63 0 0 0
M  V30 BEGIN ATOM
M  V30 1 C -3.358367 0.503970 2.315587 0
M  V30 2 O -2.121467 -0.056671 2.511392 0
M  V30 3 C -1.985035 -0.894396 3.604147 0
M  V30 4 C -0.574000 -1.383769 3.690027 0
M  V30 5 N -0.018336 -2.091628 2.654445 0
M  V30 6 C 1.400217 -2.336844 2.656737 0
M  V30 7 C 1.954717 -1.308025 1.658294 0
M  V30 8 C 1.253443 -1.478929 0.386921 0
M  V30 9 C 0.506743 -0.409112 -0.175591 0
M  V30 10 N 0.909037 0.857985 -0.611286 0
M  V30 11 C 1.869052 0.930717 -1.631646 0
M  V30 12 O 2.521370 -0.057038 -2.163207 0
M  V30 13 C 2.402440 2.085407 -2.411025 0
M  V30 14 N 3.360138 2.755824 -2.983338 0
M  V30 15 N 2.950971 3.568626 -3.898157 0
M  V30 16 C 1.636042 3.519008 -4.004996 0
M  V30 17 C 0.756020 4.148469 -4.843206 0
M  V30 18 C -0.520605 3.759941 -4.650635 0
M  V30 19 C -1.341136 2.980645 -3.947858 0
M  V30 20 C -2.252123 2.126477 -3.230994 0
M  V30 21 C -2.921285 2.475397 -2.060283 0
M  V30 22 N -3.549431 1.525166 -1.313730 0
M  V30 23 C -3.493425 0.239320 -1.737856 0
M  V30 24 C -2.889395 -0.281980 -2.831212 0
M  V30 25 O -2.873036 -1.617973 -3.130868 0
M  V30 26 C -2.253926 -2.288799 -4.185753 0
M  V30 27 C -2.290430 0.752535 -3.546649 0
M  V30 28 C -0.179009 2.443498 -3.157525 0
M  V30 29 C 1.252410 2.596723 -3.075029 0
M  V30 30 C 0.309912 -2.731426 0.352279 0
M  V30 31 C -0.676502 -2.580795 1.528385 0
M  V30 32 H -4.126122 -0.264798 2.149920 0
M  V30 33 H -3.639380 1.107246 3.226644 0
M  V30 34 H -3.279800 1.186915 1.433297 0
M  V30 35 H -2.743004 -1.676104 3.743900 0
M  V30 36 H -2.142821 -0.218485 4.484077 0
M  V30 37 H 0.019014 -0.427776 3.994070 0
M  V30 38 H -0.540890 -2.004483 4.658300 0
M  V30 39 H 1.827215 -2.201391 3.644314 0
M  V30 40 H 1.617505 -3.358400 2.254649 0
M  V30 41 H 1.721459 -0.298419 2.141875 0
M  V30 42 H 3.027554 -1.463274 1.589337 0
M  V30 43 H 2.021973 -1.823833 -0.390505 0
M  V30 44 H -0.111280 -0.895033 -1.071171 0
M  V30 45 H -0.405652 -0.203848 0.511274 0
M  V30 46 H 0.624387 1.824086 -0.268124 0
M  V30 47 H 3.539170 4.228214 -4.465517 0
M  V30 48 H 0.931564 4.897607 -5.575642 0
M  V30 49 H -1.438792 4.103448 -5.216120 0
M  V30 50 H -2.943516 3.534781 -1.784328 0
M  V30 51 H -4.049374 -0.374667 -1.044795 0
M  V30 52 H -1.465980 -1.626158 -4.689533 0
M  V30 53 H -1.668543 -3.198130 -3.782425 0
M  V30 54 H -2.954161 -2.659407 -4.928884 0
M  V30 55 H -1.747380 0.462961 -4.447008 0
M  V30 56 H -0.383877 1.614470 -2.356824 0
M  V30 57 H 0.879586 -3.659011 0.397427 0
M  V30 58 H -0.244754 -2.661909 -0.595609 0
M  V30 59 H -1.531126 -2.049147 1.160618 0
M  V30 60 H -0.989490 -3.639444 1.705407 0
M  V30 END ATOM
M  V30 BEGIN BOND
M  V30 1 1 1 2
M  V30 2 1 2 3
M  V30 3 1 3 4
M  V30 4 1 4 5
M  V30 5 1 5 6
M  V30 6 1 6 7
M  V30 7 1 7 8
M  V30 8 1 8 9
M  V30 9 1 9 10
M  V30 10 1 10 11
M  V30 11 2 11 12
M  V30 12 1 11 13
M  V30 13 2 13 14
M  V30 14 1 14 15
M  V30 15 1 15 16
M  V30 16 2 16 17
M  V30 17 1 17 18
M  V30 18 2 18 19
M  V30 19 1 19 20
M  V30 20 2 20 21
M  V30 21 1 21 22
M  V30 22 2 22 23
M  V30 23 1 23 24
M  V30 24 1 24 25
M  V30 25 1 25 26
M  V30 26 2 24 27
M  V30 27 1 19 28
M  V30 28 2 28 29
M  V30 29 1 8 30
M  V30 30 1 30 31
M  V30 31 1 31 5
M  V30 32 1 29 13
M  V30 33 1 29 16
M  V30 34 1 27 20
M  V30 35 1 1 32
M  V30 36 1 1 33
M  V30 37 1 1 34
M  V30 38 1 3 35
M  V30 39 1 3 36
M  V30 40 1 4 37
M  V30 41 1 4 38
M  V30 42 1 6 39
M  V30 43 1 6 40
M  V30 44 1 7 41
M  V30 45 1 7 42
M  V30 46 1 8 43
M  V30 47 1 9 44
M  V30 48 1 9 45
M  V30 49 1 10 46
M  V30 50 1 15 47
M  V30 51 1 17 48
M  V30 52 1 18 49
M  V30 53 1 21 50
M  V30 54 1 23 51
M  V30 55 1 26 52
M  V30 56 1 26 53
M  V30 57 1 26 54
M  V30 58 1 27 55
M  V30 59 1 28 56
M  V30 60 1 30 57
M  V30 61 1 30 58
M  V30 62 1 31 59
M  V30 63 1 31 60
M  V30 END BOND
M  V30 END CTAB
M  END
>  <Dataset>  (48) 
ChEMBL_Kinases

>  <Ligand_Instance>  (48) 
nan

>  <PDB_ID>  (48) 
nan

>  <Standardized_SMILES>  (48) 
COCCN1CCC(CNC(=O)c2n[nH]c3ccc(-c4cncc(OC)c4)cc23)CC1

>  <Name>  (48) 
nan

>  <Pocket>  (48) 
nan

>  <ATP_Site>  (48) 
nan

>  <Peripheral>  (48) 
nan

>  <Num_H_Atoms_ProtBoundConf>  (48) 
nan

>  <Num_Resolved_Atoms>  (48) 
nan

>  <Num_Not_Resolved_Atoms>  (48) 
nan

$$$$
CHEMBL576168
     RDKit          3D

  0  0  0  0  0  0  0  0  0  0999 V3000
M  V30 BEGIN CTAB
M  V30 COUNTS 46 49 0 0 0
M  V30 BEGIN ATOM
M  V30 1 C 1.096206 -2.990073 -4.105291 0
M  V30 2 O 1.062639 -1.625324 -4.253843 0
M  V30 3 C 0.948611 -0.694419 -3.243842 0
M  V30 4 C 0.882166 -1.320538 -1.999947 0
M  V30 5 C 0.765003 -0.596184 -0.839945 0
M  V30 6 C 0.722496 0.755326 -1.046899 0
M  V30 7 C 0.789325 1.294749 -2.252203 0
M  V30 8 C 0.906743 0.751983 -3.499655 0
M  V30 9 O 1.014624 0.757843 -4.805644 0
M  V30 10 C 1.016855 1.971078 -5.541225 0
M  V30 11 C 0.663442 1.412485 0.197239 0
M  V30 12 N 0.623426 2.504396 0.961071 0
M  V30 13 N 0.612720 2.171617 2.236845 0
M  V30 14 C 0.644397 0.753219 2.444295 0
M  V30 15 N 0.620669 0.968667 3.834180 0
M  V30 16 C 0.582927 -0.008449 4.879816 0
M  V30 17 C -0.546666 -0.954693 4.878745 0
M  V30 18 C -0.697933 -2.195667 4.308403 0
M  V30 19 C 0.591588 -2.704178 3.765350 0
M  V30 20 C -1.863924 -2.925850 4.317689 0
M  V30 21 C -2.963830 -2.358590 4.952510 0
M  V30 22 C -2.835705 -1.105335 5.538389 0
M  V30 23 C -1.634074 -0.379623 5.515041 0
M  V30 24 Cl -1.712206 1.182532 6.327619 0
M  V30 25 C 0.665859 0.558591 1.187268 0
M  V30 26 C 0.671344 -0.850093 0.643083 0
M  V30 27 H 0.392654 -3.433461 -3.386965 0
M  V30 28 H 0.870317 -3.400492 -5.156426 0
M  V30 29 H 2.141219 -3.384027 -3.939359 0
M  V30 30 H 0.917837 -2.390932 -1.741481 0
M  V30 31 H 0.751495 2.370511 -2.485030 0
M  V30 32 H 1.075258 2.841812 -4.815224 0
M  V30 33 H 0.123189 2.132466 -6.166995 0
M  V30 34 H 1.981504 2.024896 -6.085735 0
M  V30 35 H 0.605243 3.471668 0.467081 0
M  V30 36 H 0.658014 1.734787 4.528330 0
M  V30 37 H 1.515818 -0.691181 4.693930 0
M  V30 38 H 0.742773 0.326946 5.904067 0
M  V30 39 H 0.446558 -3.654721 3.219747 0
M  V30 40 H 1.156445 -2.004032 3.173166 0
M  V30 41 H 1.250642 -2.993194 4.636699 0
M  V30 42 H -1.862409 -3.894220 3.837498 0
M  V30 43 H -3.904514 -2.923302 4.979067 0
M  V30 44 H -3.761866 -0.767598 6.011074 0
M  V30 45 H 1.497687 -1.485057 0.957128 0
M  V30 46 H -0.336269 -1.300810 0.858277 0
M  V30 END ATOM
M  V30 BEGIN BOND
M  V30 1 1 1 2
M  V30 2 1 2 3
M  V30 3 2 3 4
M  V30 4 1 4 5
M  V30 5 2 5 6
M  V30 6 1 6 7
M  V30 7 2 7 8
M  V30 8 1 8 9
M  V30 9 1 9 10
M  V30 10 1 6 11
M  V30 11 1 11 12
M  V30 12 1 12 13
M  V30 13 2 13 14
M  V30 14 1 14 15
M  V30 15 1 15 16
M  V30 16 1 16 17
M  V30 17 2 17 18
M  V30 18 1 18 19
M  V30 19 1 18 20
M  V30 20 2 20 21
M  V30 21 1 21 22
M  V30 22 2 22 23
M  V30 23 1 23 24
M  V30 24 1 14 25
M  V30 25 1 25 26
M  V30 26 1 8 3
M  V30 27 2 25 11
M  V30 28 1 26 5
M  V30 29 1 23 17
M  V30 30 1 1 27
M  V30 31 1 1 28
M  V30 32 1 1 29
M  V30 33 1 4 30
M  V30 34 1 7 31
M  V30 35 1 10 32
M  V30 36 1 10 33
M  V30 37 1 10 34
M  V30 38 1 12 35
M  V30 39 1 15 36
M  V30 40 1 16 37
M  V30 41 1 16 38
M  V30 42 1 19 39
M  V30 43 1 19 40
M  V30 44 1 19 41
M  V30 45 1 20 42
M  V30 46 1 21 43
M  V30 47 1 22 44
M  V30 48 1 26 45
M  V30 49 1 26 46
M  V30 END BOND
M  V30 END CTAB
M  END
>  <Dataset>  (49) 
ChEMBL_Kinases

>  <Ligand_Instance>  (49) 
nan

>  <PDB_ID>  (49) 
nan

>  <Standardized_SMILES>  (49) 
COc1cc2c(cc1OC)-c1[nH]nc(NCc3c(C)cccc3Cl)c1C2

>  <Name>  (49) 
nan

>  <Pocket>  (49) 
nan

>  <ATP_Site>  (49) 
nan

>  <Peripheral>  (49) 
nan

>  <Num_H_Atoms_ProtBoundConf>  (49) 
nan

>  <Num_Resolved_Atoms>  (49) 
nan

>  <Num_Not_Resolved_Atoms>  (49) 
nan

$$$$
CHEMBL576165
     RDKit          3D

  0  0  0  0  0  0  0  0  0  0999 V3000
M  V30 BEGIN CTAB
M  V30 COUNTS 39 42 0 0 0
M  V30 BEGIN ATOM
M  V30 1 C 1.525281 -6.987710 0.055832 0
M  V30 2 C 1.225000 -5.554999 0.307051 0
M  V30 3 C 0.989201 -4.981876 1.550565 0
M  V30 4 C 0.763568 -3.649237 1.253916 0
M  V30 5 C 0.863546 -3.458793 -0.094963 0
M  V30 6 C 0.702543 -2.220153 -0.852080 0
M  V30 7 C 0.853021 -2.280308 -2.225213 0
M  V30 8 C 0.711773 -1.141940 -2.987749 0
M  V30 9 C 0.418846 0.048845 -2.350617 0
M  V30 10 O 0.226171 1.265333 -2.753059 0
M  V30 11 C -0.030907 2.102244 -1.799238 0
M  V30 12 C -0.010162 1.367188 -0.610469 0
M  V30 13 C -0.260293 1.983722 0.692510 0
M  V30 14 C 0.500821 1.742839 1.821305 0
M  V30 15 C 0.231062 2.346655 3.036275 0
M  V30 16 C -0.849337 3.231893 3.126452 0
M  V30 17 C -1.185306 3.903781 4.390040 0
M  V30 18 N -0.371679 3.622569 5.522741 0
M  V30 19 O -2.160897 4.708045 4.486859 0
M  V30 20 C -1.640705 3.504250 2.020999 0
M  V30 21 C -1.331380 2.875791 0.826953 0
M  V30 22 C 0.277434 0.064301 -0.982313 0
M  V30 23 C 0.408757 -1.048735 -0.169703 0
M  V30 24 O 1.141114 -4.630272 -0.616962 0
M  V30 25 H 1.869526 -7.497983 0.981825 0
M  V30 26 H 0.630553 -7.475272 -0.350327 0
M  V30 27 H 2.311430 -7.013689 -0.733386 0
M  V30 28 H 0.990187 -5.492134 2.508022 0
M  V30 29 H 0.545008 -2.907869 2.008187 0
M  V30 30 H 1.083074 -3.204663 -2.746127 0
M  V30 31 H 0.828599 -1.192172 -4.047033 0
M  V30 32 H -0.210880 3.144924 -1.997645 0
M  V30 33 H 1.342567 1.045331 1.726713 0
M  V30 34 H 0.844182 2.142675 3.914646 0
M  V30 35 H 0.478512 3.901348 6.055897 0
M  V30 36 H -1.001062 2.815475 5.810423 0
M  V30 37 H -2.459509 4.187863 2.128969 0
M  V30 38 H -1.954230 3.087509 -0.051312 0
M  V30 39 H 0.291533 -0.995579 0.888125 0
M  V30 END ATOM
M  V30 BEGIN BOND
M  V30 1 1 1 2
M  V30 2 2 2 3
M  V30 3 1 3 4
M  V30 4 2 4 5
M  V30 5 1 5 6
M  V30 6 2 6 7
M  V30 7 1 7 8
M  V30 8 2 8 9
M  V30 9 1 9 10
M  V30 10 1 10 11
M  V30 11 2 11 12
M  V30 12 1 12 13
M  V30 13 2 13 14
M  V30 14 1 14 15
M  V30 15 2 15 16
M  V30 16 1 16 17
M  V30 17 1 17 18
M  V30 18 2 17 19
M  V30 19 1 16 20
M  V30 20 2 20 21
M  V30 21 1 12 22
M  V30 22 2 22 23
M  V30 23 1 5 24
M  V30 24 1 24 2
M  V30 25 1 23 6
M  V30 26 1 22 9
M  V30 27 1 21 13
M  V30 28 1 1 25
M  V30 29 1 1 26
M  V30 30 1 1 27
M  V30 31 1 3 28
M  V30 32 1 4 29
M  V30 33 1 7 30
M  V30 34 1 8 31
M  V30 35 1 11 32
M  V30 36 1 14 33
M  V30 37 1 15 34
M  V30 38 1 18 35
M  V30 39 1 18 36
M  V30 40 1 20 37
M  V30 41 1 21 38
M  V30 42 1 23 39
M  V30 END BOND
M  V30 END CTAB
M  END
>  <Dataset>  (50) 
ChEMBL_Kinases

>  <Ligand_Instance>  (50) 
nan

>  <PDB_ID>  (50) 
nan

>  <Standardized_SMILES>  (50) 
Cc1ccc(-c2ccc3occ(-c4ccc(C(N)=O)cc4)c3c2)o1

>  <Name>  (50) 
nan

>  <Pocket>  (50) 
nan

>  <ATP_Site>  (50) 
nan

>  <Peripheral>  (50) 
nan

>  <Num_H_Atoms_ProtBoundConf>  (50) 
nan

>  <Num_Resolved_Atoms>  (50) 
nan

>  <Num_Not_Resolved_Atoms>  (50) 
nan

$$$$
CHEMBL3735500
     RDKit          3D

  0  0  0  0  0  0  0  0  0  0999 V3000
M  V30 BEGIN CTAB
M  V30 COUNTS 56 59 0 0 0
M  V30 BEGIN ATOM
M  V30 1 C -3.308167 2.906706 -3.590373 0
M  V30 2 O -3.527286 1.959236 -2.541584 0
M  V30 3 C -3.934465 0.655011 -2.797489 0
M  V30 4 O -4.138094 0.217400 -3.961863 0
M  V30 5 C -4.137268 -0.253589 -1.673844 0
M  V30 6 C -4.538311 -1.574722 -1.747997 0
M  V30 7 O -4.618459 -2.094295 -0.528255 0
M  V30 8 C -4.280632 -1.149656 0.346822 0
M  V30 9 C -4.209904 -1.224377 1.845840 0
M  V30 10 N -2.894785 -1.636566 2.260913 0
M  V30 11 C -2.890266 -1.689225 3.711625 0
M  V30 12 C -1.493573 -1.964536 4.200528 0
M  V30 13 C -0.843491 -3.156396 3.582682 0
M  V30 14 C 0.559101 -2.871490 3.094668 0
M  V30 15 N 0.644781 -1.847285 2.101597 0
M  V30 16 C 1.922522 -1.503146 1.576079 0
M  V30 17 O 2.962211 -2.113101 2.000048 0
M  V30 18 C 2.036119 -0.454515 0.555266 0
M  V30 19 N 0.997975 0.250648 0.038882 0
M  V30 20 N 1.461739 1.110943 -0.854893 0
M  V30 21 C 2.797170 0.948443 -0.902997 0
M  V30 22 C 3.708516 1.624249 -1.688542 0
M  V30 23 C 5.047356 1.295413 -1.578043 0
M  V30 24 C 5.427605 0.310521 -0.693699 0
M  V30 25 O 6.771543 0.021953 -0.622527 0
M  V30 26 C 7.690654 0.743801 -1.453292 0
M  V30 27 C 4.544036 -0.383918 0.105402 0
M  V30 28 C 3.219966 -0.047043 -0.015058 0
M  V30 29 C -1.733030 -3.796706 2.575247 0
M  V30 30 C -2.465719 -2.865064 1.670002 0
M  V30 31 N -3.993092 -0.043972 -0.365457 0
M  V30 32 H -4.236173 3.190705 -4.104415 0
M  V30 33 H -2.788720 3.765810 -3.095569 0
M  V30 34 H -2.547638 2.476123 -4.301296 0
M  V30 35 H -4.769136 -2.157000 -2.651188 0
M  V30 36 H -4.452965 -0.256071 2.287545 0
M  V30 37 H -4.922232 -2.043012 2.127371 0
M  V30 38 H -3.128459 -0.644561 4.037940 0
M  V30 39 H -3.639052 -2.418668 4.040635 0
M  V30 40 H -0.892555 -1.045264 4.020782 0
M  V30 41 H -1.559202 -2.023154 5.325805 0
M  V30 42 H -0.706420 -3.903149 4.418914 0
M  V30 43 H 1.069376 -3.788994 2.741403 0
M  V30 44 H 1.127070 -2.550493 4.013342 0
M  V30 45 H -0.167427 -1.315926 1.717912 0
M  V30 46 H 0.899684 1.787678 -1.416679 0
M  V30 47 H 3.393233 2.395653 -2.378517 0
M  V30 48 H 5.725701 1.839161 -2.201658 0
M  V30 49 H 8.694281 0.313154 -1.410547 0
M  V30 50 H 7.306714 0.557004 -2.494839 0
M  V30 51 H 7.615692 1.796122 -1.163451 0
M  V30 52 H 4.839043 -1.159673 0.802441 0
M  V30 53 H -2.501098 -4.396127 3.146461 0
M  V30 54 H -1.219393 -4.544783 1.938568 0
M  V30 55 H -1.901727 -2.653788 0.738536 0
M  V30 56 H -3.399846 -3.401332 1.333661 0
M  V30 END ATOM
M  V30 BEGIN BOND
M  V30 1 1 1 2
M  V30 2 1 2 3
M  V30 3 2 3 4
M  V30 4 1 3 5
M  V30 5 2 5 6
M  V30 6 1 6 7
M  V30 7 1 7 8
M  V30 8 1 8 9
M  V30 9 1 9 10
M  V30 10 1 10 11
M  V30 11 1 11 12
M  V30 12 1 12 13
M  V30 13 1 13 14
M  V30 14 1 14 15
M  V30 15 1 15 16
M  V30 16 2 16 17
M  V30 17 1 16 18
M  V30 18 2 18 19
M  V30 19 1 19 20
M  V30 20 1 20 21
M  V30 21 2 21 22
M  V30 22 1 22 23
M  V30 23 2 23 24
M  V30 24 1 24 25
M  V30 25 1 25 26
M  V30 26 1 24 27
M  V30 27 2 27 28
M  V30 28 1 13 29
M  V30 29 1 29 30
M  V30 30 2 8 31
M  V30 31 1 31 5
M  V30 32 1 30 10
M  V30 33 1 28 18
M  V30 34 1 28 21
M  V30 35 1 1 32
M  V30 36 1 1 33
M  V30 37 1 1 34
M  V30 38 1 6 35
M  V30 39 1 9 36
M  V30 40 1 9 37
M  V30 41 1 11 38
M  V30 42 1 11 39
M  V30 43 1 12 40
M  V30 44 1 12 41
M  V30 45 1 13 42
M  V30 46 1 14 43
M  V30 47 1 14 44
M  V30 48 1 15 45
M  V30 49 1 20 46
M  V30 50 1 22 47
M  V30 51 1 23 48
M  V30 52 1 26 49
M  V30 53 1 26 50
M  V30 54 1 26 51
M  V30 55 1 27 52
M  V30 56 1 29 53
M  V30 57 1 29 54
M  V30 58 1 30 55
M  V30 59 1 30 56
M  V30 END BOND
M  V30 END CTAB
M  END
>  <Dataset>  (51) 
ChEMBL_Kinases

>  <Ligand_Instance>  (51) 
nan

>  <PDB_ID>  (51) 
nan

>  <Standardized_SMILES>  (51) 
COC(=O)c1coc(CN2CCC(CNC(=O)c3n[nH]c4ccc(OC)cc34)CC2)n1

>  <Name>  (51) 
nan

>  <Pocket>  (51) 
nan

>  <ATP_Site>  (51) 
nan

>  <Peripheral>  (51) 
nan

>  <Num_H_Atoms_ProtBoundConf>  (51) 
nan

>  <Num_Resolved_Atoms>  (51) 
nan

>  <Num_Not_Resolved_Atoms>  (51) 
nan

$$$$
CHEMBL3735497
     RDKit          3D

  0  0  0  0  0  0  0  0  0  0999 V3000
M  V30 BEGIN CTAB
M  V30 COUNTS 51 53 0 0 0
M  V30 BEGIN ATOM
M  V30 1 C 0.064054 -7.681934 0.097854 0
M  V30 2 O -0.207898 -6.469298 -0.529541 0
M  V30 3 C 0.598919 -5.440334 -0.035323 0
M  V30 4 C 0.230908 -4.183870 -0.770998 0
M  V30 5 N 0.989903 -3.019899 -0.354549 0
M  V30 6 C 0.520816 -1.923205 -1.149585 0
M  V30 7 C 1.473698 -0.763483 -1.200585 0
M  V30 8 C 2.569213 -0.852255 -0.208792 0
M  V30 9 C 2.255495 -0.778563 1.231290 0
M  V30 10 N 1.626049 0.393874 1.751222 0
M  V30 11 C 0.422087 1.115103 1.640059 0
M  V30 12 O -0.435615 0.640565 0.860837 0
M  V30 13 C 0.108562 2.345073 2.349207 0
M  V30 14 N 0.905993 3.011524 3.233426 0
M  V30 15 N 0.308811 4.090051 3.688672 0
M  V30 16 C -0.914705 4.151259 3.099614 0
M  V30 17 C -1.932346 5.075747 3.228461 0
M  V30 18 C -3.093215 4.873018 2.484877 0
M  V30 19 C -3.198210 3.767737 1.647744 0
M  V30 20 O -4.414001 3.727379 0.990792 0
M  V30 21 C -4.743460 2.687117 0.083687 0
M  V30 22 C -2.196952 2.845910 1.512312 0
M  V30 23 C -1.053518 3.056077 2.252156 0
M  V30 24 C 3.323937 -2.177323 -0.414642 0
M  V30 25 C 2.372841 -3.323288 -0.419548 0
M  V30 26 H -0.582439 -8.503137 -0.299281 0
M  V30 27 H 1.117341 -7.958453 -0.081297 0
M  V30 28 H -0.168496 -7.578214 1.178206 0
M  V30 29 H 1.677811 -5.663332 -0.219716 0
M  V30 30 H 0.400121 -5.297650 1.043477 0
M  V30 31 H -0.837027 -3.932076 -0.690526 0
M  V30 32 H 0.430236 -4.302893 -1.876654 0
M  V30 33 H 0.228958 -2.289937 -2.178998 0
M  V30 34 H -0.433596 -1.565921 -0.719857 0
M  V30 35 H 1.007864 0.215631 -1.276105 0
M  V30 36 H 1.972556 -0.881110 -2.234965 0
M  V30 37 H 3.360956 -0.074057 -0.425886 0
M  V30 38 H 1.634241 -1.704892 1.533957 0
M  V30 39 H 3.189365 -0.944803 1.844679 0
M  V30 40 H 2.225136 0.940293 2.459928 0
M  V30 41 H 0.713126 4.772732 4.381185 0
M  V30 42 H -1.792631 5.915867 3.895715 0
M  V30 43 H -3.851114 5.629736 2.629135 0
M  V30 44 H -4.429186 1.717062 0.511169 0
M  V30 45 H -5.842041 2.642121 -0.068917 0
M  V30 46 H -4.229474 2.929071 -0.877162 0
M  V30 47 H -2.351177 2.011600 0.841678 0
M  V30 48 H 3.995431 -2.272279 0.460710 0
M  V30 49 H 3.980443 -2.135914 -1.312112 0
M  V30 50 H 2.605076 -4.004336 0.449546 0
M  V30 51 H 2.644858 -3.958799 -1.311897 0
M  V30 END ATOM
M  V30 BEGIN BOND
M  V30 1 1 1 2
M  V30 2 1 2 3
M  V30 3 1 3 4
M  V30 4 1 4 5
M  V30 5 1 5 6
M  V30 6 1 6 7
M  V30 7 1 7 8
M  V30 8 1 8 9
M  V30 9 1 9 10
M  V30 10 1 10 11
M  V30 11 2 11 12
M  V30 12 1 11 13
M  V30 13 2 13 14
M  V30 14 1 14 15
M  V30 15 1 15 16
M  V30 16 2 16 17
M  V30 17 1 17 18
M  V30 18 2 18 19
M  V30 19 1 19 20
M  V30 20 1 20 21
M  V30 21 1 19 22
M  V30 22 2 22 23
M  V30 23 1 8 24
M  V30 24 1 24 25
M  V30 25 1 25 5
M  V30 26 1 23 13
M  V30 27 1 23 16
M  V30 28 1 1 26
M  V30 29 1 1 27
M  V30 30 1 1 28
M  V30 31 1 3 29
M  V30 32 1 3 30
M  V30 33 1 4 31
M  V30 34 1 4 32
M  V30 35 1 6 33
M  V30 36 1 6 34
M  V30 37 1 7 35
M  V30 38 1 7 36
M  V30 39 1 8 37
M  V30 40 1 9 38
M  V30 41 1 9 39
M  V30 42 1 10 40
M  V30 43 1 15 41
M  V30 44 1 17 42
M  V30 45 1 18 43
M  V30 46 1 21 44
M  V30 47 1 21 45
M  V30 48 1 21 46
M  V30 49 1 22 47
M  V30 50 1 24 48
M  V30 51 1 24 49
M  V30 52 1 25 50
M  V30 53 1 25 51
M  V30 END BOND
M  V30 END CTAB
M  END
>  <Dataset>  (52) 
ChEMBL_Kinases

>  <Ligand_Instance>  (52) 
nan

>  <PDB_ID>  (52) 
nan

>  <Standardized_SMILES>  (52) 
COCCN1CCC(CNC(=O)c2n[nH]c3ccc(OC)cc23)CC1

>  <Name>  (52) 
nan

>  <Pocket>  (52) 
nan

>  <ATP_Site>  (52) 
nan

>  <Peripheral>  (52) 
nan

>  <Num_H_Atoms_ProtBoundConf>  (52) 
nan

>  <Num_Resolved_Atoms>  (52) 
nan

>  <Num_Not_Resolved_Atoms>  (52) 
nan

$$$$
CHEMBL3735482
     RDKit          3D

  0  0  0  0  0  0  0  0  0  0999 V3000
M  V30 BEGIN CTAB
M  V30 COUNTS 56 61 0 0 0
M  V30 BEGIN ATOM
M  V30 1 C 2.792565 -2.450013 6.580129 0
M  V30 2 N 2.680869 -1.968487 5.251544 0
M  V30 3 C 2.357842 -2.932720 4.265588 0
M  V30 4 C 2.414677 -2.498568 2.856665 0
M  V30 5 N 2.858079 -1.132812 2.668601 0
M  V30 6 C 2.235693 -0.166002 1.833184 0
M  V30 7 C 2.618721 1.151833 1.622357 0
M  V30 8 C 1.883853 1.946891 0.766982 0
M  V30 9 C 0.781050 1.402938 0.141983 0
M  V30 10 N -0.105981 1.940518 -0.730191 0
M  V30 11 C -1.020915 0.988468 -1.058938 0
M  V30 12 C -2.141260 1.173009 -1.977114 0
M  V30 13 C -3.100844 2.087143 -1.526650 0
M  V30 14 C -4.226270 2.377583 -2.278865 0
M  V30 15 C -4.428486 1.758198 -3.514246 0
M  V30 16 C -3.473564 0.863340 -3.938446 0
M  V30 17 C -3.579608 0.197051 -5.148329 0
M  V30 18 C -2.609679 -0.694904 -5.554061 0
M  V30 19 C -1.495059 -0.971390 -4.791280 0
M  V30 20 C -1.389066 -0.305150 -3.581337 0
M  V30 21 C -2.356770 0.571840 -3.197490 0
M  V30 22 C -0.681664 -0.176515 -0.361608 0
M  V30 23 C -1.374908 -1.453687 -0.395086 0
M  V30 24 C -0.907585 -2.691590 -0.810904 0
M  V30 25 C -1.776375 -3.733880 -0.735042 0
M  V30 26 N -3.029322 -3.640948 -0.292804 0
M  V30 27 C -3.503632 -2.465614 0.112287 0
M  V30 28 C -2.666533 -1.354021 0.061572 0
M  V30 29 N 0.425348 0.118889 0.360582 0
M  V30 30 N 1.147696 -0.622092 1.185975 0
M  V30 31 C 4.044640 -0.915075 3.476395 0
M  V30 32 C 3.516824 -0.893732 4.896738 0
M  V30 33 H 2.650930 -3.565406 6.536358 0
M  V30 34 H 1.885726 -2.086060 7.140470 0
M  V30 35 H 3.707967 -2.204235 7.119610 0
M  V30 36 H 1.356421 -3.352505 4.504186 0
M  V30 37 H 3.058692 -3.799009 4.416410 0
M  V30 38 H 1.432055 -2.673771 2.351822 0
M  V30 39 H 3.147411 -3.118730 2.269983 0
M  V30 40 H 3.484702 1.458611 2.158855 0
M  V30 41 H 2.205210 2.965547 0.623148 0
M  V30 42 H -3.016980 2.616737 -0.567873 0
M  V30 43 H -4.977255 3.082517 -1.943197 0
M  V30 44 H -5.280017 1.942369 -4.141392 0
M  V30 45 H -4.445907 0.396171 -5.767524 0
M  V30 46 H -2.764432 -1.179411 -6.518655 0
M  V30 47 H -0.761088 -1.669045 -5.136145 0
M  V30 48 H -0.515328 -0.524852 -2.991549 0
M  V30 49 H 0.116800 -2.667190 -1.151583 0
M  V30 50 H -1.381995 -4.692771 -1.068184 0
M  V30 51 H -4.525181 -2.420004 0.466502 0
M  V30 52 H -3.163523 -0.441961 0.419378 0
M  V30 53 H 4.789137 -1.732344 3.358403 0
M  V30 54 H 4.467804 0.077417 3.283370 0
M  V30 55 H 2.903840 0.050239 4.986243 0
M  V30 56 H 4.358176 -0.778681 5.586016 0
M  V30 END ATOM
M  V30 BEGIN BOND
M  V30 1 1 1 2
M  V30 2 1 2 3
M  V30 3 1 3 4
M  V30 4 1 4 5
M  V30 5 1 5 6
M  V30 6 1 6 7
M  V30 7 2 7 8
M  V30 8 1 8 9
M  V30 9 2 9 10
M  V30 10 1 10 11
M  V30 11 1 11 12
M  V30 12 2 12 13
M  V30 13 1 13 14
M  V30 14 2 14 15
M  V30 15 1 15 16
M  V30 16 2 16 17
M  V30 17 1 17 18
M  V30 18 2 18 19
M  V30 19 1 19 20
M  V30 20 2 20 21
M  V30 21 2 11 22
M  V30 22 1 22 23
M  V30 23 2 23 24
M  V30 24 1 24 25
M  V30 25 2 25 26
M  V30 26 1 26 27
M  V30 27 2 27 28
M  V30 28 1 22 29
M  V30 29 1 29 30
M  V30 30 1 5 31
M  V30 31 1 31 32
M  V30 32 1 32 2
M  V30 33 2 30 6
M  V30 34 1 29 9
M  V30 35 1 21 12
M  V30 36 1 28 23
M  V30 37 1 21 16
M  V30 38 1 1 33
M  V30 39 1 1 34
M  V30 40 1 1 35
M  V30 41 1 3 36
M  V30 42 1 3 37
M  V30 43 1 4 38
M  V30 44 1 4 39
M  V30 45 1 7 40
M  V30 46 1 8 41
M  V30 47 1 13 42
M  V30 48 1 14 43
M  V30 49 1 15 44
M  V30 50 1 17 45
M  V30 51 1 18 46
M  V30 52 1 19 47
M  V30 53 1 20 48
M  V30 54 1 24 49
M  V30 55 1 25 50
M  V30 56 1 27 51
M  V30 57 1 28 52
M  V30 58 1 31 53
M  V30 59 1 31 54
M  V30 60 1 32 55
M  V30 61 1 32 56
M  V30 END BOND
M  V30 END CTAB
M  END
>  <Dataset>  (53) 
ChEMBL_Kinases

>  <Ligand_Instance>  (53) 
nan

>  <PDB_ID>  (53) 
nan

>  <Standardized_SMILES>  (53) 
CN1CCN(c2ccc3nc(-c4cccc5ccccc45)c(-c4ccncc4)n3n2)CC1

>  <Name>  (53) 
nan

>  <Pocket>  (53) 
nan

>  <ATP_Site>  (53) 
nan

>  <Peripheral>  (53) 
nan

>  <Num_H_Atoms_ProtBoundConf>  (53) 
nan

>  <Num_Resolved_Atoms>  (53) 
nan

>  <Num_Not_Resolved_Atoms>  (53) 
nan

$$$$
CHEMBL575940
     RDKit          3D

  0  0  0  0  0  0  0  0  0  0999 V3000
M  V30 BEGIN CTAB
M  V30 COUNTS 56 60 0 0 0
M  V30 BEGIN ATOM
M  V30 1 C 1.874451 -5.192788 -1.338009 0
M  V30 2 C 3.175628 -4.972414 -0.604212 0 CFG=2
M  V30 3 C 2.869490 -4.327827 0.717010 0
M  V30 4 N 3.198021 -2.916749 0.660515 0
M  V30 5 C 2.209571 -1.902644 0.749922 0
M  V30 6 N 2.509438 -0.599941 0.688751 0
M  V30 7 C 1.547701 0.354581 0.776778 0
M  V30 8 N 1.935589 1.714016 0.700913 0
M  V30 9 C 1.130210 2.872500 0.812926 0
M  V30 10 C -0.212074 2.895972 1.115068 0
M  V30 11 C -1.001723 4.011798 1.219478 0
M  V30 12 N -0.404011 5.205187 1.004944 0
M  V30 13 C 0.903556 5.274653 0.704632 0
M  V30 14 C 1.657302 4.128803 0.610317 0
M  V30 15 N 0.305308 -0.090731 0.925455 0
M  V30 16 C -0.071866 -1.374234 0.994788 0
M  V30 17 N -1.405030 -1.829119 1.146518 0
M  V30 18 C -2.533786 -0.968443 1.224885 0
M  V30 19 C -2.723475 -0.146811 -0.057760 0
M  V30 20 C -4.089366 0.389756 0.185887 0
M  V30 21 C -4.671575 1.577574 -0.224660 0
M  V30 22 C -5.970855 1.828305 0.146027 0
M  V30 23 C -6.685975 0.926582 0.907544 0
M  V30 24 C -6.082831 -0.268408 1.313694 0
M  V30 25 C -4.776905 -0.544311 0.953942 0
M  V30 26 C -3.854272 -1.707075 1.218069 0
M  V30 27 N 0.939976 -2.283231 0.900534 0
M  V30 28 C 4.623247 -2.700014 0.506212 0
M  V30 29 C 5.084213 -3.482899 -0.709562 0
M  V30 30 N 3.978800 -4.068983 -1.394082 0
M  V30 31 H 1.781192 -6.227249 -1.732349 0
M  V30 32 H 1.038982 -5.029617 -0.632101 0
M  V30 33 H 1.780082 -4.491870 -2.213628 0
M  V30 34 H 3.643711 -5.972437 -0.490728 0
M  V30 35 H 1.827958 -4.500970 1.048557 0
M  V30 36 H 3.535423 -4.809603 1.473745 0
M  V30 37 H 2.967753 1.908255 0.538346 0
M  V30 38 H -0.727275 1.967362 1.297916 0
M  V30 39 H -2.054472 3.960061 1.460844 0
M  V30 40 H 1.385150 6.236686 0.531718 0
M  V30 41 H 2.719444 4.239042 0.363166 0
M  V30 42 H -1.595424 -2.832928 1.206041 0
M  V30 43 H -2.501293 -0.227648 2.044622 0
M  V30 44 H -1.953838 0.599239 -0.218361 0
M  V30 45 H -2.838755 -0.859761 -0.910893 0
M  V30 46 H -4.067700 2.264329 -0.827640 0
M  V30 47 H -6.352610 2.775644 -0.213623 0
M  V30 48 H -7.702997 1.164702 1.174769 0
M  V30 49 H -6.629142 -0.988566 1.912380 0
M  V30 50 H -3.863712 -2.373396 0.316477 0
M  V30 51 H -4.084778 -2.222966 2.149635 0
M  V30 52 H 5.092575 -3.233874 1.383222 0
M  V30 53 H 4.910029 -1.651393 0.504497 0
M  V30 54 H 5.915649 -4.162843 -0.509516 0
M  V30 55 H 5.498954 -2.702464 -1.404625 0
M  V30 56 H 3.439844 -3.436702 -1.986147 0
M  V30 END ATOM
M  V30 BEGIN BOND
M  V30 1 1 1 2
M  V30 2 1 2 3
M  V30 3 1 3 4
M  V30 4 1 4 5
M  V30 5 2 5 6
M  V30 6 1 6 7
M  V30 7 1 7 8
M  V30 8 1 8 9
M  V30 9 2 9 10
M  V30 10 1 10 11
M  V30 11 2 11 12
M  V30 12 1 12 13
M  V30 13 2 13 14
M  V30 14 2 7 15
M  V30 15 1 15 16
M  V30 16 1 16 17
M  V30 17 1 17 18
M  V30 18 1 18 19
M  V30 19 1 19 20
M  V30 20 2 20 21
M  V30 21 1 21 22
M  V30 22 2 22 23
M  V30 23 1 23 24
M  V30 24 2 24 25
M  V30 25 1 25 26
M  V30 26 2 16 27
M  V30 27 1 4 28
M  V30 28 1 28 29
M  V30 29 1 29 30
M  V30 30 1 30 2
M  V30 31 1 27 5
M  V30 32 1 14 9
M  V30 33 1 26 18
M  V30 34 1 25 20
M  V30 35 1 1 31
M  V30 36 1 1 32
M  V30 37 1 1 33
M  V30 38 1 2 34 CFG=1
M  V30 39 1 3 35
M  V30 40 1 3 36
M  V30 41 1 8 37
M  V30 42 1 10 38
M  V30 43 1 11 39
M  V30 44 1 13 40
M  V30 45 1 14 41
M  V30 46 1 17 42
M  V30 47 1 18 43
M  V30 48 1 19 44
M  V30 49 1 19 45
M  V30 50 1 21 46
M  V30 51 1 22 47
M  V30 52 1 23 48
M  V30 53 1 24 49
M  V30 54 1 26 50
M  V30 55 1 26 51
M  V30 56 1 28 52
M  V30 57 1 28 53
M  V30 58 1 29 54
M  V30 59 1 29 55
M  V30 60 1 30 56
M  V30 END BOND
M  V30 END CTAB
M  END
>  <Dataset>  (54) 
ChEMBL_Kinases

>  <Ligand_Instance>  (54) 
nan

>  <PDB_ID>  (54) 
nan

>  <Standardized_SMILES>  (54) 
C[C@@H]1CN(c2nc(Nc3ccncc3)nc(NC3Cc4ccccc4C3)n2)CCN1

>  <Name>  (54) 
nan

>  <Pocket>  (54) 
nan

>  <ATP_Site>  (54) 
nan

>  <Peripheral>  (54) 
nan

>  <Num_H_Atoms_ProtBoundConf>  (54) 
nan

>  <Num_Resolved_Atoms>  (54) 
nan

>  <Num_Not_Resolved_Atoms>  (54) 
nan

$$$$
CHEMBL3735459
     RDKit          3D

  0  0  0  0  0  0  0  0  0  0999 V3000
M  V30 BEGIN CTAB
M  V30 COUNTS 53 56 0 0 0
M  V30 BEGIN ATOM
M  V30 1 O 4.193061 -5.510677 3.110260 0
M  V30 2 C 3.035358 -5.026812 3.125899 0
M  V30 3 O 2.303909 -5.366514 4.251634 0
M  V30 4 C 2.416763 -4.151939 2.068897 0
M  V30 5 N 3.310715 -3.903480 0.988140 0
M  V30 6 C 4.449628 -3.101075 1.259139 0
M  V30 7 C 4.221197 -1.632633 1.280473 0
M  V30 8 C 2.832100 -1.173437 1.057581 0
M  V30 9 C 2.786300 0.189619 0.355761 0
M  V30 10 N 1.406287 0.589303 0.165766 0
M  V30 11 C 1.180015 1.819211 -0.464256 0
M  V30 12 O 2.318912 2.306079 -0.727646 0
M  V30 13 C -0.008632 2.542167 -0.822403 0
M  V30 14 N 0.202282 3.737010 -1.438790 0
M  V30 15 N -0.981148 4.292011 -1.709990 0
M  V30 16 C -2.010495 3.531816 -1.307359 0
M  V30 17 C -3.387165 3.565974 -1.308525 0
M  V30 18 C -4.099139 2.516042 -0.760729 0
M  V30 19 C -3.425518 1.421905 -0.206706 0
M  V30 20 C -4.254775 0.336744 0.359803 0
M  V30 21 C -5.327428 -0.022527 -0.464542 0
M  V30 22 C -6.214344 -1.017995 -0.105141 0
M  V30 23 C -6.047258 -1.678676 1.091335 0
M  V30 24 C -4.976757 -1.312355 1.902468 0
M  V30 25 Cl -4.694585 -2.112778 3.452470 0
M  V30 26 C -4.083587 -0.321856 1.558532 0
M  V30 27 Cl -2.730934 0.194225 2.504210 0
M  V30 28 C -2.065727 1.399964 -0.211488 0
M  V30 29 C -1.375701 2.442033 -0.755028 0
M  V30 30 C 1.918128 -2.096120 0.348227 0
M  V30 31 C 2.589116 -3.361176 -0.122650 0
M  V30 32 H 2.725259 -5.409551 5.189604 0
M  V30 33 H 1.591934 -4.795821 1.641540 0
M  V30 34 H 1.978097 -3.267277 2.548931 0
M  V30 35 H 4.893193 -3.470160 2.215553 0
M  V30 36 H 5.218258 -3.379128 0.487854 0
M  V30 37 H 4.641698 -1.231220 2.242381 0
M  V30 38 H 4.856553 -1.161380 0.501102 0
M  V30 39 H 2.393895 -0.956413 2.068889 0
M  V30 40 H 3.394874 0.227216 -0.549317 0
M  V30 41 H 3.275461 0.886632 1.082687 0
M  V30 42 H 0.560597 0.064053 0.445117 0
M  V30 43 H -1.103698 5.217179 -2.183875 0
M  V30 44 H -3.858743 4.449171 -1.756407 0
M  V30 45 H -5.194068 2.615955 -0.798951 0
M  V30 46 H -5.521292 0.453266 -1.418884 0
M  V30 47 H -7.050692 -1.290741 -0.759294 0
M  V30 48 H -6.711032 -2.470293 1.428767 0
M  V30 49 H -1.599330 0.558184 0.215113 0
M  V30 50 H 1.513455 -1.623529 -0.595318 0
M  V30 51 H 1.000211 -2.318208 0.937099 0
M  V30 52 H 1.810330 -4.090539 -0.421365 0
M  V30 53 H 3.290528 -3.115431 -0.928968 0
M  V30 END ATOM
M  V30 BEGIN BOND
M  V30 1 2 1 2
M  V30 2 1 2 3
M  V30 3 1 2 4
M  V30 4 1 4 5
M  V30 5 1 5 6
M  V30 6 1 6 7
M  V30 7 1 7 8
M  V30 8 1 8 9
M  V30 9 1 9 10
M  V30 10 1 10 11
M  V30 11 2 11 12
M  V30 12 1 11 13
M  V30 13 2 13 14
M  V30 14 1 14 15
M  V30 15 1 15 16
M  V30 16 2 16 17
M  V30 17 1 17 18
M  V30 18 2 18 19
M  V30 19 1 19 20
M  V30 20 2 20 21
M  V30 21 1 21 22
M  V30 22 2 22 23
M  V30 23 1 23 24
M  V30 24 1 24 25
M  V30 25 2 24 26
M  V30 26 1 26 27
M  V30 27 1 19 28
M  V30 28 2 28 29
M  V30 29 1 8 30
M  V30 30 1 30 31
M  V30 31 1 31 5
M  V30 32 1 29 13
M  V30 33 1 29 16
M  V30 34 1 26 20
M  V30 35 1 3 32
M  V30 36 1 4 33
M  V30 37 1 4 34
M  V30 38 1 6 35
M  V30 39 1 6 36
M  V30 40 1 7 37
M  V30 41 1 7 38
M  V30 42 1 8 39
M  V30 43 1 9 40
M  V30 44 1 9 41
M  V30 45 1 10 42
M  V30 46 1 15 43
M  V30 47 1 17 44
M  V30 48 1 18 45
M  V30 49 1 21 46
M  V30 50 1 22 47
M  V30 51 1 23 48
M  V30 52 1 28 49
M  V30 53 1 30 50
M  V30 54 1 30 51
M  V30 55 1 31 52
M  V30 56 1 31 53
M  V30 END BOND
M  V30 END CTAB
M  END
>  <Dataset>  (55) 
ChEMBL_Kinases

>  <Ligand_Instance>  (55) 
nan

>  <PDB_ID>  (55) 
nan

>  <Standardized_SMILES>  (55) 
O=C(O)CN1CCC(CNC(=O)c2n[nH]c3ccc(-c4cccc(Cl)c4Cl)cc23)CC1

>  <Name>  (55) 
nan

>  <Pocket>  (55) 
nan

>  <ATP_Site>  (55) 
nan

>  <Peripheral>  (55) 
nan

>  <Num_H_Atoms_ProtBoundConf>  (55) 
nan

>  <Num_Resolved_Atoms>  (55) 
nan

>  <Num_Not_Resolved_Atoms>  (55) 
nan

$$$$
CHEMBL3735246
     RDKit          3D

  0  0  0  0  0  0  0  0  0  0999 V3000
M  V30 BEGIN CTAB
M  V30 COUNTS 57 60 0 0 0
M  V30 BEGIN ATOM
M  V30 1 C 0.909514 -4.174429 2.650281 0
M  V30 2 O 1.563350 -3.734435 1.493471 0
M  V30 3 C 2.801007 -3.233745 1.836984 0
M  V30 4 C 3.586854 -2.728259 0.652352 0
M  V30 5 N 2.883647 -1.655443 -0.032687 0
M  V30 6 C 2.798806 -0.453574 0.750254 0
M  V30 7 C 3.296975 0.780730 0.089170 0
M  V30 8 C 3.045087 0.915115 -1.368163 0
M  V30 9 C 1.870511 1.831130 -1.671050 0
M  V30 10 N 0.657654 1.325525 -1.078427 0
M  V30 11 C -0.397286 2.206022 -1.374144 0
M  V30 12 O 0.109447 3.152911 -2.070579 0
M  V30 13 C -1.804279 2.264798 -1.085025 0
M  V30 14 N -2.466287 3.347468 -1.538228 0
M  V30 15 N -3.756921 3.244393 -1.187099 0
M  V30 16 C -4.007119 2.116450 -0.501328 0
M  V30 17 C -5.105638 1.522660 0.077629 0
M  V30 18 C -4.945185 0.309452 0.715073 0
M  V30 19 C -3.677225 -0.281879 0.755848 0
M  V30 20 C -3.630402 -1.560746 1.452649 0
M  V30 21 C -4.189562 -1.931008 2.657157 0
M  V30 22 C -4.001742 -3.201469 3.099231 0
M  V30 23 C -3.283507 -4.159941 2.422807 0
M  V30 24 C -2.712948 -3.789590 1.198786 0
M  V30 25 C -2.896111 -2.500027 0.736724 0
M  V30 26 F -2.287168 -2.292252 -0.455269 0
M  V30 27 C -2.581445 0.317202 0.174649 0
M  V30 28 C -2.767085 1.524234 -0.453418 0
M  V30 29 C 2.972091 -0.372492 -2.134980 0
M  V30 30 C 3.573146 -1.460578 -1.290025 0
M  V30 31 H 0.768637 -3.348730 3.376016 0
M  V30 32 H -0.098999 -4.545506 2.384754 0
M  V30 33 H 1.473706 -5.003311 3.105791 0
M  V30 34 H 2.774512 -2.404648 2.578797 0
M  V30 35 H 3.418143 -4.060380 2.276835 0
M  V30 36 H 4.535457 -2.298753 1.034898 0
M  V30 37 H 3.799710 -3.507205 -0.105022 0
M  V30 38 H 1.779273 -0.316154 1.219965 0
M  V30 39 H 3.448248 -0.639946 1.658283 0
M  V30 40 H 2.822929 1.671002 0.580070 0
M  V30 41 H 4.387558 0.877092 0.312158 0
M  V30 42 H 3.934264 1.466907 -1.801057 0
M  V30 43 H 2.131625 2.810418 -1.255177 0
M  V30 44 H 1.799528 1.947570 -2.789190 0
M  V30 45 H 0.362964 0.514232 -0.511517 0
M  V30 46 H -4.462952 3.973971 -1.433092 0
M  V30 47 H -6.017626 2.098057 -0.035061 0
M  V30 48 H -5.852879 -0.082454 1.138899 0
M  V30 49 H -4.734909 -1.132012 3.127786 0
M  V30 50 H -4.470602 -3.440951 4.066485 0
M  V30 51 H -3.153750 -5.164556 2.805415 0
M  V30 52 H -2.160317 -4.569148 0.704191 0
M  V30 53 H -1.644121 -0.156516 0.223744 0
M  V30 54 H 3.589980 -0.356443 -3.076967 0
M  V30 55 H 1.944012 -0.591815 -2.487941 0
M  V30 56 H 4.621736 -1.165561 -1.084463 0
M  V30 57 H 3.507706 -2.417133 -1.846153 0
M  V30 END ATOM
M  V30 BEGIN BOND
M  V30 1 1 1 2
M  V30 2 1 2 3
M  V30 3 1 3 4
M  V30 4 1 4 5
M  V30 5 1 5 6
M  V30 6 1 6 7
M  V30 7 1 7 8
M  V30 8 1 8 9
M  V30 9 1 9 10
M  V30 10 1 10 11
M  V30 11 2 11 12
M  V30 12 1 11 13
M  V30 13 2 13 14
M  V30 14 1 14 15
M  V30 15 1 15 16
M  V30 16 2 16 17
M  V30 17 1 17 18
M  V30 18 2 18 19
M  V30 19 1 19 20
M  V30 20 2 20 21
M  V30 21 1 21 22
M  V30 22 2 22 23
M  V30 23 1 23 24
M  V30 24 2 24 25
M  V30 25 1 25 26
M  V30 26 1 19 27
M  V30 27 2 27 28
M  V30 28 1 8 29
M  V30 29 1 29 30
M  V30 30 1 30 5
M  V30 31 1 28 13
M  V30 32 1 28 16
M  V30 33 1 25 20
M  V30 34 1 1 31
M  V30 35 1 1 32
M  V30 36 1 1 33
M  V30 37 1 3 34
M  V30 38 1 3 35
M  V30 39 1 4 36
M  V30 40 1 4 37
M  V30 41 1 6 38
M  V30 42 1 6 39
M  V30 43 1 7 40
M  V30 44 1 7 41
M  V30 45 1 8 42
M  V30 46 1 9 43
M  V30 47 1 9 44
M  V30 48 1 10 45
M  V30 49 1 15 46
M  V30 50 1 17 47
M  V30 51 1 18 48
M  V30 52 1 21 49
M  V30 53 1 22 50
M  V30 54 1 23 51
M  V30 55 1 24 52
M  V30 56 1 27 53
M  V30 57 1 29 54
M  V30 58 1 29 55
M  V30 59 1 30 56
M  V30 60 1 30 57
M  V30 END BOND
M  V30 END CTAB
M  END
>  <Dataset>  (56) 
ChEMBL_Kinases

>  <Ligand_Instance>  (56) 
nan

>  <PDB_ID>  (56) 
nan

>  <Standardized_SMILES>  (56) 
COCCN1CCC(CNC(=O)c2n[nH]c3ccc(-c4ccccc4F)cc23)CC1

>  <Name>  (56) 
nan

>  <Pocket>  (56) 
nan

>  <ATP_Site>  (56) 
nan

>  <Peripheral>  (56) 
nan

>  <Num_H_Atoms_ProtBoundConf>  (56) 
nan

>  <Num_Resolved_Atoms>  (56) 
nan

>  <Num_Not_Resolved_Atoms>  (56) 
nan

$$$$
CHEMBL373545
     RDKit          3D

  0  0  0  0  0  0  0  0  0  0999 V3000
M  V30 BEGIN CTAB
M  V30 COUNTS 39 41 0 0 0
M  V30 BEGIN ATOM
M  V30 1 C 0.500523 -4.373844 -0.407519 0
M  V30 2 C 1.860935 -3.930162 -0.936193 0
M  V30 3 C 2.440610 -2.994175 0.059547 0
M  V30 4 C 3.448510 -3.420995 0.921689 0
M  V30 5 C 4.009494 -2.589097 1.860239 0
M  V30 6 C 3.602054 -1.281430 1.998952 0
M  V30 7 C 2.606846 -0.884358 1.136958 0
M  V30 8 C 2.020798 -1.687512 0.184555 0
M  V30 9 N 1.000038 -1.179274 -0.661390 0
M  V30 10 C 0.547258 0.164612 -0.552123 0
M  V30 11 C 1.055835 1.253176 -1.231744 0
M  V30 12 C 0.489220 2.488979 -0.999283 0
M  V30 13 C -0.566131 2.690671 -0.116801 0
M  V30 14 O -1.080933 3.820188 0.092046 0
M  V30 15 N -1.016469 1.568554 0.519325 0
M  V30 16 C -2.095623 1.655062 1.449786 0
M  V30 17 C -1.735859 1.173095 2.705664 0
M  V30 18 C -2.656263 1.179728 3.730533 0
M  V30 19 C -3.940575 1.652142 3.560276 0
M  V30 20 C -4.266756 2.124904 2.297601 0
M  V30 21 C -3.373167 2.134076 1.248810 0
M  V30 22 Cl -3.696391 2.705143 -0.356793 0
M  V30 23 N -0.471929 0.365135 0.299426 0
M  V30 24 H 0.692205 -5.192713 0.335881 0
M  V30 25 H 0.018333 -3.516034 0.132489 0
M  V30 26 H -0.122095 -4.761377 -1.216500 0
M  V30 27 H 1.731369 -3.477762 -1.940830 0
M  V30 28 H 2.497999 -4.843154 -0.966414 0
M  V30 29 H 3.806971 -4.436580 0.857303 0
M  V30 30 H 4.801584 -2.989756 2.509587 0
M  V30 31 H 4.028793 -0.609788 2.731286 0
M  V30 32 H 2.254501 0.135491 1.208808 0
M  V30 33 H 0.535068 -1.750667 -1.397446 0
M  V30 34 H 1.862020 1.065910 -1.899276 0
M  V30 35 H 0.900662 3.338019 -1.542617 0
M  V30 36 H -0.761404 0.768662 2.992751 0
M  V30 37 H -2.411402 0.807265 4.738134 0
M  V30 38 H -4.685985 1.670124 4.343472 0
M  V30 39 H -5.243679 2.516938 2.055925 0
M  V30 END ATOM
M  V30 BEGIN BOND
M  V30 1 1 1 2
M  V30 2 1 2 3
M  V30 3 2 3 4
M  V30 4 1 4 5
M  V30 5 2 5 6
M  V30 6 1 6 7
M  V30 7 2 7 8
M  V30 8 1 8 9
M  V30 9 1 9 10
M  V30 10 1 10 11
M  V30 11 2 11 12
M  V30 12 1 12 13
M  V30 13 2 13 14
M  V30 14 1 13 15
M  V30 15 1 15 16
M  V30 16 2 16 17
M  V30 17 1 17 18
M  V30 18 2 18 19
M  V30 19 1 19 20
M  V30 20 2 20 21
M  V30 21 1 21 22
M  V30 22 1 15 23
M  V30 23 1 8 3
M  V30 24 2 23 10
M  V30 25 1 21 16
M  V30 26 1 1 24
M  V30 27 1 1 25
M  V30 28 1 1 26
M  V30 29 1 2 27
M  V30 30 1 2 28
M  V30 31 1 4 29
M  V30 32 1 5 30
M  V30 33 1 6 31
M  V30 34 1 7 32
M  V30 35 1 9 33
M  V30 36 1 11 34
M  V30 37 1 12 35
M  V30 38 1 17 36
M  V30 39 1 18 37
M  V30 40 1 19 38
M  V30 41 1 20 39
M  V30 END BOND
M  V30 END CTAB
M  END
>  <Dataset>  (57) 
ChEMBL_Kinases

>  <Ligand_Instance>  (57) 
nan

>  <PDB_ID>  (57) 
nan

>  <Standardized_SMILES>  (57) 
CCc1ccccc1Nc1ccc(=O)n(-c2ccccc2Cl)n1

>  <Name>  (57) 
nan

>  <Pocket>  (57) 
nan

>  <ATP_Site>  (57) 
nan

>  <Peripheral>  (57) 
nan

>  <Num_H_Atoms_ProtBoundConf>  (57) 
nan

>  <Num_Resolved_Atoms>  (57) 
nan

>  <Num_Not_Resolved_Atoms>  (57) 
nan

$$$$
CHEMBL3735448
     RDKit          3D

  0  0  0  0  0  0  0  0  0  0999 V3000
M  V30 BEGIN CTAB
M  V30 COUNTS 66 69 0 0 0
M  V30 BEGIN ATOM
M  V30 1 C 6.496188 -4.860229 1.038692 0
M  V30 2 C 6.903055 -3.605578 0.291233 0
M  V30 3 C 8.215255 -3.041002 0.760265 0
M  V30 4 C 7.055782 -4.013204 -1.164701 0
M  V30 5 C 5.787689 -2.625819 0.455440 0
M  V30 6 O 5.924922 -1.485400 1.003505 0
M  V30 7 O 4.582083 -3.079400 -0.048746 0
M  V30 8 C 3.418000 -2.323409 0.002508 0
M  V30 9 C 3.041612 -1.448478 -0.998946 0
M  V30 10 C 1.857460 -0.750129 -0.832699 0
M  V30 11 C 1.064643 -0.915428 0.300450 0
M  V30 12 C 1.449161 -1.796122 1.302322 0
M  V30 13 C 2.636568 -2.499969 1.141397 0
M  V30 14 N 0.471116 -1.712681 2.236202 0
M  V30 15 C -0.461668 -0.826159 1.823951 0
M  V30 16 N -1.659279 -0.458834 2.539306 0
M  V30 17 C -2.702541 -1.364434 2.123433 0
M  V30 18 O -2.260698 -2.201426 1.264802 0
M  V30 19 C -4.076772 -1.299861 2.641701 0
M  V30 20 C -4.567080 -0.401912 3.568434 0
M  V30 21 C -5.895721 -0.498471 3.934687 0
M  V30 22 C -6.761414 -1.445819 3.423420 0
M  V30 23 C -6.234773 -2.325218 2.500162 0
M  V30 24 N -7.095064 -3.328687 1.939477 0 CHG=1 VAL=4
M  V30 25 O -8.277840 -3.412717 2.267150 0
M  V30 26 O -6.590951 -4.217380 1.015925 0 CHG=-1 VAL=1
M  V30 27 C -4.914506 -2.265442 2.105547 0
M  V30 28 N -0.105739 -0.323876 0.624064 0
M  V30 29 C -0.786672 0.633028 -0.177034 0
M  V30 30 C -0.222402 1.901051 -0.102031 0
M  V30 31 C -0.789445 2.943220 -0.839190 0
M  V30 32 C -1.901453 2.746732 -1.644781 0
M  V30 33 C -2.418673 3.904764 -2.381553 0
M  V30 34 C -3.432715 4.727149 -1.661139 0
M  V30 35 C -4.676310 3.988950 -1.264442 0
M  V30 36 O -4.401230 2.937056 -0.420110 0
M  V30 37 C -2.436985 1.475955 -1.696859 0
M  V30 38 C -1.892584 0.440736 -0.979167 0
M  V30 39 H 5.390642 -4.934321 1.020591 0
M  V30 40 H 6.788570 -4.849908 2.106191 0
M  V30 41 H 6.973996 -5.776303 0.614966 0
M  V30 42 H 8.988969 -3.080325 -0.037201 0
M  V30 43 H 8.601985 -3.673256 1.600317 0
M  V30 44 H 8.147539 -1.972922 1.054590 0
M  V30 45 H 6.870428 -3.110683 -1.784110 0
M  V30 46 H 6.372484 -4.849368 -1.425589 0
M  V30 47 H 8.087127 -4.366178 -1.370806 0
M  V30 48 H 3.684159 -1.347844 -1.863487 0
M  V30 49 H 1.598005 -0.069359 -1.648406 0
M  V30 50 H 2.880346 -3.160598 1.941729 0
M  V30 51 H -1.898851 0.278936 3.245588 0
M  V30 52 H -3.859563 0.308982 3.932558 0
M  V30 53 H -6.253962 0.214386 4.659943 0
M  V30 54 H -7.794569 -1.481862 3.741322 0
M  V30 55 H -4.590470 -3.003419 1.370537 0
M  V30 56 H 0.644571 2.154949 0.497281 0
M  V30 57 H -0.336788 3.942374 -0.773873 0
M  V30 58 H -2.854310 3.566263 -3.367196 0
M  V30 59 H -1.606450 4.610899 -2.693579 0
M  V30 60 H -3.670872 5.590648 -2.311607 0
M  V30 61 H -2.977025 5.136248 -0.729994 0
M  V30 62 H -5.220243 3.575407 -2.158875 0
M  V30 63 H -5.418422 4.653515 -0.779647 0
M  V30 64 H -3.759853 3.170846 0.284974 0
M  V30 65 H -3.300905 1.299886 -2.319000 0
M  V30 66 H -2.270774 -0.572851 -0.982655 0
M  V30 END ATOM
M  V30 BEGIN BOND
M  V30 1 1 1 2
M  V30 2 1 2 3
M  V30 3 1 2 4
M  V30 4 1 2 5
M  V30 5 2 5 6
M  V30 6 1 5 7
M  V30 7 1 7 8
M  V30 8 2 8 9
M  V30 9 1 9 10
M  V30 10 2 10 11
M  V30 11 1 11 12
M  V30 12 2 12 13
M  V30 13 1 12 14
M  V30 14 2 14 15
M  V30 15 1 15 16
M  V30 16 1 16 17
M  V30 17 2 17 18
M  V30 18 1 17 19
M  V30 19 2 19 20
M  V30 20 1 20 21
M  V30 21 2 21 22
M  V30 22 1 22 23
M  V30 23 1 23 24
M  V30 24 2 24 25
M  V30 25 1 24 26
M  V30 26 2 23 27
M  V30 27 1 15 28
M  V30 28 1 28 29
M  V30 29 2 29 30
M  V30 30 1 30 31
M  V30 31 2 31 32
M  V30 32 1 32 33
M  V30 33 1 33 34
M  V30 34 1 34 35
M  V30 35 1 35 36
M  V30 36 1 32 37
M  V30 37 2 37 38
M  V30 38 1 13 8
M  V30 39 1 27 19
M  V30 40 1 38 29
M  V30 41 1 28 11
M  V30 42 1 1 39
M  V30 43 1 1 40
M  V30 44 1 1 41
M  V30 45 1 3 42
M  V30 46 1 3 43
M  V30 47 1 3 44
M  V30 48 1 4 45
M  V30 49 1 4 46
M  V30 50 1 4 47
M  V30 51 1 9 48
M  V30 52 1 10 49
M  V30 53 1 13 50
M  V30 54 1 16 51
M  V30 55 1 20 52
M  V30 56 1 21 53
M  V30 57 1 22 54
M  V30 58 1 27 55
M  V30 59 1 30 56
M  V30 60 1 31 57
M  V30 61 1 33 58
M  V30 62 1 33 59
M  V30 63 1 34 60
M  V30 64 1 34 61
M  V30 65 1 35 62
M  V30 66 1 35 63
M  V30 67 1 36 64
M  V30 68 1 37 65
M  V30 69 1 38 66
M  V30 END BOND
M  V30 END CTAB
M  END
>  <Dataset>  (58) 
ChEMBL_Kinases

>  <Ligand_Instance>  (58) 
nan

>  <PDB_ID>  (58) 
nan

>  <Standardized_SMILES>  (58) 
CC(C)(C)C(=O)Oc1ccc2c(c1)nc(NC(=O)c1cccc([N+](=O)[O-])c1)n2-c1ccc(CCCO)cc1

>  <Name>  (58) 
nan

>  <Pocket>  (58) 
nan

>  <ATP_Site>  (58) 
nan

>  <Peripheral>  (58) 
nan

>  <Num_H_Atoms_ProtBoundConf>  (58) 
nan

>  <Num_Resolved_Atoms>  (58) 
nan

>  <Num_Not_Resolved_Atoms>  (58) 
nan

$$$$
CHEMBL3735445
     RDKit          3D

  0  0  0  0  0  0  0  0  0  0999 V3000
M  V30 BEGIN CTAB
M  V30 COUNTS 49 51 0 0 0
M  V30 BEGIN ATOM
M  V30 1 C 2.356377 -5.754093 1.554574 0
M  V30 2 C 0.964378 -5.322561 1.222540 0
M  V30 3 C 0.920257 -4.340184 0.091311 0
M  V30 4 C 0.805629 -4.769740 -1.229148 0
M  V30 5 C 0.766043 -3.854549 -2.262308 0
M  V30 6 C 0.839373 -2.499453 -2.003780 0
M  V30 7 N 0.824212 -1.412371 -2.799080 0
M  V30 8 N 0.924674 -0.336469 -2.021316 0
M  V30 9 C 1.003883 -0.717896 -0.740864 0
M  V30 10 C 1.124402 0.133919 0.430706 0
M  V30 11 O 1.189131 -0.359824 1.573877 0
M  V30 12 N 1.179998 1.545483 0.421115 0
M  V30 13 C 1.279814 2.688005 1.237328 0
M  V30 14 C 0.228212 3.011713 2.223768 0
M  V30 15 C -0.046005 2.026343 3.314571 0
M  V30 16 C -1.224603 1.139589 3.068144 0
M  V30 17 N -1.682085 1.159354 1.742561 0
M  V30 18 C -2.226839 -0.010895 1.211095 0
M  V30 19 C -2.712117 -0.040544 -0.155529 0
M  V30 20 O -3.220830 -1.084350 -0.695127 0
M  V30 21 O -2.942664 0.583419 -1.367423 0
M  V30 22 C -1.914271 2.394812 1.115218 0
M  V30 23 C -1.050841 3.531200 1.588971 0
M  V30 24 C 0.952861 -2.090611 -0.687510 0
M  V30 25 C 0.994240 -2.987983 0.360269 0
M  V30 26 H 2.383166 -6.842642 1.849026 0
M  V30 27 H 3.079456 -5.566016 0.750235 0
M  V30 28 H 2.672862 -5.213653 2.493910 0
M  V30 29 H 0.419353 -4.948622 2.093251 0
M  V30 30 H 0.404174 -6.232821 0.859569 0
M  V30 31 H 0.754497 -5.832228 -1.345636 0
M  V30 32 H 0.676052 -4.237370 -3.274234 0
M  V30 33 H 0.744082 -1.470279 -3.853550 0
M  V30 34 H 1.117726 1.823316 -0.620092 0
M  V30 35 H 1.460658 3.606670 0.620488 0
M  V30 36 H 2.240704 2.576155 1.859939 0
M  V30 37 H 0.622609 3.936639 2.773217 0
M  V30 38 H 0.856760 1.420756 3.505226 0
M  V30 39 H -0.203533 2.579054 4.293989 0
M  V30 40 H -0.918631 0.087002 3.305555 0
M  V30 41 H -2.020962 1.372472 3.806894 0
M  V30 42 H -1.503047 -0.843069 1.337745 0
M  V30 43 H -3.090268 -0.321216 1.870883 0
M  V30 44 H -2.278501 0.739553 -2.099091 0
M  V30 45 H -2.965710 2.676802 1.341398 0
M  V30 46 H -1.901603 2.281850 0.013790 0
M  V30 47 H -1.636882 4.144871 2.298148 0
M  V30 48 H -0.735678 4.210661 0.779007 0
M  V30 49 H 1.082387 -2.687650 1.391972 0
M  V30 END ATOM
M  V30 BEGIN BOND
M  V30 1 1 1 2
M  V30 2 1 2 3
M  V30 3 2 3 4
M  V30 4 1 4 5
M  V30 5 2 5 6
M  V30 6 1 6 7
M  V30 7 1 7 8
M  V30 8 2 8 9
M  V30 9 1 9 10
M  V30 10 2 10 11
M  V30 11 1 10 12
M  V30 12 1 12 13
M  V30 13 1 13 14
M  V30 14 1 14 15
M  V30 15 1 15 16
M  V30 16 1 16 17
M  V30 17 1 17 18
M  V30 18 1 18 19
M  V30 19 2 19 20
M  V30 20 1 19 21
M  V30 21 1 17 22
M  V30 22 1 22 23
M  V30 23 1 9 24
M  V30 24 2 24 25
M  V30 25 1 25 3
M  V30 26 1 24 6
M  V30 27 1 23 14
M  V30 28 1 1 26
M  V30 29 1 1 27
M  V30 30 1 1 28
M  V30 31 1 2 29
M  V30 32 1 2 30
M  V30 33 1 4 31
M  V30 34 1 5 32
M  V30 35 1 7 33
M  V30 36 1 12 34
M  V30 37 1 13 35
M  V30 38 1 13 36
M  V30 39 1 14 37
M  V30 40 1 15 38
M  V30 41 1 15 39
M  V30 42 1 16 40
M  V30 43 1 16 41
M  V30 44 1 18 42
M  V30 45 1 18 43
M  V30 46 1 21 44
M  V30 47 1 22 45
M  V30 48 1 22 46
M  V30 49 1 23 47
M  V30 50 1 23 48
M  V30 51 1 25 49
M  V30 END BOND
M  V30 END CTAB
M  END
>  <Dataset>  (59) 
ChEMBL_Kinases

>  <Ligand_Instance>  (59) 
nan

>  <PDB_ID>  (59) 
nan

>  <Standardized_SMILES>  (59) 
CCc1ccc2[nH]nc(C(=O)NCC3CCN(CC(=O)O)CC3)c2c1

>  <Name>  (59) 
nan

>  <Pocket>  (59) 
nan

>  <ATP_Site>  (59) 
nan

>  <Peripheral>  (59) 
nan

>  <Num_H_Atoms_ProtBoundConf>  (59) 
nan

>  <Num_Resolved_Atoms>  (59) 
nan

>  <Num_Not_Resolved_Atoms>  (59) 
nan

$$$$
CHEMBL3735412
     RDKit          3D

  0  0  0  0  0  0  0  0  0  0999 V3000
M  V30 BEGIN CTAB
M  V30 COUNTS 57 61 0 0 0
M  V30 BEGIN ATOM
M  V30 1 C -0.123883 -3.443836 0.409730 0
M  V30 2 C 0.780010 -2.436626 -0.255809 0
M  V30 3 C 1.451185 -1.667249 0.759128 0
M  V30 4 C 2.669927 -1.670630 1.467991 0
M  V30 5 O 3.201676 -2.880841 0.860339 0
M  V30 6 C 4.448627 -3.404493 1.179720 0
M  V30 7 C 4.740959 -4.710296 0.453058 0
M  V30 8 O 6.000361 -5.181150 0.812764 0
M  V30 9 C 3.476241 -1.193848 2.304310 0
M  V30 10 C 2.782471 -0.040177 2.792273 0
M  V30 11 C 1.499339 0.296925 2.306779 0
M  V30 12 C 0.849236 -0.480333 1.328323 0
M  V30 13 O -0.391183 0.145568 1.095878 0
M  V30 14 C -0.550073 1.273814 1.881170 0
M  V30 15 C -1.638520 2.012003 1.827699 0
M  V30 16 C -2.824165 1.835770 1.010318 0
M  V30 17 N -3.101946 1.479567 -0.247521 0
M  V30 18 N -4.399548 1.476812 -0.496826 0
M  V30 19 C -5.017893 1.851204 0.660686 0
M  V30 20 N -6.393195 1.951570 0.741699 0
M  V30 21 C -6.748213 2.344745 2.026209 0
M  V30 22 C -5.885273 2.597671 3.049575 0
M  V30 23 C -4.536449 2.459010 2.826710 0
M  V30 24 C -4.061295 2.074612 1.597462 0
M  V30 25 C 0.630276 1.419585 2.675116 0
M  V30 26 O 0.887319 2.306800 3.511823 0
M  V30 27 N 0.130205 -1.647640 -1.261555 0
M  V30 28 C -0.473960 -2.440501 -2.297036 0
M  V30 29 C -1.115043 -1.649084 -3.380040 0
M  V30 30 N -0.615228 -0.383629 -3.674504 0
M  V30 31 C 0.152850 0.319466 -2.721538 0
M  V30 32 C 0.917722 -0.565533 -1.770289 0
M  V30 33 H -1.173785 -3.153683 0.192788 0
M  V30 34 H 0.115797 -4.492772 0.109665 0
M  V30 35 H 0.037282 -3.435619 1.512982 0
M  V30 36 H 1.546016 -3.046783 -0.828738 0
M  V30 37 H 4.601709 -3.585094 2.254548 0
M  V30 38 H 5.277470 -2.713974 0.835362 0
M  V30 39 H 4.714961 -4.621981 -0.633223 0
M  V30 40 H 3.998431 -5.488188 0.801192 0
M  V30 41 H 5.963618 -6.135288 1.064211 0
M  V30 42 H 4.425986 -1.468654 2.640678 0
M  V30 43 H 3.214844 0.618944 3.550567 0
M  V30 44 H -1.573607 2.870922 2.514888 0
M  V30 45 H -4.671363 1.207646 -1.468338 0
M  V30 46 H -7.784835 2.489187 2.333938 0
M  V30 47 H -6.184551 2.895889 4.023295 0
M  V30 48 H -3.822979 2.649310 3.612801 0
M  V30 49 H -1.176853 -3.146871 -1.818384 0
M  V30 50 H 0.325703 -3.077162 -2.727910 0
M  V30 51 H -2.208606 -1.524573 -3.092605 0
M  V30 52 H -1.185241 -2.233998 -4.332392 0
M  V30 53 H -0.575578 -0.075464 -4.655216 0
M  V30 54 H 0.847915 1.011457 -3.237983 0
M  V30 55 H -0.538032 0.939091 -2.122830 0
M  V30 56 H 1.757073 -1.026634 -2.361697 0
M  V30 57 H 1.388101 -0.018713 -0.950153 0
M  V30 END ATOM
M  V30 BEGIN BOND
M  V30 1 1 1 2
M  V30 2 1 2 3
M  V30 3 2 3 4
M  V30 4 1 4 5
M  V30 5 1 5 6
M  V30 6 1 6 7
M  V30 7 1 7 8
M  V30 8 1 4 9
M  V30 9 2 9 10
M  V30 10 1 10 11
M  V30 11 2 11 12
M  V30 12 1 12 13
M  V30 13 1 13 14
M  V30 14 2 14 15
M  V30 15 1 15 16
M  V30 16 2 16 17
M  V30 17 1 17 18
M  V30 18 1 18 19
M  V30 19 2 19 20
M  V30 20 1 20 21
M  V30 21 2 21 22
M  V30 22 1 22 23
M  V30 23 2 23 24
M  V30 24 1 14 25
M  V30 25 2 25 26
M  V30 26 1 2 27
M  V30 27 1 27 28
M  V30 28 1 28 29
M  V30 29 1 29 30
M  V30 30 1 30 31
M  V30 31 1 31 32
M  V30 32 1 12 3
M  V30 33 1 24 16
M  V30 34 1 32 27
M  V30 35 1 25 11
M  V30 36 1 24 19
M  V30 37 1 1 33
M  V30 38 1 1 34
M  V30 39 1 1 35
M  V30 40 1 2 36
M  V30 41 1 6 37
M  V30 42 1 6 38
M  V30 43 1 7 39
M  V30 44 1 7 40
M  V30 45 1 8 41
M  V30 46 1 9 42
M  V30 47 1 10 43
M  V30 48 1 15 44
M  V30 49 1 18 45
M  V30 50 1 21 46
M  V30 51 1 22 47
M  V30 52 1 23 48
M  V30 53 1 28 49
M  V30 54 1 28 50
M  V30 55 1 29 51
M  V30 56 1 29 52
M  V30 57 1 30 53
M  V30 58 1 31 54
M  V30 59 1 31 55
M  V30 60 1 32 56
M  V30 61 1 32 57
M  V30 END BOND
M  V30 END CTAB
M  END
>  <Dataset>  (60) 
ChEMBL_Kinases

>  <Ligand_Instance>  (60) 
nan

>  <PDB_ID>  (60) 
nan

>  <Standardized_SMILES>  (60) 
CC(c1c(OCCO)ccc2c1O/C(=C\c1n[nH]c3ncccc13)C2=O)N1CCNCC1

>  <Name>  (60) 
nan

>  <Pocket>  (60) 
nan

>  <ATP_Site>  (60) 
nan

>  <Peripheral>  (60) 
nan

>  <Num_H_Atoms_ProtBoundConf>  (60) 
nan

>  <Num_Resolved_Atoms>  (60) 
nan

>  <Num_Not_Resolved_Atoms>  (60) 
nan

$$$$
CHEMBL511716
     RDKit          3D

  0  0  0  0  0  0  0  0  0  0999 V3000
M  V30 BEGIN CTAB
M  V30 COUNTS 46 49 0 0 0
M  V30 BEGIN ATOM
M  V30 1 C -1.890185 -4.989016 -1.252223 0
M  V30 2 O -2.486780 -3.884513 -0.571951 0
M  V30 3 C -1.922639 -2.638985 -0.557191 0
M  V30 4 C -0.740630 -2.416722 -1.212277 0
M  V30 5 C -0.175661 -1.170041 -1.197689 0
M  V30 6 C -0.782006 -0.126356 -0.528975 0
M  V30 7 C -0.338227 1.257276 -0.400885 0
M  V30 8 C -1.281713 2.273377 -0.588922 0
M  V30 9 N -0.999802 3.586099 -0.498457 0
M  V30 10 C 0.243969 4.012120 -0.213130 0
M  V30 11 C 1.202754 3.039291 -0.020775 0
M  V30 12 C 2.580682 3.385083 0.292666 0
M  V30 13 N 3.689316 3.648797 0.535938 0
M  V30 14 C 0.938949 1.687156 -0.108052 0
M  V30 15 N 1.912774 0.689534 0.087282 0
M  V30 16 C 2.033737 0.243226 1.446353 0
M  V30 17 C 1.246472 0.769929 2.446954 0
M  V30 18 C 1.328049 0.368869 3.777759 0
M  V30 19 C 2.233384 -0.598780 4.125659 0
M  V30 20 C 3.038229 -1.149995 3.155498 0
M  V30 21 C 4.010837 -2.119606 3.239673 0
M  V30 22 C 4.499436 -2.286809 1.957555 0
M  V30 23 N 3.834209 -1.441442 1.145677 0
M  V30 24 C 2.933122 -0.731299 1.846730 0
M  V30 25 C -1.982226 -0.380645 0.127972 0
M  V30 26 C -2.573538 -1.634108 0.127453 0
M  V30 27 O -3.769492 -1.912506 0.774874 0
M  V30 28 C -4.466256 -0.915641 1.484989 0
M  V30 29 H -0.901507 -5.180892 -0.799576 0
M  V30 30 H -1.793676 -4.728510 -2.330245 0
M  V30 31 H -2.504208 -5.886217 -1.149868 0
M  V30 32 H -0.219015 -3.174266 -1.747206 0
M  V30 33 H 0.740138 -0.901636 -1.677840 0
M  V30 34 H -2.332400 2.096681 -0.826054 0
M  V30 35 H 0.598244 5.023672 -0.112970 0
M  V30 36 H 2.566897 0.217277 -0.599252 0
M  V30 37 H 0.512742 1.535387 2.242746 0
M  V30 38 H 0.684957 0.810951 4.546059 0
M  V30 39 H 2.278536 -0.894338 5.166875 0
M  V30 40 H 4.293618 -2.616215 4.153053 0
M  V30 41 H 5.276295 -2.992887 1.741641 0
M  V30 42 H 3.977737 -1.335209 0.125906 0
M  V30 43 H -2.541445 0.382669 0.687438 0
M  V30 44 H -5.018124 -0.261290 0.774083 0
M  V30 45 H -5.234900 -1.398232 2.144686 0
M  V30 46 H -3.812356 -0.307707 2.125924 0
M  V30 END ATOM
M  V30 BEGIN BOND
M  V30 1 1 1 2
M  V30 2 1 2 3
M  V30 3 2 3 4
M  V30 4 1 4 5
M  V30 5 2 5 6
M  V30 6 1 6 7
M  V30 7 2 7 8
M  V30 8 1 8 9
M  V30 9 2 9 10
M  V30 10 1 10 11
M  V30 11 1 11 12
M  V30 12 3 12 13
M  V30 13 2 11 14
M  V30 14 1 14 15
M  V30 15 1 15 16
M  V30 16 2 16 17
M  V30 17 1 17 18
M  V30 18 2 18 19
M  V30 19 1 19 20
M  V30 20 1 20 21
M  V30 21 2 21 22
M  V30 22 1 22 23
M  V30 23 1 23 24
M  V30 24 1 6 25
M  V30 25 2 25 26
M  V30 26 1 26 27
M  V30 27 1 27 28
M  V30 28 1 26 3
M  V30 29 1 14 7
M  V30 30 1 24 16
M  V30 31 2 24 20
M  V30 32 1 1 29
M  V30 33 1 1 30
M  V30 34 1 1 31
M  V30 35 1 4 32
M  V30 36 1 5 33
M  V30 37 1 8 34
M  V30 38 1 10 35
M  V30 39 1 15 36
M  V30 40 1 17 37
M  V30 41 1 18 38
M  V30 42 1 19 39
M  V30 43 1 21 40
M  V30 44 1 22 41
M  V30 45 1 23 42
M  V30 46 1 25 43
M  V30 47 1 28 44
M  V30 48 1 28 45
M  V30 49 1 28 46
M  V30 END BOND
M  V30 END CTAB
M  END
>  <Dataset>  (61) 
ChEMBL_Kinases

>  <Ligand_Instance>  (61) 
nan

>  <PDB_ID>  (61) 
nan

>  <Standardized_SMILES>  (61) 
COc1ccc(-c2cncc(C#N)c2Nc2cccc3cc[nH]c23)cc1OC

>  <Name>  (61) 
nan

>  <Pocket>  (61) 
nan

>  <ATP_Site>  (61) 
nan

>  <Peripheral>  (61) 
nan

>  <Num_H_Atoms_ProtBoundConf>  (61) 
nan

>  <Num_Resolved_Atoms>  (61) 
nan

>  <Num_Not_Resolved_Atoms>  (61) 
nan

$$$$
CHEMBL3735382
     RDKit          3D

  0  0  0  0  0  0  0  0  0  0999 V3000
M  V30 BEGIN CTAB
M  V30 COUNTS 44 46 0 0 0
M  V30 BEGIN ATOM
M  V30 1 C 1.636056 -4.540706 3.983527 0
M  V30 2 O 1.392613 -3.521586 3.035089 0
M  V30 3 C 1.893198 -3.566187 1.742429 0
M  V30 4 C 2.664644 -4.601945 1.279573 0
M  V30 5 C 3.172453 -4.657145 -0.016323 0
M  V30 6 C 2.853340 -3.593884 -0.828963 0
M  V30 7 N 3.106199 -3.233919 -2.087244 0
M  V30 8 N 2.546856 -2.060603 -2.419694 0
M  V30 9 C 1.882334 -1.593876 -1.347827 0
M  V30 10 C 1.208747 -0.333048 -1.507593 0
M  V30 11 O 1.298479 0.235344 -2.652498 0
M  V30 12 N 0.425123 0.508334 -0.702974 0
M  V30 13 C 0.020247 1.674257 -1.444699 0
M  V30 14 C -0.831165 2.604704 -0.606534 0
M  V30 15 C -0.135778 3.100858 0.608378 0
M  V30 16 C -0.589050 2.536668 1.911187 0
M  V30 17 N -2.030774 2.424253 2.021165 0
M  V30 18 C -2.330779 1.800618 3.300053 0
M  V30 19 C -2.414499 1.449207 0.995406 0
M  V30 20 C -2.201583 2.112531 -0.321278 0
M  V30 21 C 2.081919 -2.546650 -0.384285 0
M  V30 22 C 1.594694 -2.519310 0.899527 0
M  V30 23 H 1.691806 -5.544061 3.543772 0
M  V30 24 H 2.543922 -4.344627 4.601847 0
M  V30 25 H 0.794336 -4.513085 4.728993 0
M  V30 26 H 2.915443 -5.437215 1.918253 0
M  V30 27 H 3.772910 -5.439972 -0.413564 0
M  V30 28 H 3.681651 -3.783147 -2.785990 0
M  V30 29 H 0.289790 0.141626 0.249761 0
M  V30 30 H -0.584682 1.313294 -2.315284 0
M  V30 31 H 0.875832 2.242439 -1.881116 0
M  V30 32 H -0.972095 3.511505 -1.284596 0
M  V30 33 H 0.972063 2.959259 0.561695 0
M  V30 34 H -0.283437 4.219495 0.686346 0
M  V30 35 H -0.255397 3.246213 2.710851 0
M  V30 36 H -0.133467 1.557578 2.123229 0
M  V30 37 H -2.836275 0.836605 3.205066 0
M  V30 38 H -3.030230 2.478100 3.845491 0
M  V30 39 H -1.404907 1.633106 3.901844 0
M  V30 40 H -1.860582 0.535207 1.187198 0
M  V30 41 H -3.512501 1.236287 1.067643 0
M  V30 42 H -2.893816 3.009170 -0.318898 0
M  V30 43 H -2.606959 1.505762 -1.178183 0
M  V30 44 H 0.991205 -1.712271 1.266808 0
M  V30 END ATOM
M  V30 BEGIN BOND
M  V30 1 1 1 2
M  V30 2 1 2 3
M  V30 3 2 3 4
M  V30 4 1 4 5
M  V30 5 2 5 6
M  V30 6 1 6 7
M  V30 7 1 7 8
M  V30 8 2 8 9
M  V30 9 1 9 10
M  V30 10 2 10 11
M  V30 11 1 10 12
M  V30 12 1 12 13
M  V30 13 1 13 14
M  V30 14 1 14 15
M  V30 15 1 15 16
M  V30 16 1 16 17
M  V30 17 1 17 18
M  V30 18 1 17 19
M  V30 19 1 19 20
M  V30 20 1 9 21
M  V30 21 2 21 22
M  V30 22 1 22 3
M  V30 23 1 21 6
M  V30 24 1 20 14
M  V30 25 1 1 23
M  V30 26 1 1 24
M  V30 27 1 1 25
M  V30 28 1 4 26
M  V30 29 1 5 27
M  V30 30 1 7 28
M  V30 31 1 12 29
M  V30 32 1 13 30
M  V30 33 1 13 31
M  V30 34 1 14 32
M  V30 35 1 15 33
M  V30 36 1 15 34
M  V30 37 1 16 35
M  V30 38 1 16 36
M  V30 39 1 18 37
M  V30 40 1 18 38
M  V30 41 1 18 39
M  V30 42 1 19 40
M  V30 43 1 19 41
M  V30 44 1 20 42
M  V30 45 1 20 43
M  V30 46 1 22 44
M  V30 END BOND
M  V30 END CTAB
M  END
>  <Dataset>  (62) 
ChEMBL_Kinases

>  <Ligand_Instance>  (62) 
nan

>  <PDB_ID>  (62) 
nan

>  <Standardized_SMILES>  (62) 
COc1ccc2[nH]nc(C(=O)NCC3CCN(C)CC3)c2c1

>  <Name>  (62) 
nan

>  <Pocket>  (62) 
nan

>  <ATP_Site>  (62) 
nan

>  <Peripheral>  (62) 
nan

>  <Num_H_Atoms_ProtBoundConf>  (62) 
nan

>  <Num_Resolved_Atoms>  (62) 
nan

>  <Num_Not_Resolved_Atoms>  (62) 
nan

$$$$
CHEMBL3735347
     RDKit          3D

  0  0  0  0  0  0  0  0  0  0999 V3000
M  V30 BEGIN CTAB
M  V30 COUNTS 53 56 0 0 0
M  V30 BEGIN ATOM
M  V30 1 C 2.456712 0.335911 5.705809 0
M  V30 2 O 3.687730 -0.188408 5.326859 0
M  V30 3 C 4.170730 -0.377650 4.063152 0
M  V30 4 C 5.454411 -0.928093 3.958084 0
M  V30 5 C 6.004801 -1.146496 2.721442 0
M  V30 6 C 5.342987 -0.845313 1.574262 0
M  V30 7 N 5.532953 -0.906589 0.251296 0
M  V30 8 N 4.487378 -0.446381 -0.445123 0
M  V30 9 C 3.529974 -0.048843 0.443950 0
M  V30 10 C 2.318897 0.480062 -0.113916 0
M  V30 11 O 2.296938 0.542601 -1.392048 0
M  V30 12 N 1.093536 0.971900 0.339458 0
M  V30 13 C -0.159936 1.503032 -0.032624 0
M  V30 14 C -1.040027 0.600227 -0.844293 0
M  V30 15 C -0.539604 0.164677 -2.156419 0
M  V30 16 C -1.731981 -0.106154 -3.090666 0
M  V30 17 N -2.736609 -0.777747 -2.360683 0
M  V30 18 C -2.586696 -2.146398 -2.088581 0
M  V30 19 C -3.739879 -2.651004 -1.294274 0
M  V30 20 N -4.821183 -3.099540 -1.950261 0
M  V30 21 O -5.670891 -3.483317 -1.059353 0
M  V30 22 C -5.193453 -3.305453 0.147127 0
M  V30 23 C -5.874198 -3.624963 1.394321 0
M  V30 24 N -5.213292 -3.377727 2.640146 0
M  V30 25 O -7.028370 -4.113642 1.446786 0
M  V30 26 N -3.964129 -2.776279 0.034124 0
M  V30 27 C -3.370718 0.055538 -1.400464 0
M  V30 28 C -2.421065 1.218464 -1.009935 0
M  V30 29 C 4.082477 -0.305022 1.671919 0
M  V30 30 C 3.519728 -0.080685 2.887809 0
M  V30 31 H 1.860365 -0.442453 6.204658 0
M  V30 32 H 2.657358 1.112321 6.494032 0
M  V30 33 H 1.863047 0.789775 4.889386 0
M  V30 34 H 6.058698 -1.200722 4.830646 0
M  V30 35 H 7.001741 -1.573638 2.608993 0
M  V30 36 H 6.397979 -1.271321 -0.206107 0
M  V30 37 H 1.132518 0.913269 1.405111 0
M  V30 38 H -0.730419 1.837152 0.869125 0
M  V30 39 H 0.006977 2.450360 -0.670305 0
M  V30 40 H -1.180104 -0.324340 -0.198613 0
M  V30 41 H 0.070833 -0.774479 -2.120016 0
M  V30 42 H 0.036695 0.934436 -2.714859 0
M  V30 43 H -2.043929 0.829338 -3.570899 0
M  V30 44 H -1.332813 -0.751125 -3.906787 0
M  V30 45 H -2.405715 -2.781865 -2.982146 0
M  V30 46 H -1.661059 -2.296679 -1.459309 0
M  V30 47 H -4.794201 -3.089961 3.546788 0
M  V30 48 H -4.693569 -4.293727 2.631499 0
M  V30 49 H -4.362402 0.432928 -1.674926 0
M  V30 50 H -3.492235 -0.513369 -0.457568 0
M  V30 51 H -2.756240 1.557109 -0.016198 0
M  V30 52 H -2.480892 1.968997 -1.799384 0
M  V30 53 H 2.546213 0.337304 2.996579 0
M  V30 END ATOM
M  V30 BEGIN BOND
M  V30 1 1 1 2
M  V30 2 1 2 3
M  V30 3 2 3 4
M  V30 4 1 4 5
M  V30 5 2 5 6
M  V30 6 1 6 7
M  V30 7 1 7 8
M  V30 8 2 8 9
M  V30 9 1 9 10
M  V30 10 2 10 11
M  V30 11 1 10 12
M  V30 12 1 12 13
M  V30 13 1 13 14
M  V30 14 1 14 15
M  V30 15 1 15 16
M  V30 16 1 16 17
M  V30 17 1 17 18
M  V30 18 1 18 19
M  V30 19 2 19 20
M  V30 20 1 20 21
M  V30 21 1 21 22
M  V30 22 1 22 23
M  V30 23 1 23 24
M  V30 24 2 23 25
M  V30 25 2 22 26
M  V30 26 1 17 27
M  V30 27 1 27 28
M  V30 28 1 9 29
M  V30 29 2 29 30
M  V30 30 1 30 3
M  V30 31 1 29 6
M  V30 32 1 28 14
M  V30 33 1 26 19
M  V30 34 1 1 31
M  V30 35 1 1 32
M  V30 36 1 1 33
M  V30 37 1 4 34
M  V30 38 1 5 35
M  V30 39 1 7 36
M  V30 40 1 12 37
M  V30 41 1 13 38
M  V30 42 1 13 39
M  V30 43 1 14 40
M  V30 44 1 15 41
M  V30 45 1 15 42
M  V30 46 1 16 43
M  V30 47 1 16 44
M  V30 48 1 18 45
M  V30 49 1 18 46
M  V30 50 1 24 47
M  V30 51 1 24 48
M  V30 52 1 27 49
M  V30 53 1 27 50
M  V30 54 1 28 51
M  V30 55 1 28 52
M  V30 56 1 30 53
M  V30 END BOND
M  V30 END CTAB
M  END
>  <Dataset>  (63) 
ChEMBL_Kinases

>  <Ligand_Instance>  (63) 
nan

>  <PDB_ID>  (63) 
nan

>  <Standardized_SMILES>  (63) 
COc1ccc2[nH]nc(C(=O)NCC3CCN(Cc4noc(C(N)=O)n4)CC3)c2c1

>  <Name>  (63) 
nan

>  <Pocket>  (63) 
nan

>  <ATP_Site>  (63) 
nan

>  <Peripheral>  (63) 
nan

>  <Num_H_Atoms_ProtBoundConf>  (63) 
nan

>  <Num_Resolved_Atoms>  (63) 
nan

>  <Num_Not_Resolved_Atoms>  (63) 
nan

$$$$
CHEMBL3735315
     RDKit          3D

  0  0  0  0  0  0  0  0  0  0999 V3000
M  V30 BEGIN CTAB
M  V30 COUNTS 57 62 0 0 0
M  V30 BEGIN ATOM
M  V30 1 C 5.891665 -4.829802 2.801428 0
M  V30 2 N 5.008353 -3.770478 3.162694 0
M  V30 3 C 5.459740 -2.448668 2.902556 0
M  V30 4 C 5.120854 -2.011838 1.489850 0
M  V30 5 N 3.691348 -1.986827 1.267476 0
M  V30 6 C 2.891580 -0.882631 0.870558 0
M  V30 7 C 3.422922 0.359712 0.604182 0
M  V30 8 C 2.584598 1.389842 0.224604 0
M  V30 9 C 1.220392 1.066407 0.141231 0
M  V30 10 N 0.174030 1.863674 -0.202025 0
M  V30 11 C -0.971459 1.158560 -0.155071 0
M  V30 12 C -2.273723 1.744293 -0.469061 0
M  V30 13 C -2.659970 2.816493 0.318448 0
M  V30 14 C -3.873723 3.451461 0.114203 0
M  V30 15 C -4.692458 2.979842 -0.904828 0
M  V30 16 C -4.282861 1.922021 -1.662231 0
M  V30 17 C -5.137950 1.423749 -2.719907 0
M  V30 18 C -6.486028 1.495981 -2.571446 0
M  V30 19 C -7.378036 1.025222 -3.576713 0
M  V30 20 S -6.266448 0.398149 -4.907859 0
M  V30 21 C -4.664954 0.822649 -3.997368 0
M  V30 22 C -3.084618 1.268087 -1.487605 0
M  V30 23 C -0.625700 -0.121187 0.230072 0
M  V30 24 C -1.575800 -1.213307 0.401973 0
M  V30 25 C -1.523179 -2.374759 -0.308667 0
M  V30 26 C -2.468480 -3.342452 -0.074822 0
M  V30 27 N -3.429386 -3.153103 0.836616 0
M  V30 28 C -3.523574 -2.035359 1.556989 0
M  V30 29 C -2.575294 -1.030426 1.341702 0
M  V30 30 N 0.711396 -0.157356 0.405475 0
M  V30 31 N 1.563020 -1.134074 0.772777 0
M  V30 32 C 3.213077 -3.302449 1.521771 0
M  V30 33 C 3.641827 -3.929024 2.802221 0
M  V30 34 H 6.347775 -5.271213 3.727392 0
M  V30 35 H 6.691525 -4.492988 2.106104 0
M  V30 36 H 5.319520 -5.637261 2.326467 0
M  V30 37 H 6.533011 -2.272062 3.049278 0
M  V30 38 H 4.939097 -1.768285 3.606431 0
M  V30 39 H 5.639864 -2.659084 0.740957 0
M  V30 40 H 5.591491 -1.012853 1.383365 0
M  V30 41 H 4.483851 0.545217 0.686089 0
M  V30 42 H 2.947096 2.367713 0.007931 0
M  V30 43 H -2.011878 3.186391 1.121890 0
M  V30 44 H -4.163465 4.285415 0.735357 0
M  V30 45 H -5.630327 3.498902 -1.033331 0
M  V30 46 H -7.053117 1.883248 -1.749965 0
M  V30 47 H -8.383565 0.948422 -3.745139 0
M  V30 48 H -3.497784 0.778225 -4.091375 0
M  V30 49 H -2.745559 0.427493 -2.081089 0
M  V30 50 H -0.742473 -2.495276 -1.029083 0
M  V30 51 H -2.403490 -4.243452 -0.645776 0
M  V30 52 H -4.318039 -1.898701 2.298520 0
M  V30 53 H -2.693146 -0.143126 1.950225 0
M  V30 54 H 3.541308 -3.970796 0.688930 0
M  V30 55 H 2.085143 -3.364904 1.500445 0
M  V30 56 H 3.464359 -5.043939 2.733465 0
M  V30 57 H 3.019660 -3.623241 3.674777 0
M  V30 END ATOM
M  V30 BEGIN BOND
M  V30 1 1 1 2
M  V30 2 1 2 3
M  V30 3 1 3 4
M  V30 4 1 4 5
M  V30 5 1 5 6
M  V30 6 1 6 7
M  V30 7 2 7 8
M  V30 8 1 8 9
M  V30 9 2 9 10
M  V30 10 1 10 11
M  V30 11 1 11 12
M  V30 12 2 12 13
M  V30 13 1 13 14
M  V30 14 2 14 15
M  V30 15 1 15 16
M  V30 16 1 16 17
M  V30 17 1 17 18
M  V30 18 2 18 19
M  V30 19 1 19 20
M  V30 20 1 20 21
M  V30 21 2 16 22
M  V30 22 2 11 23
M  V30 23 1 23 24
M  V30 24 2 24 25
M  V30 25 1 25 26
M  V30 26 2 26 27
M  V30 27 1 27 28
M  V30 28 2 28 29
M  V30 29 1 23 30
M  V30 30 1 30 31
M  V30 31 1 5 32
M  V30 32 1 32 33
M  V30 33 1 33 2
M  V30 34 2 31 6
M  V30 35 1 30 9
M  V30 36 1 22 12
M  V30 37 1 29 24
M  V30 38 2 21 17
M  V30 39 1 1 34
M  V30 40 1 1 35
M  V30 41 1 1 36
M  V30 42 1 3 37
M  V30 43 1 3 38
M  V30 44 1 4 39
M  V30 45 1 4 40
M  V30 46 1 7 41
M  V30 47 1 8 42
M  V30 48 1 13 43
M  V30 49 1 14 44
M  V30 50 1 15 45
M  V30 51 1 18 46
M  V30 52 1 19 47
M  V30 53 1 21 48
M  V30 54 1 22 49
M  V30 55 1 25 50
M  V30 56 1 26 51
M  V30 57 1 28 52
M  V30 58 1 29 53
M  V30 59 1 32 54
M  V30 60 1 32 55
M  V30 61 1 33 56
M  V30 62 1 33 57
M  V30 END BOND
M  V30 END CTAB
M  END
>  <Dataset>  (64) 
ChEMBL_Kinases

>  <Ligand_Instance>  (64) 
nan

>  <PDB_ID>  (64) 
nan

>  <Standardized_SMILES>  (64) 
CN1CCN(c2ccc3nc(-c4cccc(-c5ccsc5)c4)c(-c4ccncc4)n3n2)CC1

>  <Name>  (64) 
nan

>  <Pocket>  (64) 
nan

>  <ATP_Site>  (64) 
nan

>  <Peripheral>  (64) 
nan

>  <Num_H_Atoms_ProtBoundConf>  (64) 
nan

>  <Num_Resolved_Atoms>  (64) 
nan

>  <Num_Not_Resolved_Atoms>  (64) 
nan

$$$$
CHEMBL3735309
     RDKit          3D

  0  0  0  0  0  0  0  0  0  0999 V3000
M  V30 BEGIN CTAB
M  V30 COUNTS 36 40 0 0 0
M  V30 BEGIN ATOM
M  V30 1 C -1.223563 -0.522183 3.861181 0
M  V30 2 C -0.706714 -1.696177 4.351910 0
M  V30 3 C 0.348670 -2.348641 3.732751 0
M  V30 4 C 0.873373 -1.770955 2.586707 0
M  V30 5 C 0.350093 -0.586947 2.094159 0
M  V30 6 C 0.984525 -0.064212 0.873302 0
M  V30 7 N 2.286111 0.324269 0.754622 0
M  V30 8 C 2.511939 0.746872 -0.502188 0
M  V30 9 C 3.567607 1.245765 -1.235592 0
M  V30 10 C 3.381788 1.580939 -2.576283 0
M  V30 11 C 2.171662 1.435478 -3.217237 0
M  V30 12 N 1.167520 0.949891 -2.481287 0
M  V30 13 N 1.355570 0.635417 -1.210038 0
M  V30 14 C 0.402467 0.138053 -0.382189 0
M  V30 15 C -1.005085 -0.159032 -0.669896 0
M  V30 16 C -1.576162 -1.407920 -0.576783 0
M  V30 17 C -2.934437 -1.520150 -0.888001 0
M  V30 18 N -3.665657 -0.476596 -1.261174 0
M  V30 19 C -3.105425 0.740258 -1.351002 0
M  V30 20 C -1.750638 0.931991 -1.055604 0
M  V30 21 C -0.700167 0.051288 2.720744 0
M  V30 22 O 1.892089 -2.666405 2.235527 0
M  V30 23 C 1.638922 -3.923487 2.835132 0
M  V30 24 O 1.023299 -3.528705 4.046092 0
M  V30 25 H -2.046443 0.023018 4.310679 0
M  V30 26 H -1.142785 -2.118387 5.250560 0
M  V30 27 H 4.529475 1.361008 -0.726360 0
M  V30 28 H 4.276328 1.960947 -3.047361 0
M  V30 29 H 2.166161 1.733732 -4.258346 0
M  V30 30 H -0.926783 -2.227329 -0.264985 0
M  V30 31 H -3.334100 -2.508094 -0.801208 0
M  V30 32 H -3.697679 1.596161 -1.655397 0
M  V30 33 H -1.354650 1.954589 -1.149304 0
M  V30 34 H -1.058120 0.973996 2.279590 0
M  V30 35 H 2.561597 -4.502583 3.007690 0
M  V30 36 H 0.952879 -4.482739 2.164572 0
M  V30 END ATOM
M  V30 BEGIN BOND
M  V30 1 2 1 2
M  V30 2 1 2 3
M  V30 3 2 3 4
M  V30 4 1 4 5
M  V30 5 1 5 6
M  V30 6 1 6 7
M  V30 7 2 7 8
M  V30 8 1 8 9
M  V30 9 2 9 10
M  V30 10 1 10 11
M  V30 11 2 11 12
M  V30 12 1 12 13
M  V30 13 1 13 14
M  V30 14 1 14 15
M  V30 15 2 15 16
M  V30 16 1 16 17
M  V30 17 2 17 18
M  V30 18 1 18 19
M  V30 19 2 19 20
M  V30 20 2 5 21
M  V30 21 1 4 22
M  V30 22 1 22 23
M  V30 23 1 23 24
M  V30 24 1 21 1
M  V30 25 1 24 3
M  V30 26 2 14 6
M  V30 27 1 20 15
M  V30 28 1 13 8
M  V30 29 1 1 25
M  V30 30 1 2 26
M  V30 31 1 9 27
M  V30 32 1 10 28
M  V30 33 1 11 29
M  V30 34 1 16 30
M  V30 35 1 17 31
M  V30 36 1 19 32
M  V30 37 1 20 33
M  V30 38 1 21 34
M  V30 39 1 23 35
M  V30 40 1 23 36
M  V30 END BOND
M  V30 END CTAB
M  END
>  <Dataset>  (65) 
ChEMBL_Kinases

>  <Ligand_Instance>  (65) 
nan

>  <PDB_ID>  (65) 
nan

>  <Standardized_SMILES>  (65) 
c1cc2c(c(-c3nc4cccnn4c3-c3ccncc3)c1)OCO2

>  <Name>  (65) 
nan

>  <Pocket>  (65) 
nan

>  <ATP_Site>  (65) 
nan

>  <Peripheral>  (65) 
nan

>  <Num_H_Atoms_ProtBoundConf>  (65) 
nan

>  <Num_Resolved_Atoms>  (65) 
nan

>  <Num_Not_Resolved_Atoms>  (65) 
nan

$$$$
CHEMBL3735293
     RDKit          3D

  0  0  0  0  0  0  0  0  0  0999 V3000
M  V30 BEGIN CTAB
M  V30 COUNTS 50 52 0 0 0
M  V30 BEGIN ATOM
M  V30 1 C 4.418502 -5.863416 1.528953 0
M  V30 2 O 3.812998 -4.688782 1.099692 0
M  V30 3 C 3.927493 -4.162757 -0.177510 0
M  V30 4 C 4.671207 -4.761520 -1.179368 0
M  V30 5 C 4.740365 -4.181452 -2.427693 0
M  V30 6 C 4.092168 -3.008293 -2.738978 0
M  V30 7 N 3.903485 -2.157636 -3.759598 0
M  V30 8 N 3.119158 -1.131148 -3.421296 0
M  V30 9 C 2.749656 -1.270811 -2.126144 0
M  V30 10 C 1.896999 -0.232926 -1.619449 0
M  V30 11 O 1.538386 0.721771 -2.383857 0
M  V30 12 N 1.310553 0.003161 -0.368455 0
M  V30 13 C 0.499698 1.191298 -0.268514 0
M  V30 14 C -0.076484 1.331779 1.138196 0
M  V30 15 C -0.924284 2.576472 1.234039 0
M  V30 16 C -1.961748 2.518279 2.334842 0
M  V30 17 N -2.744279 1.345224 2.312624 0
M  V30 18 C -4.016041 1.312391 2.855762 0
M  V30 19 C -5.113024 2.086269 2.214242 0
M  V30 20 C -6.340559 1.829648 3.049698 0
M  V30 21 O -7.492405 2.304516 2.868874 0
M  V30 22 O -6.617032 1.061605 4.194457 0
M  V30 23 C -2.351613 0.470071 1.282797 0
M  V30 24 C -0.890995 0.162767 1.548048 0
M  V30 25 C 3.359370 -2.431201 -1.728572 0
M  V30 26 C 3.271779 -2.984784 -0.476045 0
M  V30 27 H 5.358155 -5.705648 2.098614 0
M  V30 28 H 4.516978 -6.560650 0.692134 0
M  V30 29 H 3.717218 -6.318090 2.286670 0
M  V30 30 H 5.203289 -5.683279 -0.995021 0
M  V30 31 H 5.318677 -4.616586 -3.257988 0
M  V30 32 H 4.338012 -2.318491 -4.688243 0
M  V30 33 H 1.501811 -0.674603 0.360576 0
M  V30 34 H -0.329465 1.083799 -0.996293 0
M  V30 35 H 1.042825 2.111555 -0.514746 0
M  V30 36 H 0.818226 1.392378 1.810473 0
M  V30 37 H -0.214996 3.393834 1.558516 0
M  V30 38 H -1.325350 2.903772 0.277155 0
M  V30 39 H -1.443737 2.600833 3.315702 0
M  V30 40 H -2.562115 3.439734 2.223872 0
M  V30 41 H -3.954132 1.677904 3.917589 0
M  V30 42 H -4.393463 0.260257 2.956069 0
M  V30 43 H -4.934212 3.177967 2.179963 0
M  V30 44 H -5.355807 1.651402 1.223979 0
M  V30 45 H -7.198932 0.240556 4.189234 0
M  V30 46 H -2.967169 -0.432524 1.154280 0
M  V30 47 H -2.401898 1.017118 0.304243 0
M  V30 48 H -0.576142 -0.802989 1.122214 0
M  V30 49 H -0.747235 0.021676 2.658053 0
M  V30 50 H 2.707631 -2.541885 0.305473 0
M  V30 END ATOM
M  V30 BEGIN BOND
M  V30 1 1 1 2
M  V30 2 1 2 3
M  V30 3 2 3 4
M  V30 4 1 4 5
M  V30 5 2 5 6
M  V30 6 1 6 7
M  V30 7 1 7 8
M  V30 8 2 8 9
M  V30 9 1 9 10
M  V30 10 2 10 11
M  V30 11 1 10 12
M  V30 12 1 12 13
M  V30 13 1 13 14
M  V30 14 1 14 15
M  V30 15 1 15 16
M  V30 16 1 16 17
M  V30 17 1 17 18
M  V30 18 1 18 19
M  V30 19 1 19 20
M  V30 20 2 20 21
M  V30 21 1 20 22
M  V30 22 1 17 23
M  V30 23 1 23 24
M  V30 24 1 9 25
M  V30 25 2 25 26
M  V30 26 1 26 3
M  V30 27 1 25 6
M  V30 28 1 24 14
M  V30 29 1 1 27
M  V30 30 1 1 28
M  V30 31 1 1 29
M  V30 32 1 4 30
M  V30 33 1 5 31
M  V30 34 1 7 32
M  V30 35 1 12 33
M  V30 36 1 13 34
M  V30 37 1 13 35
M  V30 38 1 14 36
M  V30 39 1 15 37
M  V30 40 1 15 38
M  V30 41 1 16 39
M  V30 42 1 16 40
M  V30 43 1 18 41
M  V30 44 1 18 42
M  V30 45 1 19 43
M  V30 46 1 19 44
M  V30 47 1 22 45
M  V30 48 1 23 46
M  V30 49 1 23 47
M  V30 50 1 24 48
M  V30 51 1 24 49
M  V30 52 1 26 50
M  V30 END BOND
M  V30 END CTAB
M  END
>  <Dataset>  (66) 
ChEMBL_Kinases

>  <Ligand_Instance>  (66) 
nan

>  <PDB_ID>  (66) 
nan

>  <Standardized_SMILES>  (66) 
COc1ccc2[nH]nc(C(=O)NCC3CCN(CCC(=O)O)CC3)c2c1

>  <Name>  (66) 
nan

>  <Pocket>  (66) 
nan

>  <ATP_Site>  (66) 
nan

>  <Peripheral>  (66) 
nan

>  <Num_H_Atoms_ProtBoundConf>  (66) 
nan

>  <Num_Resolved_Atoms>  (66) 
nan

>  <Num_Not_Resolved_Atoms>  (66) 
nan

$$$$
CHEMBL3735291
     RDKit          3D

  0  0  0  0  0  0  0  0  0  0999 V3000
M  V30 BEGIN CTAB
M  V30 COUNTS 57 60 0 0 0
M  V30 BEGIN ATOM
M  V30 1 C 4.731096 1.016581 5.780101 0
M  V30 2 O 5.396021 1.075418 4.534078 0
M  V30 3 C 4.848994 0.547675 3.381878 0
M  V30 4 O 3.869862 0.209126 4.072780 0
M  V30 5 C 5.451605 0.561381 2.072850 0
M  V30 6 C 6.689553 1.111956 1.885607 0
M  V30 7 C 6.869123 0.885248 0.519674 0
M  V30 8 O 5.843269 0.280452 0.023212 0
M  V30 9 C 4.904250 0.037890 0.927909 0
M  V30 10 C 3.639421 -0.630182 0.640674 0
M  V30 11 N 2.535041 0.206957 0.480496 0
M  V30 12 C 2.063727 1.036641 1.493257 0
M  V30 13 C 0.734650 1.730778 1.097433 0
M  V30 14 C -0.085370 0.622200 0.512759 0
M  V30 15 C -1.563931 0.847297 0.574141 0
M  V30 16 N -2.213685 -0.306176 -0.023576 0
M  V30 17 C -3.612187 -0.143840 0.013617 0
M  V30 18 O -3.806967 0.989523 0.575947 0
M  V30 19 C -4.765884 -0.898420 -0.400520 0
M  V30 20 N -5.970947 -0.364480 -0.141642 0
M  V30 21 N -6.922160 -1.191531 -0.591737 0
M  V30 22 C -6.413324 -2.287890 -1.157611 0
M  V30 23 C -6.877723 -3.433037 -1.766840 0
M  V30 24 C -5.983784 -4.390640 -2.254827 0
M  V30 25 C -4.614148 -4.144601 -2.102257 0
M  V30 26 O -3.687931 -5.063200 -2.569710 0
M  V30 27 C -3.975579 -6.265278 -3.207167 0
M  V30 28 C -4.150549 -3.001069 -1.493408 0
M  V30 29 C -5.056227 -2.082576 -1.026589 0
M  V30 30 C 0.445992 0.317441 -0.861553 0
M  V30 31 C 1.938106 0.316135 -0.804443 0
M  V30 32 H 4.500813 -0.009598 6.102547 0
M  V30 33 H 5.322526 1.484410 6.589454 0
M  V30 34 H 3.779614 1.602337 5.715077 0
M  V30 35 H 7.355674 1.590786 2.584530 0
M  V30 36 H 7.750547 1.173646 -0.064602 0
M  V30 37 H 3.477850 -1.467430 1.389097 0
M  V30 38 H 3.761002 -1.208558 -0.326850 0
M  V30 39 H 2.806091 1.793951 1.794310 0
M  V30 40 H 1.776483 0.437863 2.383422 0
M  V30 41 H 1.016352 2.416930 0.272940 0
M  V30 42 H 0.292782 2.257680 1.939229 0
M  V30 43 H 0.106153 -0.304196 1.114985 0
M  V30 44 H -1.791851 1.797253 0.033185 0
M  V30 45 H -1.861749 1.008936 1.615335 0
M  V30 46 H -1.930768 -1.202822 -0.462200 0
M  V30 47 H -7.938143 -0.989778 -0.502850 0
M  V30 48 H -7.947984 -3.558370 -1.851005 0
M  V30 49 H -6.344440 -5.294271 -2.735368 0
M  V30 50 H -3.103298 -6.947451 -2.991822 0
M  V30 51 H -4.033837 -6.175704 -4.317559 0
M  V30 52 H -4.871671 -6.799397 -2.829034 0
M  V30 53 H -3.095405 -2.858676 -1.400924 0
M  V30 54 H 0.108883 1.183825 -1.503788 0
M  V30 55 H 0.025770 -0.634344 -1.259083 0
M  V30 56 H 2.352299 1.182118 -1.392098 0
M  V30 57 H 2.288005 -0.582670 -1.390372 0
M  V30 END ATOM
M  V30 BEGIN BOND
M  V30 1 1 1 2
M  V30 2 1 2 3
M  V30 3 2 3 4
M  V30 4 1 3 5
M  V30 5 1 5 6
M  V30 6 2 6 7
M  V30 7 1 7 8
M  V30 8 1 8 9
M  V30 9 1 9 10
M  V30 10 1 10 11
M  V30 11 1 11 12
M  V30 12 1 12 13
M  V30 13 1 13 14
M  V30 14 1 14 15
M  V30 15 1 15 16
M  V30 16 1 16 17
M  V30 17 2 17 18
M  V30 18 1 17 19
M  V30 19 2 19 20
M  V30 20 1 20 21
M  V30 21 1 21 22
M  V30 22 2 22 23
M  V30 23 1 23 24
M  V30 24 2 24 25
M  V30 25 1 25 26
M  V30 26 1 26 27
M  V30 27 1 25 28
M  V30 28 2 28 29
M  V30 29 1 14 30
M  V30 30 1 30 31
M  V30 31 2 9 5
M  V30 32 1 31 11
M  V30 33 1 29 19
M  V30 34 1 29 22
M  V30 35 1 1 32
M  V30 36 1 1 33
M  V30 37 1 1 34
M  V30 38 1 6 35
M  V30 39 1 7 36
M  V30 40 1 10 37
M  V30 41 1 10 38
M  V30 42 1 12 39
M  V30 43 1 12 40
M  V30 44 1 13 41
M  V30 45 1 13 42
M  V30 46 1 14 43
M  V30 47 1 15 44
M  V30 48 1 15 45
M  V30 49 1 16 46
M  V30 50 1 21 47
M  V30 51 1 23 48
M  V30 52 1 24 49
M  V30 53 1 27 50
M  V30 54 1 27 51
M  V30 55 1 27 52
M  V30 56 1 28 53
M  V30 57 1 30 54
M  V30 58 1 30 55
M  V30 59 1 31 56
M  V30 60 1 31 57
M  V30 END BOND
M  V30 END CTAB
M  END
>  <Dataset>  (67) 
ChEMBL_Kinases

>  <Ligand_Instance>  (67) 
nan

>  <PDB_ID>  (67) 
nan

>  <Standardized_SMILES>  (67) 
COC(=O)c1ccoc1CN1CCC(CNC(=O)c2n[nH]c3ccc(OC)cc23)CC1

>  <Name>  (67) 
nan

>  <Pocket>  (67) 
nan

>  <ATP_Site>  (67) 
nan

>  <Peripheral>  (67) 
nan

>  <Num_H_Atoms_ProtBoundConf>  (67) 
nan

>  <Num_Resolved_Atoms>  (67) 
nan

>  <Num_Not_Resolved_Atoms>  (67) 
nan

$$$$
CHEMBL575923
     RDKit          3D

  0  0  0  0  0  0  0  0  0  0999 V3000
M  V30 BEGIN CTAB
M  V30 COUNTS 58 61 0 0 0
M  V30 BEGIN ATOM
M  V30 1 C 5.080118 -3.749636 -0.287690 0
M  V30 2 C 3.636824 -3.757315 -0.595144 0
M  V30 3 C 2.903052 -2.777878 0.084170 0
M  V30 4 C 1.547200 -2.718842 -0.139480 0
M  V30 5 O 0.811755 -1.758688 0.521691 0
M  V30 6 C 1.449518 -0.840037 1.328915 0
M  V30 7 C 2.033402 -0.818437 2.570407 0
M  V30 8 C 2.586287 0.327477 3.080755 0
M  V30 9 N 2.593410 1.493945 2.411776 0
M  V30 10 C 2.039697 1.592922 1.167859 0
M  V30 11 N 1.969113 2.831600 0.426321 0
M  V30 12 C 0.585516 3.037664 0.808834 0
M  V30 13 C 0.098951 3.281539 2.093277 0
M  V30 14 C -1.291758 3.373064 2.309222 0
M  V30 15 C -2.153677 3.213166 1.220414 0
M  V30 16 C -3.485632 3.332385 1.853836 0
M  V30 17 O -4.049836 4.343523 2.317692 0
M  V30 18 N -4.062732 2.049169 1.864441 0
M  V30 19 C -5.369239 2.033062 2.503183 0
M  V30 20 C -3.618495 0.770698 1.359480 0
M  V30 21 C -1.678443 2.976233 -0.043014 0
M  V30 22 C -0.314981 2.891672 -0.231714 0
M  V30 23 C 1.482207 0.400159 0.666744 0
M  V30 24 C 0.827850 -3.559360 -0.997671 0
M  V30 25 C -0.621455 -3.414643 -1.205072 0
M  V30 26 C -1.403200 -4.541270 -1.311633 0
M  V30 27 C -2.780567 -4.366224 -1.491500 0
M  V30 28 C -3.331042 -3.087030 -1.557572 0
M  V30 29 C -2.495849 -1.996482 -1.443121 0
M  V30 30 N -1.150430 -2.183425 -1.268481 0
M  V30 31 N 1.596021 -4.478510 -1.620562 0
M  V30 32 C 2.912029 -4.571701 -1.430606 0
M  V30 33 C 3.704149 -5.613373 -2.125792 0
M  V30 34 H 5.498413 -2.701562 -0.307794 0
M  V30 35 H 5.226028 -4.096523 0.773310 0
M  V30 36 H 5.693359 -4.390837 -0.927154 0
M  V30 37 H 3.352969 -2.071750 0.767390 0
M  V30 38 H 1.957098 -1.813769 2.995270 0
M  V30 39 H 3.013402 0.223747 4.064005 0
M  V30 40 H 2.640986 3.368419 -0.151884 0
M  V30 41 H 0.922813 3.376612 2.796625 0
M  V30 42 H -1.396994 3.565046 3.368115 0
M  V30 43 H -5.124288 1.841112 3.593026 0
M  V30 44 H -5.922903 2.966879 2.432635 0
M  V30 45 H -5.995371 1.172446 2.209902 0
M  V30 46 H -3.997157 -0.066564 2.005214 0
M  V30 47 H -4.084567 0.559286 0.347519 0
M  V30 48 H -2.526660 0.643598 1.335081 0
M  V30 49 H -2.524721 2.894086 -0.689613 0
M  V30 50 H -0.075509 2.697751 -1.270880 0
M  V30 51 H 1.072075 0.597573 -0.336414 0
M  V30 52 H -0.923828 -5.510901 -1.256475 0
M  V30 53 H -3.407309 -5.241066 -1.579281 0
M  V30 54 H -4.414155 -3.028103 -1.703779 0
M  V30 55 H -3.022061 -1.064218 -1.510504 0
M  V30 56 H 3.899014 -6.484729 -1.437418 0
M  V30 57 H 4.699268 -5.265259 -2.452155 0
M  V30 58 H 3.134943 -5.924553 -3.017440 0
M  V30 END ATOM
M  V30 BEGIN BOND
M  V30 1 1 1 2
M  V30 2 2 2 3
M  V30 3 1 3 4
M  V30 4 1 4 5
M  V30 5 1 5 6
M  V30 6 2 6 7
M  V30 7 1 7 8
M  V30 8 2 8 9
M  V30 9 1 9 10
M  V30 10 1 10 11
M  V30 11 1 11 12
M  V30 12 2 12 13
M  V30 13 1 13 14
M  V30 14 2 14 15
M  V30 15 1 15 16
M  V30 16 2 16 17
M  V30 17 1 16 18
M  V30 18 1 18 19
M  V30 19 1 18 20
M  V30 20 1 15 21
M  V30 21 2 21 22
M  V30 22 2 10 23
M  V30 23 2 4 24
M  V30 24 1 24 25
M  V30 25 2 25 26
M  V30 26 1 26 27
M  V30 27 2 27 28
M  V30 28 1 28 29
M  V30 29 2 29 30
M  V30 30 1 24 31
M  V30 31 2 31 32
M  V30 32 1 32 33
M  V30 33 1 32 2
M  V30 34 1 23 6
M  V30 35 1 30 25
M  V30 36 1 22 12
M  V30 37 1 1 34
M  V30 38 1 1 35
M  V30 39 1 1 36
M  V30 40 1 3 37
M  V30 41 1 7 38
M  V30 42 1 8 39
M  V30 43 1 11 40
M  V30 44 1 13 41
M  V30 45 1 14 42
M  V30 46 1 19 43
M  V30 47 1 19 44
M  V30 48 1 19 45
M  V30 49 1 20 46
M  V30 50 1 20 47
M  V30 51 1 20 48
M  V30 52 1 21 49
M  V30 53 1 22 50
M  V30 54 1 23 51
M  V30 55 1 26 52
M  V30 56 1 27 53
M  V30 57 1 28 54
M  V30 58 1 29 55
M  V30 59 1 33 56
M  V30 60 1 33 57
M  V30 61 1 33 58
M  V30 END BOND
M  V30 END CTAB
M  END
>  <Dataset>  (68) 
ChEMBL_Kinases

>  <Ligand_Instance>  (68) 
nan

>  <PDB_ID>  (68) 
nan

>  <Standardized_SMILES>  (68) 
Cc1cc(Oc2ccnc(Nc3ccc(C(=O)N(C)C)cc3)c2)c(-c2ccccn2)nc1C

>  <Name>  (68) 
nan

>  <Pocket>  (68) 
nan

>  <ATP_Site>  (68) 
nan

>  <Peripheral>  (68) 
nan

>  <Num_H_Atoms_ProtBoundConf>  (68) 
nan

>  <Num_Resolved_Atoms>  (68) 
nan

>  <Num_Not_Resolved_Atoms>  (68) 
nan

$$$$
CHEMBL3733184
     RDKit          3D

  0  0  0  0  0  0  0  0  0  0999 V3000
M  V30 BEGIN CTAB
M  V30 COUNTS 58 62 0 0 0
M  V30 BEGIN ATOM
M  V30 1 C 2.787185 -2.558103 5.173155 0
M  V30 2 C 3.237207 -3.218403 3.912878 0
M  V30 3 C 2.113011 -3.582142 3.012599 0
M  V30 4 C 1.263215 -2.493359 2.489450 0
M  V30 5 C 2.105789 -1.370662 1.985458 0
M  V30 6 C 3.445940 -1.424932 2.298384 0
M  V30 7 S 4.159710 0.063277 1.482388 0
M  V30 8 C 2.636613 0.601290 0.821152 0
M  V30 9 N 2.468788 1.713882 0.073428 0
M  V30 10 C 1.241586 2.021547 -0.368252 0
M  V30 11 C 1.010861 3.201794 -1.173312 0
M  V30 12 C 2.067577 4.023699 -1.492385 0
M  V30 13 C 1.795291 5.136159 -2.262208 0
M  V30 14 N 0.548703 5.427502 -2.697112 0
M  V30 15 C -0.498592 4.635413 -2.395346 0
M  V30 16 C -0.255018 3.516921 -1.627339 0
M  V30 17 N 0.301985 1.160348 -0.001060 0
M  V30 18 C 0.463183 0.055906 0.740310 0
M  V30 19 N -0.749283 -0.642530 1.006774 0
M  V30 20 C -2.021301 -0.213903 0.465775 0
M  V30 21 C -3.200025 -1.034874 0.821425 0 CFG=1
M  V30 22 N -4.368015 -0.464682 0.200441 0
M  V30 23 C -3.097504 -2.467765 0.362550 0
M  V30 24 C -2.958143 -2.548758 -1.116158 0
M  V30 25 C -4.094716 -2.636868 -1.909511 0
M  V30 26 C -3.958186 -2.711879 -3.286079 0
M  V30 27 C -2.711759 -2.699741 -3.869080 0
M  V30 28 C -1.601837 -2.611791 -3.061466 0
M  V30 29 C -1.708192 -2.535905 -1.688874 0
M  V30 30 C 1.703497 -0.304303 1.215227 0
M  V30 31 C 4.212174 -2.376036 3.099679 0
M  V30 32 H 1.670410 -2.440096 5.208663 0
M  V30 33 H 3.016645 -3.155124 6.093856 0
M  V30 34 H 3.203210 -1.527964 5.293035 0
M  V30 35 H 3.769085 -4.156734 4.171685 0
M  V30 36 H 2.467540 -4.224583 2.181079 0
M  V30 37 H 1.434949 -4.254815 3.615675 0
M  V30 38 H 0.670420 -2.941653 1.642904 0
M  V30 39 H 0.519277 -2.176976 3.247618 0
M  V30 40 H 3.081100 3.847463 -1.177774 0
M  V30 41 H 2.563343 5.835828 -2.559948 0
M  V30 42 H -1.524306 4.790888 -2.698919 0
M  V30 43 H -1.052973 2.820766 -1.337810 0
M  V30 44 H -0.995271 -1.477161 1.566577 0
M  V30 45 H -1.919067 -0.238192 -0.646608 0
M  V30 46 H -2.228163 0.843872 0.774012 0
M  V30 47 H -3.311061 -1.064540 1.930211 0
M  V30 48 H -4.187150 0.430979 -0.287421 0
M  V30 49 H -5.198302 -0.429948 0.833164 0
M  V30 50 H -4.038394 -2.996151 0.618060 0
M  V30 51 H -2.286667 -2.999626 0.891993 0
M  V30 52 H -5.090511 -2.647781 -1.464574 0
M  V30 53 H -4.850709 -2.780040 -3.891724 0
M  V30 54 H -2.623919 -2.758994 -4.944541 0
M  V30 55 H -0.616350 -2.602939 -3.534594 0
M  V30 56 H -0.790153 -2.469125 -1.123051 0
M  V30 57 H 4.823533 -3.029607 2.450100 0
M  V30 58 H 4.898350 -1.896697 3.822703 0
M  V30 END ATOM
M  V30 BEGIN BOND
M  V30 1 1 1 2
M  V30 2 1 2 3
M  V30 3 1 3 4
M  V30 4 1 4 5
M  V30 5 2 5 6
M  V30 6 1 6 7
M  V30 7 1 7 8
M  V30 8 2 8 9
M  V30 9 1 9 10
M  V30 10 1 10 11
M  V30 11 2 11 12
M  V30 12 1 12 13
M  V30 13 2 13 14
M  V30 14 1 14 15
M  V30 15 2 15 16
M  V30 16 2 10 17
M  V30 17 1 17 18
M  V30 18 1 18 19
M  V30 19 1 19 20
M  V30 20 1 20 21
M  V30 21 1 21 22
M  V30 22 1 21 23
M  V30 23 1 23 24
M  V30 24 2 24 25
M  V30 25 1 25 26
M  V30 26 2 26 27
M  V30 27 1 27 28
M  V30 28 2 28 29
M  V30 29 2 18 30
M  V30 30 1 6 31
M  V30 31 1 31 2
M  V30 32 1 30 5
M  V30 33 1 30 8
M  V30 34 1 16 11
M  V30 35 1 29 24
M  V30 36 1 1 32
M  V30 37 1 1 33
M  V30 38 1 1 34
M  V30 39 1 2 35
M  V30 40 1 3 36
M  V30 41 1 3 37
M  V30 42 1 4 38
M  V30 43 1 4 39
M  V30 44 1 12 40
M  V30 45 1 13 41
M  V30 46 1 15 42
M  V30 47 1 16 43
M  V30 48 1 19 44
M  V30 49 1 20 45
M  V30 50 1 20 46
M  V30 51 1 21 47 CFG=1
M  V30 52 1 22 48
M  V30 53 1 22 49
M  V30 54 1 23 50
M  V30 55 1 23 51
M  V30 56 1 25 52
M  V30 57 1 26 53
M  V30 58 1 27 54
M  V30 59 1 28 55
M  V30 60 1 29 56
M  V30 61 1 31 57
M  V30 62 1 31 58
M  V30 END BOND
M  V30 END CTAB
M  END
>  <Dataset>  (69) 
ChEMBL_Kinases

>  <Ligand_Instance>  (69) 
nan

>  <PDB_ID>  (69) 
nan

>  <Standardized_SMILES>  (69) 
CC1CCc2c(sc3nc(-c4ccncc4)nc(NC[C@@H](N)Cc4ccccc4)c23)C1

>  <Name>  (69) 
nan

>  <Pocket>  (69) 
nan

>  <ATP_Site>  (69) 
nan

>  <Peripheral>  (69) 
nan

>  <Num_H_Atoms_ProtBoundConf>  (69) 
nan

>  <Num_Resolved_Atoms>  (69) 
nan

>  <Num_Not_Resolved_Atoms>  (69) 
nan

$$$$
CHEMBL3733170
     RDKit          3D

  0  0  0  0  0  0  0  0  0  0999 V3000
M  V30 BEGIN CTAB
M  V30 COUNTS 34 35 0 0 0
M  V30 BEGIN ATOM
M  V30 1 N 0.146213 -2.587145 4.074584 0
M  V30 2 C 0.924740 -2.732438 3.205548 0
M  V30 3 C 1.860456 -2.929059 2.139598 0
M  V30 4 C 2.516223 -4.121808 2.030734 0
M  V30 5 C 3.408052 -4.293899 1.005386 0
M  V30 6 C 3.633985 -3.292873 0.113474 0
M  V30 7 C 3.009526 -2.063117 0.160166 0
M  V30 8 N 3.241846 -1.009357 -0.766544 0
M  V30 9 C 2.580487 0.281680 -0.725924 0
M  V30 10 C 1.131969 0.033273 -0.897026 0
M  V30 11 O 0.293840 -0.888937 -1.062934 0
M  V30 12 N 0.392163 1.251125 -0.868838 0
M  V30 13 N -1.022976 1.241452 -1.015900 0
M  V30 14 C -1.776153 1.325053 0.007637 0
M  V30 15 C -3.167202 1.361949 0.439232 0
M  V30 16 C -3.828485 0.186820 0.733029 0
M  V30 17 Cl -3.055436 -1.379287 0.607365 0
M  V30 18 C -5.131296 0.369954 1.126749 0
M  V30 19 N -5.730620 1.570121 1.225192 0
M  V30 20 C -5.057091 2.699307 0.930999 0
M  V30 21 C -3.740211 2.613706 0.525621 0
M  V30 22 Cl -2.840912 4.081932 0.135847 0
M  V30 23 C 2.112683 -1.918150 1.208438 0
M  V30 24 H 2.308606 -4.896221 2.762330 0
M  V30 25 H 3.938865 -5.234023 0.901927 0
M  V30 26 H 4.353900 -3.465437 -0.693855 0
M  V30 27 H 3.958980 -1.238276 -1.519587 0
M  V30 28 H 3.005643 0.900355 -1.534788 0
M  V30 29 H 2.821966 0.771542 0.233653 0
M  V30 30 H 0.684349 2.267034 -0.751673 0
M  V30 31 H -1.265702 1.402257 0.976519 0
M  V30 32 H -5.728006 -0.514084 1.378717 0
M  V30 33 H -5.540532 3.669191 1.010358 0
M  V30 34 H 1.558522 -1.006125 1.362208 0
M  V30 END ATOM
M  V30 BEGIN BOND
M  V30 1 3 1 2
M  V30 2 1 2 3
M  V30 3 2 3 4
M  V30 4 1 4 5
M  V30 5 2 5 6
M  V30 6 1 6 7
M  V30 7 1 7 8
M  V30 8 1 8 9
M  V30 9 1 9 10
M  V30 10 2 10 11
M  V30 11 1 10 12
M  V30 12 1 12 13
M  V30 13 2 13 14
M  V30 14 1 14 15
M  V30 15 2 15 16
M  V30 16 1 16 17
M  V30 17 1 16 18
M  V30 18 2 18 19
M  V30 19 1 19 20
M  V30 20 2 20 21
M  V30 21 1 21 22
M  V30 22 2 7 23
M  V30 23 1 23 3
M  V30 24 1 21 15
M  V30 25 1 4 24
M  V30 26 1 5 25
M  V30 27 1 6 26
M  V30 28 1 8 27
M  V30 29 1 9 28
M  V30 30 1 9 29
M  V30 31 1 12 30
M  V30 32 1 14 31
M  V30 33 1 18 32
M  V30 34 1 20 33
M  V30 35 1 23 34
M  V30 END BOND
M  V30 END CTAB
M  END
>  <Dataset>  (70) 
ChEMBL_Kinases

>  <Ligand_Instance>  (70) 
nan

>  <PDB_ID>  (70) 
nan

>  <Standardized_SMILES>  (70) 
N#Cc1cccc(NCC(=O)N/N=C/c2c(Cl)cncc2Cl)c1

>  <Name>  (70) 
nan

>  <Pocket>  (70) 
nan

>  <ATP_Site>  (70) 
nan

>  <Peripheral>  (70) 
nan

>  <Num_H_Atoms_ProtBoundConf>  (70) 
nan

>  <Num_Resolved_Atoms>  (70) 
nan

>  <Num_Not_Resolved_Atoms>  (70) 
nan

$$$$
CHEMBL3733148
     RDKit          3D

  0  0  0  0  0  0  0  0  0  0999 V3000
M  V30 BEGIN CTAB
M  V30 COUNTS 50 54 0 0 0
M  V30 BEGIN ATOM
M  V30 1 C -0.798162 0.140116 2.869015 0
M  V30 2 N -0.589143 -1.192103 3.373995 0
M  V30 3 C -1.538796 -2.112450 2.824423 0
M  V30 4 C -0.770183 -3.141002 2.040099 0
M  V30 5 C 0.566121 -3.164075 2.765940 0 CFG=1
M  V30 6 N 1.640638 -3.697327 1.996849 0
M  V30 7 C 2.020835 -3.130332 0.774298 0
M  V30 8 N 1.387495 -2.046076 0.249693 0
M  V30 9 C 1.879650 -1.614823 -0.949429 0
M  V30 10 C 1.227868 -0.442731 -1.563760 0
M  V30 11 C 1.670665 0.052393 -2.769585 0
M  V30 12 C 1.039879 1.152031 -3.319411 0
M  V30 13 N 0.006492 1.728027 -2.680579 0
M  V30 14 C -0.410264 1.218901 -1.491515 0
M  V30 15 N -1.511716 1.846571 -0.827885 0
M  V30 16 C -1.268817 2.881314 0.074373 0
M  V30 17 O -0.203957 3.423936 0.460190 0
M  V30 18 C -2.397260 3.484088 0.718276 0
M  V30 19 C -3.842763 3.137684 0.543303 0
M  V30 20 C -4.692282 3.895065 1.299416 0
M  V30 21 C -4.251108 4.897725 2.154536 0
M  V30 22 S -2.398002 4.817092 1.909838 0
M  V30 23 C 0.180343 0.109988 -0.877081 0
M  V30 24 N 2.906177 -2.188096 -1.592664 0
M  V30 25 C 3.551235 -3.260852 -1.098142 0
M  V30 26 C 4.591684 -3.850349 -1.739466 0
M  V30 27 C 5.134839 -4.992516 -1.021770 0
M  V30 28 S 4.054808 -5.083949 0.531121 0
M  V30 29 C 3.060602 -3.692858 0.099817 0
M  V30 30 C 0.724253 -1.709568 3.153470 0
M  V30 31 H 0.158196 0.634577 2.561160 0
M  V30 32 H -1.532304 0.176204 2.031622 0
M  V30 33 H -1.229867 0.746079 3.713429 0
M  V30 34 H -2.034968 -2.648814 3.685345 0
M  V30 35 H -2.362935 -1.635536 2.253849 0
M  V30 36 H -1.211479 -4.155903 2.121972 0
M  V30 37 H -0.721119 -2.794624 1.011241 0
M  V30 38 H 0.383831 -3.775283 3.681010 0
M  V30 39 H 2.127964 -4.532450 2.394528 0
M  V30 40 H 2.510897 -0.438906 -3.260158 0
M  V30 41 H 1.384301 1.546254 -4.268775 0
M  V30 42 H -2.467900 1.509087 -1.040468 0
M  V30 43 H -4.090175 2.347091 -0.140318 0
M  V30 44 H -5.752679 3.710150 1.232911 0
M  V30 45 H -4.737041 5.520228 2.756219 0
M  V30 46 H -0.189474 -0.253617 0.066468 0
M  V30 47 H 5.064481 -3.609332 -2.672785 0
M  V30 48 H 6.030449 -5.607479 -1.438188 0
M  V30 49 H 1.330448 -1.147931 2.432421 0
M  V30 50 H 1.269767 -1.697057 4.140417 0
M  V30 END ATOM
M  V30 BEGIN BOND
M  V30 1 1 1 2
M  V30 2 1 2 3
M  V30 3 1 3 4
M  V30 4 1 4 5
M  V30 5 1 5 6
M  V30 6 1 6 7
M  V30 7 2 7 8
M  V30 8 1 8 9
M  V30 9 1 9 10
M  V30 10 2 10 11
M  V30 11 1 11 12
M  V30 12 2 12 13
M  V30 13 1 13 14
M  V30 14 1 14 15
M  V30 15 1 15 16
M  V30 16 2 16 17
M  V30 17 1 16 18
M  V30 18 2 18 19
M  V30 19 1 19 20
M  V30 20 2 20 21
M  V30 21 1 21 22
M  V30 22 2 14 23
M  V30 23 2 9 24
M  V30 24 1 24 25
M  V30 25 1 25 26
M  V30 26 2 26 27
M  V30 27 1 27 28
M  V30 28 1 28 29
M  V30 29 1 5 30
M  V30 30 1 30 2
M  V30 31 1 29 7
M  V30 32 1 23 10
M  V30 33 2 29 25
M  V30 34 1 22 18
M  V30 35 1 1 31
M  V30 36 1 1 32
M  V30 37 1 1 33
M  V30 38 1 3 34
M  V30 39 1 3 35
M  V30 40 1 4 36
M  V30 41 1 4 37
M  V30 42 1 5 38 CFG=1
M  V30 43 1 6 39
M  V30 44 1 11 40
M  V30 45 1 12 41
M  V30 46 1 15 42
M  V30 47 1 19 43
M  V30 48 1 20 44
M  V30 49 1 21 45
M  V30 50 1 23 46
M  V30 51 1 26 47
M  V30 52 1 27 48
M  V30 53 1 30 49
M  V30 54 1 30 50
M  V30 END BOND
M  V30 END CTAB
M  END
>  <Dataset>  (71) 
ChEMBL_Kinases

>  <Ligand_Instance>  (71) 
nan

>  <PDB_ID>  (71) 
nan

>  <Standardized_SMILES>  (71) 
CN1CC[C@@H](Nc2nc(-c3ccnc(NC(=O)c4cccs4)c3)nc3ccsc23)C1

>  <Name>  (71) 
nan

>  <Pocket>  (71) 
nan

>  <ATP_Site>  (71) 
nan

>  <Peripheral>  (71) 
nan

>  <Num_H_Atoms_ProtBoundConf>  (71) 
nan

>  <Num_Resolved_Atoms>  (71) 
nan

>  <Num_Not_Resolved_Atoms>  (71) 
nan

$$$$
CHEMBL512012
     RDKit          3D

  0  0  0  0  0  0  0  0  0  0999 V3000
M  V30 BEGIN CTAB
M  V30 COUNTS 47 51 0 0 0
M  V30 BEGIN ATOM
M  V30 1 N 2.457642 -3.503370 4.097937 0
M  V30 2 C 2.638443 -2.237561 3.433870 0
M  V30 3 O 2.707246 -1.872034 4.631119 0
M  V30 4 C 2.579988 -2.514555 1.997849 0
M  V30 5 C 2.766654 -1.292007 1.125078 0
M  V30 6 N 1.750693 -0.286859 1.371956 0
M  V30 7 C 1.767204 0.733260 2.251548 0
M  V30 8 C 2.808594 1.025674 3.124906 0
M  V30 9 C 2.725172 2.097577 3.988682 0
M  V30 10 C 1.560411 2.871583 3.950481 0
M  V30 11 O 1.476796 3.951929 4.821373 0
M  V30 12 C 0.563655 2.533890 3.065230 0
M  V30 13 C 0.612646 1.483446 2.199063 0
M  V30 14 C -0.144410 0.886384 1.236185 0
M  V30 15 C -1.381390 1.211647 0.771466 0
M  V30 16 C -1.959833 0.456968 -0.218461 0
M  V30 17 C -1.299147 -0.631801 -0.749439 0
M  V30 18 C -1.731591 -1.570545 -1.774720 0
M  V30 19 C -0.842151 -1.793379 -2.833996 0
M  V30 20 C -1.050081 -2.646468 -3.896110 0
M  V30 21 C -2.245091 -3.331740 -3.897683 0
M  V30 22 C -3.154505 -3.154317 -2.887162 0
M  V30 23 C -2.905744 -2.290147 -1.842420 0
M  V30 24 C -0.026436 -0.952408 -0.260229 0
M  V30 25 C 0.550198 -0.190174 0.734756 0
M  V30 26 C -3.279621 0.932859 -0.614674 0
M  V30 27 O -4.064147 0.483591 -1.472732 0
M  V30 28 N -3.484604 2.080907 0.235647 0
M  V30 29 C -2.340750 2.232301 1.056917 0
M  V30 30 O -2.370188 3.184394 1.847305 0
M  V30 31 H 2.337436 -4.419172 4.578393 0
M  V30 32 H 2.015263 -4.355403 4.544508 0
M  V30 33 H 3.361342 -3.244181 1.702569 0
M  V30 34 H 1.596071 -3.001495 1.734443 0
M  V30 35 H 3.790421 -0.930325 1.246443 0
M  V30 36 H 2.668658 -1.646892 0.079106 0
M  V30 37 H 3.714565 0.440096 3.168211 0
M  V30 38 H 3.543233 2.311794 4.661558 0
M  V30 39 H 1.328584 4.864894 4.394907 0
M  V30 40 H -0.266440 3.163578 3.104916 0
M  V30 41 H 0.111203 -1.258768 -2.850260 0
M  V30 42 H -0.320011 -2.762473 -4.668774 0
M  V30 43 H -2.465215 -4.019772 -4.711208 0
M  V30 44 H -4.112599 -3.682728 -2.857993 0
M  V30 45 H -3.589700 -2.138944 -1.039536 0
M  V30 46 H 0.582169 -1.795850 -0.614444 0
M  V30 47 H -4.390543 2.632326 0.155015 0
M  V30 END ATOM
M  V30 BEGIN BOND
M  V30 1 1 1 2
M  V30 2 2 2 3
M  V30 3 1 2 4
M  V30 4 1 4 5
M  V30 5 1 5 6
M  V30 6 1 6 7
M  V30 7 2 7 8
M  V30 8 1 8 9
M  V30 9 2 9 10
M  V30 10 1 10 11
M  V30 11 1 10 12
M  V30 12 2 12 13
M  V30 13 1 13 14
M  V30 14 2 14 15
M  V30 15 1 15 16
M  V30 16 2 16 17
M  V30 17 1 17 18
M  V30 18 2 18 19
M  V30 19 1 19 20
M  V30 20 2 20 21
M  V30 21 1 21 22
M  V30 22 2 22 23
M  V30 23 1 17 24
M  V30 24 2 24 25
M  V30 25 1 16 26
M  V30 26 2 26 27
M  V30 27 1 26 28
M  V30 28 1 28 29
M  V30 29 2 29 30
M  V30 30 1 25 6
M  V30 31 1 13 7
M  V30 32 1 25 14
M  V30 33 1 29 15
M  V30 34 1 23 18
M  V30 35 1 1 31
M  V30 36 1 1 32
M  V30 37 1 4 33
M  V30 38 1 4 34
M  V30 39 1 5 35
M  V30 40 1 5 36
M  V30 41 1 8 37
M  V30 42 1 9 38
M  V30 43 1 11 39
M  V30 44 1 12 40
M  V30 45 1 19 41
M  V30 46 1 20 42
M  V30 47 1 21 43
M  V30 48 1 22 44
M  V30 49 1 23 45
M  V30 50 1 24 46
M  V30 51 1 28 47
M  V30 END BOND
M  V30 END CTAB
M  END
>  <Dataset>  (72) 
ChEMBL_Kinases

>  <Ligand_Instance>  (72) 
nan

>  <PDB_ID>  (72) 
nan

>  <Standardized_SMILES>  (72) 
NC(=O)CCn1c2ccc(O)cc2c2c3c(c(-c4ccccc4)cc21)C(=O)NC3=O

>  <Name>  (72) 
nan

>  <Pocket>  (72) 
nan

>  <ATP_Site>  (72) 
nan

>  <Peripheral>  (72) 
nan

>  <Num_H_Atoms_ProtBoundConf>  (72) 
nan

>  <Num_Resolved_Atoms>  (72) 
nan

>  <Num_Not_Resolved_Atoms>  (72) 
nan

$$$$
CHEMBL3733121
     RDKit          3D

  0  0  0  0  0  0  0  0  0  0999 V3000
M  V30 BEGIN CTAB
M  V30 COUNTS 46 50 0 0 0
M  V30 BEGIN ATOM
M  V30 1 C -0.181993 -6.411876 -0.706640 0
M  V30 2 C -0.084607 -5.055997 -0.438720 0
M  V30 3 C -0.774176 -4.602746 0.683528 0
M  V30 4 C -0.694609 -3.187369 0.995032 0
M  V30 5 N -0.064617 -2.239094 0.378995 0
M  V30 6 C 0.030698 -0.953806 0.629098 0
M  V30 7 N 0.800159 -0.070195 -0.223344 0
M  V30 8 C 1.548297 0.773104 -1.056741 0 CFG=2
M  V30 9 C 1.125291 0.815963 -2.534057 0
M  V30 10 C 2.311137 1.507715 -3.129272 0
M  V30 11 N 3.425292 1.323497 -2.257000 0
M  V30 12 C 3.035198 0.443703 -1.201557 0
M  V30 13 C -0.629741 -0.448100 1.726808 0
M  V30 14 C -0.751922 0.800755 2.277527 0
M  V30 15 C -1.487145 1.067478 3.406852 0
M  V30 16 S -2.127846 -0.639197 3.809250 0
M  V30 17 C -1.326944 -1.442708 2.424359 0
M  V30 18 N -1.332786 -2.702014 2.053686 0
M  V30 19 C -1.745901 2.252194 4.120119 0
M  V30 20 C -0.497778 3.087725 4.259225 0
M  V30 21 C 0.496892 2.727466 3.178288 0
M  V30 22 C -0.231286 2.151712 1.965885 0
M  V30 23 C -1.512117 -5.457794 1.482029 0
M  V30 24 C -1.569306 -6.800790 1.160493 0
M  V30 25 N -0.898933 -7.251880 0.066356 0
M  V30 26 H 0.363001 -6.747604 -1.586842 0
M  V30 27 H 0.479855 -4.351844 -1.034512 0
M  V30 28 H 1.166648 -0.728188 -0.937356 0
M  V30 29 H 1.523422 1.853809 -0.738111 0
M  V30 30 H 1.123606 -0.221533 -2.890626 0
M  V30 31 H 0.174765 1.357168 -2.661525 0
M  V30 32 H 2.554324 1.144961 -4.149572 0
M  V30 33 H 2.048889 2.603524 -3.165472 0
M  V30 34 H 3.824029 2.202565 -1.894110 0
M  V30 35 H 3.555158 0.602331 -0.246677 0
M  V30 36 H 3.118838 -0.614916 -1.488740 0
M  V30 37 H -2.089003 2.029233 5.149622 0
M  V30 38 H -2.521135 2.880252 3.636064 0
M  V30 39 H -0.010479 2.927442 5.235842 0
M  V30 40 H -0.741231 4.166340 4.164465 0
M  V30 41 H 1.194034 1.986130 3.581127 0
M  V30 42 H 1.011385 3.642484 2.842979 0
M  V30 43 H 0.479480 2.216303 1.155278 0
M  V30 44 H -1.062083 2.861556 1.737502 0
M  V30 45 H -2.023427 -5.047537 2.336408 0
M  V30 46 H -2.143037 -7.496690 1.771961 0
M  V30 END ATOM
M  V30 BEGIN BOND
M  V30 1 2 1 2
M  V30 2 1 2 3
M  V30 3 1 3 4
M  V30 4 2 4 5
M  V30 5 1 5 6
M  V30 6 1 6 7
M  V30 7 1 7 8
M  V30 8 1 8 9
M  V30 9 1 9 10
M  V30 10 1 10 11
M  V30 11 1 11 12
M  V30 12 2 6 13
M  V30 13 1 13 14
M  V30 14 2 14 15
M  V30 15 1 15 16
M  V30 16 1 16 17
M  V30 17 2 17 18
M  V30 18 1 15 19
M  V30 19 1 19 20
M  V30 20 1 20 21
M  V30 21 1 21 22
M  V30 22 2 3 23
M  V30 23 1 23 24
M  V30 24 2 24 25
M  V30 25 1 25 1
M  V30 26 1 18 4
M  V30 27 1 12 8
M  V30 28 1 17 13
M  V30 29 1 22 14
M  V30 30 1 1 26
M  V30 31 1 2 27
M  V30 32 1 7 28
M  V30 33 1 8 29 CFG=1
M  V30 34 1 9 30
M  V30 35 1 9 31
M  V30 36 1 10 32
M  V30 37 1 10 33
M  V30 38 1 11 34
M  V30 39 1 12 35
M  V30 40 1 12 36
M  V30 41 1 19 37
M  V30 42 1 19 38
M  V30 43 1 20 39
M  V30 44 1 20 40
M  V30 45 1 21 41
M  V30 46 1 21 42
M  V30 47 1 22 43
M  V30 48 1 22 44
M  V30 49 1 23 45
M  V30 50 1 24 46
M  V30 END BOND
M  V30 END CTAB
M  END
>  <Dataset>  (73) 
ChEMBL_Kinases

>  <Ligand_Instance>  (73) 
nan

>  <PDB_ID>  (73) 
nan

>  <Standardized_SMILES>  (73) 
c1cc(-c2nc(N[C@@H]3CCNC3)c3c4c(sc3n2)CCCC4)ccn1

>  <Name>  (73) 
nan

>  <Pocket>  (73) 
nan

>  <ATP_Site>  (73) 
nan

>  <Peripheral>  (73) 
nan

>  <Num_H_Atoms_ProtBoundConf>  (73) 
nan

>  <Num_Resolved_Atoms>  (73) 
nan

>  <Num_Not_Resolved_Atoms>  (73) 
nan

$$$$
CHEMBL512016
     RDKit          3D

  0  0  0  0  0  0  0  0  0  0999 V3000
M  V30 BEGIN CTAB
M  V30 COUNTS 50 52 0 0 0
M  V30 BEGIN ATOM
M  V30 1 C -0.442251 -3.875988 -4.331335 0
M  V30 2 O 0.934516 -3.786136 -4.035680 0
M  V30 3 C 1.425003 -3.075187 -2.975947 0
M  V30 4 C 0.598272 -2.380563 -2.100646 0
M  V30 5 C 1.074676 -1.664656 -1.035091 0
M  V30 6 C 2.440454 -1.609116 -0.789075 0
M  V30 7 C 3.147573 -0.910479 0.282483 0
M  V30 8 O 4.390564 -0.881378 0.473968 0
M  V30 9 O 2.509078 -0.168888 1.251657 0
M  V30 10 C 3.139453 0.519229 2.300006 0
M  V30 11 C 2.125216 1.237419 3.188822 0
M  V30 12 C 2.855340 2.024948 4.251739 0
M  V30 13 O 3.739339 2.928606 3.640269 0
M  V30 14 C 1.290430 2.205124 2.374243 0
M  V30 15 C 0.024610 1.409564 2.135506 0
M  V30 16 C -0.816803 1.378374 1.129195 0
M  V30 17 C -2.000676 0.530954 1.072971 0
M  V30 18 C -1.893340 -0.807312 1.465731 0
M  V30 19 C -2.954141 -1.676505 1.458105 0
M  V30 20 C -4.201530 -1.204932 1.037844 0
M  V30 21 C -5.357368 -2.164224 1.032454 0
M  V30 22 F -4.826790 -3.451200 0.871303 0
M  V30 23 F -6.201826 -1.952192 -0.031338 0
M  V30 24 F -5.977769 -2.159049 2.246942 0
M  V30 25 C -4.318729 0.117701 0.646697 0
M  V30 26 C -3.238694 0.989534 0.658464 0
M  V30 27 C -0.097171 0.637210 3.373629 0
M  V30 28 O -1.267249 0.409489 3.856803 0
M  V30 29 O 1.217175 0.309182 3.759219 0
M  V30 30 C 3.287232 -2.295830 -1.650851 0
M  V30 31 C 2.776014 -3.008089 -2.715502 0
M  V30 32 H -1.037710 -3.953207 -3.403168 0
M  V30 33 H -0.649533 -4.771079 -4.967982 0
M  V30 34 H -0.780319 -2.949219 -4.879105 0
M  V30 35 H -0.480736 -2.380384 -2.233149 0
M  V30 36 H 0.500524 -1.101326 -0.314007 0
M  V30 37 H 3.637908 -0.259699 2.943214 0
M  V30 38 H 3.902923 1.228026 1.984381 0
M  V30 39 H 3.405749 1.339886 4.953188 0
M  V30 40 H 2.085677 2.632390 4.782494 0
M  V30 41 H 3.380370 3.855960 3.676312 0
M  V30 42 H 1.764876 2.275179 1.377238 0
M  V30 43 H 1.105197 3.159619 2.862568 0
M  V30 44 H -0.592323 2.046190 0.282458 0
M  V30 45 H -0.965121 -1.291621 1.801159 0
M  V30 46 H -2.895956 -2.711768 1.756585 0
M  V30 47 H -5.307134 0.471977 0.319200 0
M  V30 48 H -3.342454 2.022269 0.349823 0
M  V30 49 H 4.378685 -2.322293 -1.554315 0
M  V30 50 H 3.410290 -3.557949 -3.410215 0
M  V30 END ATOM
M  V30 BEGIN BOND
M  V30 1 1 1 2
M  V30 2 1 2 3
M  V30 3 2 3 4
M  V30 4 1 4 5
M  V30 5 2 5 6
M  V30 6 1 6 7
M  V30 7 2 7 8
M  V30 8 1 7 9
M  V30 9 1 9 10
M  V30 10 1 10 11
M  V30 11 1 11 12
M  V30 12 1 12 13
M  V30 13 1 11 14
M  V30 14 1 14 15
M  V30 15 2 15 16
M  V30 16 1 16 17
M  V30 17 2 17 18
M  V30 18 1 18 19
M  V30 19 2 19 20
M  V30 20 1 20 21
M  V30 21 1 21 22
M  V30 22 1 21 23
M  V30 23 1 21 24
M  V30 24 1 20 25
M  V30 25 2 25 26
M  V30 26 1 15 27
M  V30 27 2 27 28
M  V30 28 1 27 29
M  V30 29 1 6 30
M  V30 30 2 30 31
M  V30 31 1 31 3
M  V30 32 1 29 11
M  V30 33 1 26 17
M  V30 34 1 1 32
M  V30 35 1 1 33
M  V30 36 1 1 34
M  V30 37 1 4 35
M  V30 38 1 5 36
M  V30 39 1 10 37
M  V30 40 1 10 38
M  V30 41 1 12 39
M  V30 42 1 12 40
M  V30 43 1 13 41
M  V30 44 1 14 42
M  V30 45 1 14 43
M  V30 46 1 16 44
M  V30 47 1 18 45
M  V30 48 1 19 46
M  V30 49 1 25 47
M  V30 50 1 26 48
M  V30 51 1 30 49
M  V30 52 1 31 50
M  V30 END BOND
M  V30 END CTAB
M  END
>  <Dataset>  (74) 
ChEMBL_Kinases

>  <Ligand_Instance>  (74) 
nan

>  <PDB_ID>  (74) 
nan

>  <Standardized_SMILES>  (74) 
COc1ccc(C(=O)OCC2(CO)C/C(=C/c3ccc(C(F)(F)F)cc3)C(=O)O2)cc1

>  <Name>  (74) 
nan

>  <Pocket>  (74) 
nan

>  <ATP_Site>  (74) 
nan

>  <Peripheral>  (74) 
nan

>  <Num_H_Atoms_ProtBoundConf>  (74) 
nan

>  <Num_Resolved_Atoms>  (74) 
nan

>  <Num_Not_Resolved_Atoms>  (74) 
nan

$$$$
CHEMBL512019
     RDKit          3D

  0  0  0  0  0  0  0  0  0  0999 V3000
M  V30 BEGIN CTAB
M  V30 COUNTS 54 55 0 0 0
M  V30 BEGIN ATOM
M  V30 1 C 0.145151 -2.996926 3.429701 0
M  V30 2 C 1.636129 -2.732474 3.294148 0
M  V30 3 C 1.751600 -1.250112 2.967609 0
M  V30 4 C 3.157892 -0.782104 2.793021 0
M  V30 5 C 3.308499 0.677220 2.473936 0
M  V30 6 C 4.804119 1.004164 2.328608 0
M  V30 7 C 5.414881 0.182024 1.215573 0
M  V30 8 C 2.617374 1.098866 1.232105 0
M  V30 9 O 3.263567 1.618771 0.271492 0
M  V30 10 O 1.256677 0.969263 1.016739 0
M  V30 11 C 0.577771 1.365850 -0.151113 0
M  V30 12 C -0.885794 1.039127 0.053517 0
M  V30 13 C -1.471484 1.739587 1.237524 0
M  V30 14 O -0.795766 1.463712 2.422435 0
M  V30 15 C -0.992876 -0.468421 0.171656 0
M  V30 16 C -2.032201 -0.792585 -0.844779 0
M  V30 17 C -2.357109 -1.980397 -1.374511 0
M  V30 18 C -3.387452 -2.209182 -2.368549 0
M  V30 19 C -4.221858 -3.302024 -2.143100 0
M  V30 20 C -5.236019 -3.664652 -2.994359 0
M  V30 21 C -5.477102 -2.941523 -4.139913 0
M  V30 22 Br -6.873738 -3.408300 -5.348209 0
M  V30 23 C -4.646477 -1.861981 -4.355318 0
M  V30 24 C -3.626859 -1.496842 -3.500520 0
M  V30 25 C -2.724472 0.470166 -1.189623 0
M  V30 26 O -3.966105 0.449849 -1.470034 0
M  V30 27 O -1.673265 1.410308 -1.087852 0
M  V30 28 H -0.076983 -3.947862 3.954453 0
M  V30 29 H -0.375667 -2.129558 3.923189 0
M  V30 30 H -0.308221 -3.069660 2.421288 0
M  V30 31 H 1.996454 -3.355013 2.452317 0
M  V30 32 H 2.117331 -2.988161 4.251133 0
M  V30 33 H 1.120158 -1.095016 2.077230 0
M  V30 34 H 1.271146 -0.679227 3.788861 0
M  V30 35 H 3.613182 -1.434484 2.002759 0
M  V30 36 H 3.710989 -0.954710 3.737457 0
M  V30 37 H 2.973725 1.248304 3.364525 0
M  V30 38 H 4.881958 2.074312 2.096929 0
M  V30 39 H 5.309471 0.829756 3.303026 0
M  V30 40 H 6.095704 0.789522 0.586572 0
M  V30 41 H 6.013499 -0.658275 1.620663 0
M  V30 42 H 4.665424 -0.273741 0.539415 0
M  V30 43 H 0.625477 2.477277 -0.271570 0
M  V30 44 H 0.975917 0.928804 -1.068227 0
M  V30 45 H -1.445887 2.835276 1.075244 0
M  V30 46 H -2.539495 1.453477 1.295467 0
M  V30 47 H -1.354616 1.778458 3.169295 0
M  V30 48 H -1.313905 -0.716581 1.200178 0
M  V30 49 H -0.044288 -0.968906 -0.015634 0
M  V30 50 H -1.803799 -2.873025 -1.037619 0
M  V30 51 H -4.094766 -3.928894 -1.252197 0
M  V30 52 H -5.863885 -4.530665 -2.773621 0
M  V30 53 H -4.818935 -1.273683 -5.257325 0
M  V30 54 H -3.004109 -0.662559 -3.715296 0
M  V30 END ATOM
M  V30 BEGIN BOND
M  V30 1 1 1 2
M  V30 2 1 2 3
M  V30 3 1 3 4
M  V30 4 1 4 5
M  V30 5 1 5 6
M  V30 6 1 6 7
M  V30 7 1 5 8
M  V30 8 2 8 9
M  V30 9 1 8 10
M  V30 10 1 10 11
M  V30 11 1 11 12
M  V30 12 1 12 13
M  V30 13 1 13 14
M  V30 14 1 12 15
M  V30 15 1 15 16
M  V30 16 2 16 17
M  V30 17 1 17 18
M  V30 18 2 18 19
M  V30 19 1 19 20
M  V30 20 2 20 21
M  V30 21 1 21 22
M  V30 22 1 21 23
M  V30 23 2 23 24
M  V30 24 1 16 25
M  V30 25 2 25 26
M  V30 26 1 25 27
M  V30 27 1 27 12
M  V30 28 1 24 18
M  V30 29 1 1 28
M  V30 30 1 1 29
M  V30 31 1 1 30
M  V30 32 1 2 31
M  V30 33 1 2 32
M  V30 34 1 3 33
M  V30 35 1 3 34
M  V30 36 1 4 35
M  V30 37 1 4 36
M  V30 38 1 5 37
M  V30 39 1 6 38
M  V30 40 1 6 39
M  V30 41 1 7 40
M  V30 42 1 7 41
M  V30 43 1 7 42
M  V30 44 1 11 43
M  V30 45 1 11 44
M  V30 46 1 13 45
M  V30 47 1 13 46
M  V30 48 1 14 47
M  V30 49 1 15 48
M  V30 50 1 15 49
M  V30 51 1 17 50
M  V30 52 1 19 51
M  V30 53 1 20 52
M  V30 54 1 23 53
M  V30 55 1 24 54
M  V30 END BOND
M  V30 END CTAB
M  END
>  <Dataset>  (75) 
ChEMBL_Kinases

>  <Ligand_Instance>  (75) 
nan

>  <PDB_ID>  (75) 
nan

>  <Standardized_SMILES>  (75) 
CCCCC(CC)C(=O)OCC1(CO)C/C(=C/c2ccc(Br)cc2)C(=O)O1

>  <Name>  (75) 
nan

>  <Pocket>  (75) 
nan

>  <ATP_Site>  (75) 
nan

>  <Peripheral>  (75) 
nan

>  <Num_H_Atoms_ProtBoundConf>  (75) 
nan

>  <Num_Resolved_Atoms>  (75) 
nan

>  <Num_Not_Resolved_Atoms>  (75) 
nan

$$$$
CHEMBL512144
     RDKit          3D

  0  0  0  0  0  0  0  0  0  0999 V3000
M  V30 BEGIN CTAB
M  V30 COUNTS 43 46 0 0 0
M  V30 BEGIN ATOM
M  V30 1 C 2.385334 -6.574633 1.072814 0
M  V30 2 O 1.627200 -5.459355 1.425260 0
M  V30 3 C 2.112628 -4.215904 1.712179 0
M  V30 4 C 3.474810 -4.000237 1.663722 0
M  V30 5 C 4.083316 -2.791586 1.932916 0
M  V30 6 C 3.292689 -1.698782 2.279198 0
M  V30 7 C 4.054530 -0.456530 2.552620 0
M  V30 8 S 4.343905 0.565374 1.115405 0
M  V30 9 C 2.789338 1.218069 0.526583 0
M  V30 10 N 2.902601 2.015268 -0.575084 0
M  V30 11 N 1.670955 2.405934 -0.869378 0
M  V30 12 C 0.805327 1.876482 0.012793 0
M  V30 13 C -0.645302 2.019056 0.096840 0
M  V30 14 C -1.306846 1.366337 1.116048 0
M  V30 15 C -2.697512 1.521894 1.169173 0
M  V30 16 C -3.296613 2.308252 0.208207 0
M  V30 17 C -2.628666 2.963977 -0.816302 0
M  V30 18 C -1.241100 2.806960 -0.866768 0
M  V30 19 C -3.597815 3.714509 -1.659030 0
M  V30 20 C -4.908142 3.073474 -1.270641 0
M  V30 21 O -4.651980 2.619926 0.041179 0
M  V30 22 O 1.516670 1.145453 0.867253 0
M  V30 23 C 1.930439 -1.892312 2.333174 0
M  V30 24 C 1.342858 -3.100369 2.062714 0
M  V30 25 C -0.128343 -3.281642 2.128921 0
M  V30 26 F -0.619271 -3.677705 0.905421 0
M  V30 27 F -0.352519 -4.230010 3.111462 0
M  V30 28 F -0.682495 -2.107249 2.571995 0
M  V30 29 H 3.126094 -6.716106 1.911464 0
M  V30 30 H 1.825098 -7.508189 1.025595 0
M  V30 31 H 2.979830 -6.476597 0.153369 0
M  V30 32 H 4.116961 -4.853558 1.390331 0
M  V30 33 H 5.166988 -2.749899 1.861295 0
M  V30 34 H 5.034866 -0.704461 3.035038 0
M  V30 35 H 3.463296 0.113241 3.326266 0
M  V30 36 H -0.796073 0.760724 1.848508 0
M  V30 37 H -3.287322 1.043528 1.935764 0
M  V30 38 H -0.712754 3.304403 -1.648432 0
M  V30 39 H -3.647533 4.792414 -1.400752 0
M  V30 40 H -3.426379 3.540629 -2.733601 0
M  V30 41 H -5.053685 2.189839 -1.955933 0
M  V30 42 H -5.753884 3.769810 -1.313509 0
M  V30 43 H 1.363470 -1.019810 2.604712 0
M  V30 END ATOM
M  V30 BEGIN BOND
M  V30 1 1 1 2
M  V30 2 1 2 3
M  V30 3 2 3 4
M  V30 4 1 4 5
M  V30 5 2 5 6
M  V30 6 1 6 7
M  V30 7 1 7 8
M  V30 8 1 8 9
M  V30 9 2 9 10
M  V30 10 1 10 11
M  V30 11 2 11 12
M  V30 12 1 12 13
M  V30 13 2 13 14
M  V30 14 1 14 15
M  V30 15 2 15 16
M  V30 16 1 16 17
M  V30 17 2 17 18
M  V30 18 1 17 19
M  V30 19 1 19 20
M  V30 20 1 20 21
M  V30 21 1 12 22
M  V30 22 1 6 23
M  V30 23 2 23 24
M  V30 24 1 24 25
M  V30 25 1 25 26
M  V30 26 1 25 27
M  V30 27 1 25 28
M  V30 28 1 24 3
M  V30 29 1 22 9
M  V30 30 1 18 13
M  V30 31 1 21 16
M  V30 32 1 1 29
M  V30 33 1 1 30
M  V30 34 1 1 31
M  V30 35 1 4 32
M  V30 36 1 5 33
M  V30 37 1 7 34
M  V30 38 1 7 35
M  V30 39 1 14 36
M  V30 40 1 15 37
M  V30 41 1 18 38
M  V30 42 1 19 39
M  V30 43 1 19 40
M  V30 44 1 20 41
M  V30 45 1 20 42
M  V30 46 1 23 43
M  V30 END BOND
M  V30 END CTAB
M  END
>  <Dataset>  (76) 
ChEMBL_Kinases

>  <Ligand_Instance>  (76) 
nan

>  <PDB_ID>  (76) 
nan

>  <Standardized_SMILES>  (76) 
COc1ccc(CSc2nnc(-c3ccc4c(c3)CCO4)o2)cc1C(F)(F)F

>  <Name>  (76) 
nan

>  <Pocket>  (76) 
nan

>  <ATP_Site>  (76) 
nan

>  <Peripheral>  (76) 
nan

>  <Num_H_Atoms_ProtBoundConf>  (76) 
nan

>  <Num_Resolved_Atoms>  (76) 
nan

>  <Num_Not_Resolved_Atoms>  (76) 
nan

$$$$
CHEMBL512341
     RDKit          3D

  0  0  0  0  0  0  0  0  0  0999 V3000
M  V30 BEGIN CTAB
M  V30 COUNTS 51 55 0 0 0
M  V30 BEGIN ATOM
M  V30 1 C 3.711896 -0.862380 3.945529 0
M  V30 2 O 3.032219 -0.455244 2.798013 0
M  V30 3 C 3.616577 0.029495 1.635533 0
M  V30 4 C 4.976931 0.176533 1.455915 0
M  V30 5 C 5.563419 0.654088 0.312251 0
M  V30 6 C 4.697229 1.005121 -0.718111 0
M  V30 7 C 3.326803 0.886087 -0.612061 0
M  V30 8 C 2.794957 0.398437 0.565580 0
M  V30 9 C 1.352892 0.254774 0.724426 0
M  V30 10 C 0.748771 -0.930642 0.363318 0
M  V30 11 C -0.632221 -1.131024 0.491584 0
M  V30 12 C -1.377033 -0.089460 0.998105 0
M  V30 13 C -0.806081 1.091693 1.362279 0
M  V30 14 C 0.549637 1.268347 1.228537 0
M  V30 15 C 1.006483 2.581246 1.659631 0
M  V30 16 O 2.174932 3.044988 1.662713 0
M  V30 17 N -0.205110 3.231273 2.086065 0
M  V30 18 C -1.277253 2.326070 1.901003 0
M  V30 19 O -2.389033 2.750297 2.226825 0
M  V30 20 C -2.681823 -0.480567 1.053456 0
M  V30 21 C -3.904580 -0.005962 1.421332 0
M  V30 22 C -5.095042 -0.691299 1.348901 0
M  V30 23 O -6.314958 -0.165038 1.735724 0
M  V30 24 C -5.074199 -1.999974 0.854553 0
M  V30 25 C -3.857185 -2.522767 0.469476 0
M  V30 26 C -2.680724 -1.770142 0.569329 0
M  V30 27 N -1.437926 -2.200835 0.214490 0
M  V30 28 C -1.063072 -3.489975 -0.295829 0
M  V30 29 C -1.184476 -3.673730 -1.769276 0
M  V30 30 C -0.379399 -2.725005 -2.581769 0
M  V30 31 O -0.736343 -1.402835 -2.395779 0
M  V30 32 H 3.122799 -0.465355 4.823203 0
M  V30 33 H 3.677573 -1.980403 4.100748 0
M  V30 34 H 4.718866 -0.456724 4.048124 0
M  V30 35 H 5.640377 -0.099503 2.263540 0
M  V30 36 H 6.646813 0.746577 0.232568 0
M  V30 37 H 5.138676 1.386933 -1.636499 0
M  V30 38 H 2.672911 1.166308 -1.429072 0
M  V30 39 H 1.346036 -1.735468 -0.030977 0
M  V30 40 H -0.147905 4.223181 2.454432 0
M  V30 41 H -4.015336 0.970786 1.805046 0
M  V30 42 H -6.855086 -0.571534 2.498692 0
M  V30 43 H -5.974721 -2.590728 0.772620 0
M  V30 44 H -3.875173 -3.535075 0.092368 0
M  V30 45 H -1.641665 -4.246057 0.285235 0
M  V30 46 H 0.005000 -3.718745 -0.038124 0
M  V30 47 H -0.947985 -4.750464 -2.019093 0
M  V30 48 H -2.266681 -3.555313 -2.023015 0
M  V30 49 H 0.707284 -2.787472 -2.321121 0
M  V30 50 H -0.445889 -2.943392 -3.669422 0
M  V30 51 H -1.714480 -1.285827 -2.196336 0
M  V30 END ATOM
M  V30 BEGIN BOND
M  V30 1 1 1 2
M  V30 2 1 2 3
M  V30 3 2 3 4
M  V30 4 1 4 5
M  V30 5 2 5 6
M  V30 6 1 6 7
M  V30 7 2 7 8
M  V30 8 1 8 9
M  V30 9 2 9 10
M  V30 10 1 10 11
M  V30 11 2 11 12
M  V30 12 1 12 13
M  V30 13 2 13 14
M  V30 14 1 14 15
M  V30 15 2 15 16
M  V30 16 1 15 17
M  V30 17 1 17 18
M  V30 18 2 18 19
M  V30 19 1 12 20
M  V30 20 2 20 21
M  V30 21 1 21 22
M  V30 22 1 22 23
M  V30 23 2 22 24
M  V30 24 1 24 25
M  V30 25 2 25 26
M  V30 26 1 26 27
M  V30 27 1 27 28
M  V30 28 1 28 29
M  V30 29 1 29 30
M  V30 30 1 30 31
M  V30 31 1 8 3
M  V30 32 1 14 9
M  V30 33 1 26 20
M  V30 34 1 27 11
M  V30 35 1 18 13
M  V30 36 1 1 32
M  V30 37 1 1 33
M  V30 38 1 1 34
M  V30 39 1 4 35
M  V30 40 1 5 36
M  V30 41 1 6 37
M  V30 42 1 7 38
M  V30 43 1 10 39
M  V30 44 1 17 40
M  V30 45 1 21 41
M  V30 46 1 23 42
M  V30 47 1 24 43
M  V30 48 1 25 44
M  V30 49 1 28 45
M  V30 50 1 28 46
M  V30 51 1 29 47
M  V30 52 1 29 48
M  V30 53 1 30 49
M  V30 54 1 30 50
M  V30 55 1 31 51
M  V30 END BOND
M  V30 END CTAB
M  END
>  <Dataset>  (77) 
ChEMBL_Kinases

>  <Ligand_Instance>  (77) 
nan

>  <PDB_ID>  (77) 
nan

>  <Standardized_SMILES>  (77) 
COc1ccccc1-c1cc2c(c3c1C(=O)NC3=O)c1cc(O)ccc1n2CCCO

>  <Name>  (77) 
nan

>  <Pocket>  (77) 
nan

>  <ATP_Site>  (77) 
nan

>  <Peripheral>  (77) 
nan

>  <Num_H_Atoms_ProtBoundConf>  (77) 
nan

>  <Num_Resolved_Atoms>  (77) 
nan

>  <Num_Not_Resolved_Atoms>  (77) 
nan

$$$$
CHEMBL575913
     RDKit          3D

  0  0  0  0  0  0  0  0  0  0999 V3000
M  V30 BEGIN CTAB
M  V30 COUNTS 42 45 0 0 0
M  V30 BEGIN ATOM
M  V30 1 C -1.203539 -7.620787 -0.260634 0
M  V30 2 O 0.042880 -7.126076 0.179470 0
M  V30 3 C 0.370504 -5.779706 0.232233 0
M  V30 4 C 1.648511 -5.545021 0.697236 0
M  V30 5 C 2.150949 -4.257851 0.817842 0
M  V30 6 C 1.308401 -3.204321 0.448538 0
M  V30 7 C 0.024332 -3.464957 -0.017318 0
M  V30 8 C -0.454288 -4.752242 -0.128922 0
M  V30 9 C -0.588311 -2.165438 -0.313572 0
M  V30 10 C 0.466236 -1.201585 0.027389 0
M  V30 11 C 0.714142 0.156362 0.047284 0
M  V30 12 N -0.046111 1.294804 -0.306363 0
M  V30 13 C -0.036573 2.731067 -0.377811 0
M  V30 14 C 0.083095 3.430845 0.917028 0
M  V30 15 C 1.165560 3.739634 1.690180 0
M  V30 16 C 2.484203 3.397391 1.151437 0
M  V30 17 C 1.102642 4.369141 2.905511 0
M  V30 18 C -0.096717 4.747952 3.449634 0
M  V30 19 C -1.233988 4.471867 2.728878 0
M  V30 20 C -1.123899 3.837416 1.512499 0
M  V30 21 Cl -2.659120 3.536768 0.679956 0
M  V30 22 N 1.937089 0.332211 0.494441 0
M  V30 23 N 2.492096 -0.823651 0.763669 0
M  V30 24 C 1.611205 -1.784785 0.486104 0
M  V30 25 H -2.005508 -6.919557 0.027180 0
M  V30 26 H -1.160245 -7.689167 -1.367532 0
M  V30 27 H -1.408774 -8.627875 0.163746 0
M  V30 28 H 2.342791 -6.329340 0.997434 0
M  V30 29 H 3.162247 -4.080429 1.186797 0
M  V30 30 H -1.432720 -4.977277 -0.482691 0
M  V30 31 H -0.985043 -2.074821 -1.342269 0
M  V30 32 H -1.429473 -2.028320 0.397963 0
M  V30 33 H -0.993413 0.925546 -0.651007 0
M  V30 34 H -0.972040 3.082227 -0.865873 0
M  V30 35 H 0.775538 3.085439 -1.088263 0
M  V30 36 H 3.179460 4.265202 1.207010 0
M  V30 37 H 2.927098 2.606216 1.787255 0
M  V30 38 H 2.506199 3.054123 0.115049 0
M  V30 39 H 2.010015 4.570817 3.444023 0
M  V30 40 H -0.094097 5.235363 4.399680 0
M  V30 41 H -2.189142 4.762999 3.140816 0
M  V30 42 H 3.472699 -0.972730 1.137689 0
M  V30 END ATOM
M  V30 BEGIN BOND
M  V30 1 1 1 2
M  V30 2 1 2 3
M  V30 3 2 3 4
M  V30 4 1 4 5
M  V30 5 2 5 6
M  V30 6 1 6 7
M  V30 7 2 7 8
M  V30 8 1 7 9
M  V30 9 1 9 10
M  V30 10 1 10 11
M  V30 11 1 11 12
M  V30 12 1 12 13
M  V30 13 1 13 14
M  V30 14 2 14 15
M  V30 15 1 15 16
M  V30 16 1 15 17
M  V30 17 2 17 18
M  V30 18 1 18 19
M  V30 19 2 19 20
M  V30 20 1 20 21
M  V30 21 2 11 22
M  V30 22 1 22 23
M  V30 23 1 23 24
M  V30 24 1 8 3
M  V30 25 2 24 10
M  V30 26 1 24 6
M  V30 27 1 20 14
M  V30 28 1 1 25
M  V30 29 1 1 26
M  V30 30 1 1 27
M  V30 31 1 4 28
M  V30 32 1 5 29
M  V30 33 1 8 30
M  V30 34 1 9 31
M  V30 35 1 9 32
M  V30 36 1 12 33
M  V30 37 1 13 34
M  V30 38 1 13 35
M  V30 39 1 16 36
M  V30 40 1 16 37
M  V30 41 1 16 38
M  V30 42 1 17 39
M  V30 43 1 18 40
M  V30 44 1 19 41
M  V30 45 1 23 42
M  V30 END BOND
M  V30 END CTAB
M  END
>  <Dataset>  (78) 
ChEMBL_Kinases

>  <Ligand_Instance>  (78) 
nan

>  <PDB_ID>  (78) 
nan

>  <Standardized_SMILES>  (78) 
COc1ccc2c(c1)Cc1c(NCc3c(C)cccc3Cl)n[nH]c1-2

>  <Name>  (78) 
nan

>  <Pocket>  (78) 
nan

>  <ATP_Site>  (78) 
nan

>  <Peripheral>  (78) 
nan

>  <Num_H_Atoms_ProtBoundConf>  (78) 
nan

>  <Num_Resolved_Atoms>  (78) 
nan

>  <Num_Not_Resolved_Atoms>  (78) 
nan

$$$$
CHEMBL511847
     RDKit          3D

  0  0  0  0  0  0  0  0  0  0999 V3000
M  V30 BEGIN CTAB
M  V30 COUNTS 53 54 0 0 0
M  V30 BEGIN ATOM
M  V30 1 C 0.571920 -2.877189 3.268928 0
M  V30 2 C 1.474581 -2.122742 2.317062 0
M  V30 3 C 1.608117 -0.712981 2.830197 0
M  V30 4 C 2.489177 0.141490 1.956001 0
M  V30 5 C 3.875699 -0.353106 1.819443 0
M  V30 6 C 4.646720 -0.461993 3.109369 0
M  V30 7 C 6.025387 -0.982283 2.761793 0
M  V30 8 C 1.924662 0.220686 0.559114 0
M  V30 9 O 2.494073 -0.144762 -0.518560 0
M  V30 10 O 0.652189 0.767356 0.633344 0
M  V30 11 C -0.077009 0.930562 -0.578491 0
M  V30 12 C -1.412998 1.535598 -0.250829 0
M  V30 13 C -1.292961 2.840872 0.466150 0
M  V30 14 O -0.523039 2.754835 1.624710 0
M  V30 15 C -2.170996 0.545662 0.621790 0
M  V30 16 C -2.822606 -0.322008 -0.427184 0
M  V30 17 C -3.127649 -1.600860 -0.539543 0
M  V30 18 C -3.764088 -2.275095 -1.647411 0
M  V30 19 C -3.528494 -2.194299 -3.001313 0
M  V30 20 C -4.299253 -2.931415 -3.895610 0
M  V30 21 C -5.293672 -3.733870 -3.375649 0
M  V30 22 N -5.549580 -3.835580 -2.054203 0
M  V30 23 C -4.787687 -3.108060 -1.183103 0
M  V30 24 C -3.145727 0.664575 -1.478127 0
M  V30 25 O -4.140639 0.509522 -2.272621 0
M  V30 26 O -2.206738 1.710493 -1.414714 0
M  V30 27 H 0.389201 -3.928373 2.946688 0
M  V30 28 H 0.967457 -2.824931 4.290682 0
M  V30 29 H -0.433175 -2.363308 3.294019 0
M  V30 30 H 2.419206 -2.656532 2.189882 0
M  V30 31 H 0.953068 -2.102734 1.347678 0
M  V30 32 H 0.574296 -0.263852 2.763310 0
M  V30 33 H 1.919555 -0.623930 3.867623 0
M  V30 34 H 2.483465 1.161088 2.356596 0
M  V30 35 H 4.426173 0.388773 1.176998 0
M  V30 36 H 3.894645 -1.296733 1.239742 0
M  V30 37 H 4.192770 -1.141103 3.835976 0
M  V30 38 H 4.807641 0.534654 3.577240 0
M  V30 39 H 6.504143 -1.495010 3.618992 0
M  V30 40 H 6.622298 -0.117745 2.387087 0
M  V30 41 H 5.907501 -1.660888 1.883266 0
M  V30 42 H -0.226436 -0.046829 -1.072238 0
M  V30 43 H 0.495612 1.545053 -1.313015 0
M  V30 44 H -2.308413 3.190341 0.750258 0
M  V30 45 H -0.865432 3.646320 -0.161156 0
M  V30 46 H 0.318884 3.251907 1.526891 0
M  V30 47 H -2.967843 1.043252 1.179363 0
M  V30 48 H -1.523296 -0.122442 1.188101 0
M  V30 49 H -2.822381 -2.146593 0.366489 0
M  V30 50 H -2.722069 -1.542997 -3.267033 0
M  V30 51 H -4.080181 -2.836782 -4.949147 0
M  V30 52 H -5.849773 -4.275119 -4.125212 0
M  V30 53 H -5.110239 -3.294879 -0.162018 0
M  V30 END ATOM
M  V30 BEGIN BOND
M  V30 1 1 1 2
M  V30 2 1 2 3
M  V30 3 1 3 4
M  V30 4 1 4 5
M  V30 5 1 5 6
M  V30 6 1 6 7
M  V30 7 1 4 8
M  V30 8 2 8 9
M  V30 9 1 8 10
M  V30 10 1 10 11
M  V30 11 1 11 12
M  V30 12 1 12 13
M  V30 13 1 13 14
M  V30 14 1 12 15
M  V30 15 1 15 16
M  V30 16 2 16 17
M  V30 17 1 17 18
M  V30 18 2 18 19
M  V30 19 1 19 20
M  V30 20 2 20 21
M  V30 21 1 21 22
M  V30 22 2 22 23
M  V30 23 1 16 24
M  V30 24 2 24 25
M  V30 25 1 24 26
M  V30 26 1 26 12
M  V30 27 1 23 18
M  V30 28 1 1 27
M  V30 29 1 1 28
M  V30 30 1 1 29
M  V30 31 1 2 30
M  V30 32 1 2 31
M  V30 33 1 3 32
M  V30 34 1 3 33
M  V30 35 1 4 34
M  V30 36 1 5 35
M  V30 37 1 5 36
M  V30 38 1 6 37
M  V30 39 1 6 38
M  V30 40 1 7 39
M  V30 41 1 7 40
M  V30 42 1 7 41
M  V30 43 1 11 42
M  V30 44 1 11 43
M  V30 45 1 13 44
M  V30 46 1 13 45
M  V30 47 1 14 46
M  V30 48 1 15 47
M  V30 49 1 15 48
M  V30 50 1 17 49
M  V30 51 1 19 50
M  V30 52 1 20 51
M  V30 53 1 21 52
M  V30 54 1 23 53
M  V30 END BOND
M  V30 END CTAB
M  END
>  <Dataset>  (79) 
ChEMBL_Kinases

>  <Ligand_Instance>  (79) 
nan

>  <PDB_ID>  (79) 
nan

>  <Standardized_SMILES>  (79) 
CCCC(CCC)C(=O)OCC1(CO)C/C(=C/c2cccnc2)C(=O)O1

>  <Name>  (79) 
nan

>  <Pocket>  (79) 
nan

>  <ATP_Site>  (79) 
nan

>  <Peripheral>  (79) 
nan

>  <Num_H_Atoms_ProtBoundConf>  (79) 
nan

>  <Num_Resolved_Atoms>  (79) 
nan

>  <Num_Not_Resolved_Atoms>  (79) 
nan

$$$$
CHEMBL575882
     RDKit          3D

  0  0  0  0  0  0  0  0  0  0999 V3000
M  V30 BEGIN CTAB
M  V30 COUNTS 43 46 0 0 0
M  V30 BEGIN ATOM
M  V30 1 C -0.185298 -4.006195 4.461577 0
M  V30 2 C 1.153527 -4.672069 4.681387 0
M  V30 3 S 1.737766 -5.255098 3.105737 0 CHG=1 VAL=3
M  V30 4 O 0.618167 -6.342364 2.514226 0 CHG=-1 VAL=1
M  V30 5 C 2.038403 -3.928992 2.006749 0
M  V30 6 C 0.998499 -3.511194 1.201308 0
M  V30 7 C 1.227501 -2.453231 0.320111 0
M  V30 8 C 2.454322 -1.827828 0.240918 0
M  V30 9 C 2.659482 -0.724163 -0.691985 0
M  V30 10 C 3.718158 -0.482813 -1.559650 0
M  V30 11 O 3.529514 0.620134 -2.234219 0
M  V30 12 C 2.389083 1.190193 -1.900147 0
M  V30 13 C 1.751637 2.341032 -2.315581 0
M  V30 14 C 0.515583 2.717131 -1.778579 0
M  V30 15 C -0.027791 1.884207 -0.820198 0
M  V30 16 C -1.319836 2.255220 -0.242923 0
M  V30 17 C -2.004863 1.525365 0.733605 0
M  V30 18 C -3.167765 2.240448 0.977365 0
M  V30 19 C -3.134701 3.361263 0.144692 0
M  V30 20 C -4.221386 4.397513 0.106159 0
M  V30 21 O -2.011098 3.323952 -0.563785 0
M  V30 22 C 0.609414 0.732385 -0.403892 0
M  V30 23 C 1.827572 0.367944 -0.937614 0
M  V30 24 C 3.494457 -2.248493 1.049094 0
M  V30 25 C 3.281410 -3.301689 1.932355 0
M  V30 26 H -0.607981 -3.545393 5.360459 0
M  V30 27 H -0.056659 -3.275136 3.631977 0
M  V30 28 H -0.877055 -4.781463 4.101584 0
M  V30 29 H 1.068438 -5.553916 5.341180 0
M  V30 30 H 1.849919 -3.939088 5.104236 0
M  V30 31 H 0.030147 -3.993577 1.253451 0
M  V30 32 H 0.383952 -2.172286 -0.279894 0
M  V30 33 H 4.580763 -1.151629 -1.640395 0
M  V30 34 H 2.177208 2.981667 -3.057714 0
M  V30 35 H -0.011734 3.614948 -2.083017 0
M  V30 36 H -1.714481 0.602368 1.211430 0
M  V30 37 H -3.983600 2.009381 1.678593 0
M  V30 38 H -3.996294 5.221166 0.825731 0
M  V30 39 H -5.170439 3.906062 0.400311 0
M  V30 40 H -4.344429 4.802416 -0.932845 0
M  V30 41 H 0.139366 0.135010 0.336050 0
M  V30 42 H 4.482074 -1.795246 1.031563 0
M  V30 43 H 4.094013 -3.647320 2.579379 0
M  V30 END ATOM
M  V30 BEGIN BOND
M  V30 1 1 1 2
M  V30 2 1 2 3
M  V30 3 1 3 4 CFG=3
M  V30 4 1 3 5
M  V30 5 2 5 6
M  V30 6 1 6 7
M  V30 7 2 7 8
M  V30 8 1 8 9
M  V30 9 2 9 10
M  V30 10 1 10 11
M  V30 11 1 11 12
M  V30 12 2 12 13
M  V30 13 1 13 14
M  V30 14 2 14 15
M  V30 15 1 15 16
M  V30 16 2 16 17
M  V30 17 1 17 18
M  V30 18 2 18 19
M  V30 19 1 19 20
M  V30 20 1 19 21
M  V30 21 1 15 22
M  V30 22 2 22 23
M  V30 23 1 8 24
M  V30 24 2 24 25
M  V30 25 1 25 5
M  V30 26 1 23 9
M  V30 27 1 23 12
M  V30 28 1 21 16
M  V30 29 1 1 26
M  V30 30 1 1 27
M  V30 31 1 1 28
M  V30 32 1 2 29
M  V30 33 1 2 30
M  V30 34 1 6 31
M  V30 35 1 7 32
M  V30 36 1 10 33
M  V30 37 1 13 34
M  V30 38 1 14 35
M  V30 39 1 17 36
M  V30 40 1 18 37
M  V30 41 1 20 38
M  V30 42 1 20 39
M  V30 43 1 20 40
M  V30 44 1 22 41
M  V30 45 1 24 42
M  V30 46 1 25 43
M  V30 END BOND
M  V30 END CTAB
M  END
>  <Dataset>  (80) 
ChEMBL_Kinases

>  <Ligand_Instance>  (80) 
nan

>  <PDB_ID>  (80) 
nan

>  <Standardized_SMILES>  (80) 
CC[S@@+]([O-])c1ccc(-c2coc3ccc(-c4ccc(C)o4)cc23)cc1

>  <Name>  (80) 
nan

>  <Pocket>  (80) 
nan

>  <ATP_Site>  (80) 
nan

>  <Peripheral>  (80) 
nan

>  <Num_H_Atoms_ProtBoundConf>  (80) 
nan

>  <Num_Resolved_Atoms>  (80) 
nan

>  <Num_Not_Resolved_Atoms>  (80) 
nan

$$$$
CHEMBL512536
     RDKit          3D

  0  0  0  0  0  0  0  0  0  0999 V3000
M  V30 BEGIN CTAB
M  V30 COUNTS 55 57 0 0 0
M  V30 BEGIN ATOM
M  V30 1 C 3.866320 -1.852483 3.952155 0
M  V30 2 C 2.869749 -2.794749 3.312097 0
M  V30 3 C 1.888166 -1.951744 2.543566 0
M  V30 4 C 2.538197 -1.149334 1.488845 0
M  V30 5 O 3.708136 -1.429315 1.163377 0
M  V30 6 O 2.167114 -0.170813 0.781687 0
M  V30 7 C 1.786255 0.845913 0.044494 0
M  V30 8 C 1.725118 0.577823 -1.434150 0
M  V30 9 C 3.067809 0.453326 -2.057462 0
M  V30 10 O 3.707537 -0.723058 -1.741324 0
M  V30 11 C 0.956512 1.760192 -2.078587 0
M  V30 12 C -0.413939 1.451348 -1.571905 0
M  V30 13 C -1.370998 2.213081 -1.079434 0
M  V30 14 C -2.650136 1.746440 -0.627223 0
M  V30 15 C -3.709373 2.506611 -1.090178 0
M  V30 16 C -5.024709 2.202796 -0.726726 0
M  V30 17 C -5.302924 1.149404 0.094261 0
M  V30 18 C -4.247541 0.390609 0.557208 0
M  V30 19 C -4.400155 -0.787662 1.462980 0
M  V30 20 F -4.476513 -1.895521 0.675758 0
M  V30 21 F -3.334717 -0.788135 2.342770 0
M  V30 22 F -5.546095 -0.695388 2.228749 0
M  V30 23 C -2.934643 0.684363 0.201589 0
M  V30 24 C -0.472297 0.013489 -1.794159 0
M  V30 25 O -1.593644 -0.588573 -1.962521 0
M  V30 26 O 0.845217 -0.469372 -1.778391 0
M  V30 27 C 0.717544 -2.715183 2.035404 0
M  V30 28 C -0.625084 -2.624316 2.301219 0
M  V30 29 C -1.507483 -3.484589 1.680931 0
M  V30 30 C -1.050396 -4.444587 0.787770 0
M  V30 31 C 0.293691 -4.563745 0.497282 0
M  V30 32 C 1.173666 -3.682797 1.135432 0
M  V30 33 H 3.519730 -1.584580 4.981096 0
M  V30 34 H 4.907842 -2.232501 3.926441 0
M  V30 35 H 3.875750 -0.865567 3.415476 0
M  V30 36 H 3.382673 -3.542145 2.674419 0
M  V30 37 H 2.302313 -3.277267 4.132921 0
M  V30 38 H 1.465289 -1.238059 3.313514 0
M  V30 39 H 0.708352 1.117355 0.349522 0
M  V30 40 H 2.324302 1.828264 0.234514 0
M  V30 41 H 3.707770 1.289327 -1.668673 0
M  V30 42 H 3.035675 0.602554 -3.161389 0
M  V30 43 H 3.092335 -1.480012 -1.636473 0
M  V30 44 H 1.341701 2.717592 -1.697086 0
M  V30 45 H 1.060138 1.614167 -3.167647 0
M  V30 46 H -1.110205 3.283294 -1.036224 0
M  V30 47 H -3.678339 3.375626 -1.746317 0
M  V30 48 H -5.892034 2.764537 -1.060345 0
M  V30 49 H -6.294367 0.850338 0.420228 0
M  V30 50 H -2.094805 0.110434 0.565674 0
M  V30 51 H -0.818902 -1.832643 3.010001 0
M  V30 52 H -2.538904 -3.325919 1.961512 0
M  V30 53 H -1.781572 -5.085662 0.336421 0
M  V30 54 H 0.581896 -5.327602 -0.202993 0
M  V30 55 H 2.198059 -3.886503 0.817139 0
M  V30 END ATOM
M  V30 BEGIN BOND
M  V30 1 1 1 2
M  V30 2 1 2 3
M  V30 3 1 3 4
M  V30 4 2 4 5
M  V30 5 1 4 6
M  V30 6 1 6 7
M  V30 7 1 7 8
M  V30 8 1 8 9
M  V30 9 1 9 10
M  V30 10 1 8 11
M  V30 11 1 11 12
M  V30 12 2 12 13
M  V30 13 1 13 14
M  V30 14 2 14 15
M  V30 15 1 15 16
M  V30 16 2 16 17
M  V30 17 1 17 18
M  V30 18 1 18 19
M  V30 19 1 19 20
M  V30 20 1 19 21
M  V30 21 1 19 22
M  V30 22 2 18 23
M  V30 23 1 12 24
M  V30 24 2 24 25
M  V30 25 1 24 26
M  V30 26 1 3 27
M  V30 27 2 27 28
M  V30 28 1 28 29
M  V30 29 2 29 30
M  V30 30 1 30 31
M  V30 31 2 31 32
M  V30 32 1 26 8
M  V30 33 1 32 27
M  V30 34 1 23 14
M  V30 35 1 1 33
M  V30 36 1 1 34
M  V30 37 1 1 35
M  V30 38 1 2 36
M  V30 39 1 2 37
M  V30 40 1 3 38
M  V30 41 1 7 39
M  V30 42 1 7 40
M  V30 43 1 9 41
M  V30 44 1 9 42
M  V30 45 1 10 43
M  V30 46 1 11 44
M  V30 47 1 11 45
M  V30 48 1 13 46
M  V30 49 1 15 47
M  V30 50 1 16 48
M  V30 51 1 17 49
M  V30 52 1 23 50
M  V30 53 1 28 51
M  V30 54 1 29 52
M  V30 55 1 30 53
M  V30 56 1 31 54
M  V30 57 1 32 55
M  V30 END BOND
M  V30 END CTAB
M  END
>  <Dataset>  (81) 
ChEMBL_Kinases

>  <Ligand_Instance>  (81) 
nan

>  <PDB_ID>  (81) 
nan

>  <Standardized_SMILES>  (81) 
CCC(C(=O)OCC1(CO)C/C(=C/c2cccc(C(F)(F)F)c2)C(=O)O1)c1ccccc1

>  <Name>  (81) 
nan

>  <Pocket>  (81) 
nan

>  <ATP_Site>  (81) 
nan

>  <Peripheral>  (81) 
nan

>  <Num_H_Atoms_ProtBoundConf>  (81) 
nan

>  <Num_Resolved_Atoms>  (81) 
nan

>  <Num_Not_Resolved_Atoms>  (81) 
nan

$$$$
CHEMBL512538
     RDKit          3D

  0  0  0  0  0  0  0  0  0  0999 V3000
M  V30 BEGIN CTAB
M  V30 COUNTS 53 54 0 0 0
M  V30 BEGIN ATOM
M  V30 1 C 0.806782 -3.017020 3.263975 0
M  V30 2 C 1.614337 -2.119951 2.349474 0
M  V30 3 C 1.705077 -0.757109 3.002402 0
M  V30 4 C 2.496655 0.213686 2.149406 0
M  V30 5 C 3.893564 -0.250987 1.918059 0
M  V30 6 C 4.713967 -0.439487 3.166621 0
M  V30 7 C 6.101027 -0.916553 2.720028 0
M  V30 8 C 1.864223 0.382528 0.812133 0
M  V30 9 O 2.478467 0.128184 -0.278320 0
M  V30 10 O 0.558356 0.828455 0.703501 0
M  V30 11 C -0.084117 0.996867 -0.546749 0
M  V30 12 C -1.478658 1.487078 -0.292486 0
M  V30 13 C -1.496880 2.828018 0.411775 0
M  V30 14 O -0.812321 2.799332 1.608654 0
M  V30 15 C -2.204229 0.444511 0.528827 0
M  V30 16 C -2.890765 -0.320162 -0.577547 0
M  V30 17 C -3.131055 -1.613663 -0.491415 0
M  V30 18 C -3.792849 -2.298541 -1.591281 0
M  V30 19 C -3.408368 -2.119932 -2.903669 0
M  V30 20 C -4.144672 -2.831498 -3.852724 0
M  V30 21 C -5.175533 -3.640580 -3.420767 0
M  V30 22 C -5.511178 -3.778994 -2.104873 0
M  V30 23 N -4.792628 -3.083784 -1.176303 0
M  V30 24 C -3.191207 0.673498 -1.599400 0
M  V30 25 O -4.218297 0.455044 -2.332022 0
M  V30 26 O -2.207469 1.665844 -1.494635 0
M  V30 27 H 0.725386 -4.052561 2.859101 0
M  V30 28 H 1.200706 -3.037221 4.296008 0
M  V30 29 H -0.244365 -2.624275 3.365044 0
M  V30 30 H 1.029870 -1.985691 1.420224 0
M  V30 31 H 2.586140 -2.595570 2.196984 0
M  V30 32 H 0.690204 -0.389892 3.139500 0
M  V30 33 H 2.208980 -0.843870 3.984688 0
M  V30 34 H 2.509274 1.187149 2.658586 0
M  V30 35 H 4.405315 0.579250 1.348261 0
M  V30 36 H 3.883615 -1.127319 1.269775 0
M  V30 37 H 4.260675 -1.116237 3.915637 0
M  V30 38 H 4.882927 0.539757 3.660188 0
M  V30 39 H 5.973539 -1.469197 1.763281 0
M  V30 40 H 6.737854 -0.051036 2.468881 0
M  V30 41 H 6.517004 -1.617122 3.454880 0
M  V30 42 H -0.156516 0.002687 -1.027514 0
M  V30 43 H 0.492618 1.662158 -1.220731 0
M  V30 44 H -2.538927 3.121827 0.602451 0
M  V30 45 H -1.061326 3.624877 -0.223810 0
M  V30 46 H -0.483006 3.712726 1.789503 0
M  V30 47 H -2.960572 0.889523 1.201923 0
M  V30 48 H -1.516100 -0.220526 1.078184 0
M  V30 49 H -2.836560 -2.169771 0.404118 0
M  V30 50 H -2.582281 -1.480820 -3.192099 0
M  V30 51 H -3.833101 -2.683189 -4.888006 0
M  V30 52 H -5.648126 -4.124657 -4.271589 0
M  V30 53 H -6.349390 -4.459767 -1.958532 0
M  V30 END ATOM
M  V30 BEGIN BOND
M  V30 1 1 1 2
M  V30 2 1 2 3
M  V30 3 1 3 4
M  V30 4 1 4 5
M  V30 5 1 5 6
M  V30 6 1 6 7
M  V30 7 1 4 8
M  V30 8 2 8 9
M  V30 9 1 8 10
M  V30 10 1 10 11
M  V30 11 1 11 12
M  V30 12 1 12 13
M  V30 13 1 13 14
M  V30 14 1 12 15
M  V30 15 1 15 16
M  V30 16 2 16 17
M  V30 17 1 17 18
M  V30 18 2 18 19
M  V30 19 1 19 20
M  V30 20 2 20 21
M  V30 21 1 21 22
M  V30 22 2 22 23
M  V30 23 1 16 24
M  V30 24 2 24 25
M  V30 25 1 24 26
M  V30 26 1 26 12
M  V30 27 1 23 18
M  V30 28 1 1 27
M  V30 29 1 1 28
M  V30 30 1 1 29
M  V30 31 1 2 30
M  V30 32 1 2 31
M  V30 33 1 3 32
M  V30 34 1 3 33
M  V30 35 1 4 34
M  V30 36 1 5 35
M  V30 37 1 5 36
M  V30 38 1 6 37
M  V30 39 1 6 38
M  V30 40 1 7 39
M  V30 41 1 7 40
M  V30 42 1 7 41
M  V30 43 1 11 42
M  V30 44 1 11 43
M  V30 45 1 13 44
M  V30 46 1 13 45
M  V30 47 1 14 46
M  V30 48 1 15 47
M  V30 49 1 15 48
M  V30 50 1 17 49
M  V30 51 1 19 50
M  V30 52 1 20 51
M  V30 53 1 21 52
M  V30 54 1 22 53
M  V30 END BOND
M  V30 END CTAB
M  END
>  <Dataset>  (82) 
ChEMBL_Kinases

>  <Ligand_Instance>  (82) 
nan

>  <PDB_ID>  (82) 
nan

>  <Standardized_SMILES>  (82) 
CCCC(CCC)C(=O)OCC1(CO)C/C(=C/c2ccccn2)C(=O)O1

>  <Name>  (82) 
nan

>  <Pocket>  (82) 
nan

>  <ATP_Site>  (82) 
nan

>  <Peripheral>  (82) 
nan

>  <Num_H_Atoms_ProtBoundConf>  (82) 
nan

>  <Num_Resolved_Atoms>  (82) 
nan

>  <Num_Not_Resolved_Atoms>  (82) 
nan

$$$$
CHEMBL575741
     RDKit          3D

  0  0  0  0  0  0  0  0  0  0999 V3000
M  V30 BEGIN CTAB
M  V30 COUNTS 53 57 0 0 0
M  V30 BEGIN ATOM
M  V30 1 C 0.357369 -5.093093 -0.005153 0
M  V30 2 C -0.157056 -4.973188 -1.278952 0
M  V30 3 C 0.319395 -4.039200 -2.201990 0
M  V30 4 C 1.359019 -3.209861 -1.783669 0
M  V30 5 C 1.881739 -3.314165 -0.524561 0
M  V30 6 C 1.400750 -4.249658 0.391734 0
M  V30 7 C 2.968970 -2.345392 -0.300725 0
M  V30 8 C 2.948096 -1.483657 -1.529769 0
M  V30 9 N 2.590026 -0.154065 -1.124609 0
M  V30 10 C 1.390580 0.260461 -0.516647 0
M  V30 11 N 1.200373 1.571947 -0.184871 0
M  V30 12 C 0.106256 2.054843 0.382136 0
M  V30 13 N -0.091361 3.407462 0.729399 0
M  V30 14 C 0.260171 3.793324 2.050526 0
M  V30 15 C 0.106866 5.077790 2.515919 0
M  V30 16 C 0.445350 5.444131 3.793103 0
M  V30 17 N 0.953400 4.525501 4.653671 0
M  V30 18 C 1.133909 3.240544 4.269552 0
M  V30 19 C 0.779574 2.923801 2.980354 0
M  V30 20 N -0.910241 1.190642 0.659698 0
M  V30 21 C -0.784394 -0.123583 0.355688 0
M  V30 22 N -1.899094 -0.937816 0.684271 0
M  V30 23 C -3.069900 -0.316795 1.270101 0
M  V30 24 C -3.922830 -1.342180 1.996186 0
M  V30 25 N -4.215455 -2.370241 1.009132 0
M  V30 26 C -3.010135 -3.144268 0.814200 0
M  V30 27 C -1.814360 -2.352019 0.420506 0
M  V30 28 N 0.356221 -0.518551 -0.214919 0
M  V30 29 C 2.074996 -2.154538 -2.478093 0
M  V30 30 H -0.050575 -5.843867 0.689352 0
M  V30 31 H -0.976718 -5.664394 -1.532807 0
M  V30 32 H -0.117632 -3.982127 -3.192964 0
M  V30 33 H 1.770835 -4.387928 1.412462 0
M  V30 34 H 2.775185 -1.732739 0.630606 0
M  V30 35 H 3.962808 -2.859627 -0.185520 0
M  V30 36 H 3.983732 -1.422312 -1.988069 0
M  V30 37 H 3.302063 0.627902 -1.294689 0
M  V30 38 H -0.470106 4.131546 0.097028 0
M  V30 39 H -0.299191 5.849347 1.856032 0
M  V30 40 H 0.343549 6.444228 4.209581 0
M  V30 41 H 1.534612 2.467872 4.915206 0
M  V30 42 H 0.927633 1.878274 2.671091 0
M  V30 43 H -2.772495 0.476755 1.989211 0
M  V30 44 H -3.654211 0.229246 0.477497 0
M  V30 45 H -4.839889 -0.818419 2.342365 0
M  V30 46 H -3.303999 -1.732840 2.817929 0
M  V30 47 H -4.930857 -3.026485 1.433127 0
M  V30 48 H -3.148781 -3.966358 0.082960 0
M  V30 49 H -2.846789 -3.680651 1.795280 0
M  V30 50 H -0.959296 -2.721297 1.024135 0
M  V30 51 H -1.543011 -2.467884 -0.655411 0
M  V30 52 H 2.712831 -2.680692 -3.256960 0
M  V30 53 H 1.428136 -1.499706 -3.102058 0
M  V30 END ATOM
M  V30 BEGIN BOND
M  V30 1 2 1 2
M  V30 2 1 2 3
M  V30 3 2 3 4
M  V30 4 1 4 5
M  V30 5 2 5 6
M  V30 6 1 5 7
M  V30 7 1 7 8
M  V30 8 1 8 9
M  V30 9 1 9 10
M  V30 10 2 10 11
M  V30 11 1 11 12
M  V30 12 1 12 13
M  V30 13 1 13 14
M  V30 14 2 14 15
M  V30 15 1 15 16
M  V30 16 2 16 17
M  V30 17 1 17 18
M  V30 18 2 18 19
M  V30 19 2 12 20
M  V30 20 1 20 21
M  V30 21 1 21 22
M  V30 22 1 22 23
M  V30 23 1 23 24
M  V30 24 1 24 25
M  V30 25 1 25 26
M  V30 26 1 26 27
M  V30 27 2 21 28
M  V30 28 1 8 29
M  V30 29 1 6 1
M  V30 30 1 28 10
M  V30 31 1 29 4
M  V30 32 1 19 14
M  V30 33 1 27 22
M  V30 34 1 1 30
M  V30 35 1 2 31
M  V30 36 1 3 32
M  V30 37 1 6 33
M  V30 38 1 7 34
M  V30 39 1 7 35
M  V30 40 1 8 36
M  V30 41 1 9 37
M  V30 42 1 13 38
M  V30 43 1 15 39
M  V30 44 1 16 40
M  V30 45 1 18 41
M  V30 46 1 19 42
M  V30 47 1 23 43
M  V30 48 1 23 44
M  V30 49 1 24 45
M  V30 50 1 24 46
M  V30 51 1 25 47
M  V30 52 1 26 48
M  V30 53 1 26 49
M  V30 54 1 27 50
M  V30 55 1 27 51
M  V30 56 1 29 52
M  V30 57 1 29 53
M  V30 END BOND
M  V30 END CTAB
M  END
>  <Dataset>  (83) 
ChEMBL_Kinases

>  <Ligand_Instance>  (83) 
nan

>  <PDB_ID>  (83) 
nan

>  <Standardized_SMILES>  (83) 
c1ccc2c(c1)CC(Nc1nc(Nc3ccncc3)nc(N3CCNCC3)n1)C2

>  <Name>  (83) 
nan

>  <Pocket>  (83) 
nan

>  <ATP_Site>  (83) 
nan

>  <Peripheral>  (83) 
nan

>  <Num_H_Atoms_ProtBoundConf>  (83) 
nan

>  <Num_Resolved_Atoms>  (83) 
nan

>  <Num_Not_Resolved_Atoms>  (83) 
nan

$$$$
CHEMBL512649
     RDKit          3D

  0  0  0  0  0  0  0  0  0  0999 V3000
M  V30 BEGIN CTAB
M  V30 COUNTS 27 30 0 0 0
M  V30 BEGIN ATOM
M  V30 1 C 1.651967 -1.397546 4.452377 0
M  V30 2 C 1.210535 -2.548192 3.835325 0
M  V30 3 C 0.682350 -2.543982 2.561357 0
M  V30 4 C 0.575832 -1.348429 1.841045 0
M  V30 5 C 0.117060 -0.950829 0.581749 0
M  V30 6 C 0.326795 0.410677 0.559051 0
M  V30 7 N 0.869401 0.858931 1.692122 0
M  V30 8 C 1.031515 -0.227493 2.503952 0
M  V30 9 C 1.563966 -0.202119 3.776714 0
M  V30 10 C -0.077408 1.078200 -0.669056 0
M  V30 11 N -0.079837 2.324408 -1.159001 0
M  V30 12 N -0.594951 2.317640 -2.393774 0
M  V30 13 C -0.942552 1.043523 -2.733798 0
M  V30 14 C -0.612085 0.247771 -1.630762 0
M  V30 15 C -0.867905 -1.212950 -1.674801 0
M  V30 16 C -0.443637 -1.897705 -0.403010 0
M  V30 17 H 2.059694 -1.454128 5.456475 0
M  V30 18 H 1.248436 -3.533307 4.308735 0
M  V30 19 H 0.341070 -3.433175 2.084170 0
M  V30 20 H 1.099734 1.846440 1.863904 0
M  V30 21 H 1.904384 0.700719 4.246528 0
M  V30 22 H -0.698852 3.176318 -2.976949 0
M  V30 23 H -1.385754 0.854823 -3.725203 0
M  V30 24 H -0.261564 -1.682446 -2.507407 0
M  V30 25 H -1.950830 -1.432079 -1.827079 0
M  V30 26 H 0.360665 -2.644472 -0.603991 0
M  V30 27 H -1.282372 -2.494959 0.019561 0
M  V30 END ATOM
M  V30 BEGIN BOND
M  V30 1 2 1 2
M  V30 2 1 2 3
M  V30 3 2 3 4
M  V30 4 1 4 5
M  V30 5 2 5 6
M  V30 6 1 6 7
M  V30 7 1 7 8
M  V30 8 2 8 9
M  V30 9 1 6 10
M  V30 10 2 10 11
M  V30 11 1 11 12
M  V30 12 1 12 13
M  V30 13 2 13 14
M  V30 14 1 14 15
M  V30 15 1 15 16
M  V30 16 1 9 1
M  V30 17 1 14 10
M  V30 18 1 8 4
M  V30 19 1 16 5
M  V30 20 1 1 17
M  V30 21 1 2 18
M  V30 22 1 3 19
M  V30 23 1 7 20
M  V30 24 1 9 21
M  V30 25 1 12 22
M  V30 26 1 13 23
M  V30 27 1 15 24
M  V30 28 1 15 25
M  V30 29 1 16 26
M  V30 30 1 16 27
M  V30 END BOND
M  V30 END CTAB
M  END
>  <Dataset>  (84) 
ChEMBL_Kinases

>  <Ligand_Instance>  (84) 
nan

>  <PDB_ID>  (84) 
nan

>  <Standardized_SMILES>  (84) 
c1ccc2c3c([nH]c2c1)-c1n[nH]cc1CC3

>  <Name>  (84) 
nan

>  <Pocket>  (84) 
nan

>  <ATP_Site>  (84) 
nan

>  <Peripheral>  (84) 
nan

>  <Num_H_Atoms_ProtBoundConf>  (84) 
nan

>  <Num_Resolved_Atoms>  (84) 
nan

>  <Num_Not_Resolved_Atoms>  (84) 
nan

$$$$
CHEMBL512699
     RDKit          3D

  0  0  0  0  0  0  0  0  0  0999 V3000
M  V30 BEGIN CTAB
M  V30 COUNTS 49 51 0 0 0
M  V30 BEGIN ATOM
M  V30 1 C 1.767509 -1.994868 -0.934513 0
M  V30 2 C 3.246425 -1.955128 -0.785422 0
M  V30 3 C 4.041912 -3.030540 -1.167651 0
M  V30 4 C 5.402836 -3.028683 -1.046393 0
M  V30 5 C 6.049324 -1.935008 -0.529541 0
M  V30 6 C 5.249971 -0.879845 -0.156206 0
M  V30 7 C 3.860053 -0.833409 -0.259376 0
M  V30 8 C 3.125640 0.357167 0.180567 0
M  V30 9 O 3.746574 1.336302 0.640826 0
M  V30 10 O 1.787625 0.371709 0.078688 0
M  V30 11 C 0.777867 1.240489 0.367391 0
M  V30 12 C 0.491741 1.623387 1.770427 0
M  V30 13 C 1.496633 2.444661 2.494328 0
M  V30 14 O 1.945953 3.561204 1.790700 0
M  V30 15 C -0.858683 2.385356 1.705771 0
M  V30 16 C -1.779997 1.210943 1.522647 0
M  V30 17 C -2.818877 0.893535 0.787766 0
M  V30 18 C -3.515176 -0.385803 0.847576 0
M  V30 19 C -4.884995 -0.545755 0.891435 0
M  V30 20 C -5.404098 -1.830216 0.916192 0
M  V30 21 C -4.628674 -2.973502 0.899890 0
M  V30 22 C -5.204641 -4.343963 0.925533 0
M  V30 23 F -5.051566 -4.970290 -0.316113 0
M  V30 24 F -4.471551 -5.082166 1.839669 0
M  V30 25 F -6.523679 -4.338480 1.258426 0
M  V30 26 C -3.254458 -2.828280 0.855849 0
M  V30 27 C -2.717996 -1.535050 0.829949 0
M  V30 28 C -1.222515 0.297114 2.546316 0
M  V30 29 O -1.918737 -0.527924 3.247744 0
M  V30 30 O 0.169478 0.497658 2.605898 0
M  V30 31 H 1.516396 -2.982817 -1.420697 0
M  V30 32 H 1.401356 -1.175963 -1.591287 0
M  V30 33 H 1.239999 -1.923349 0.034205 0
M  V30 34 H 3.518000 -3.905615 -1.583690 0
M  V30 35 H 5.916602 -3.935536 -1.382019 0
M  V30 36 H 7.116953 -1.934826 -0.435054 0
M  V30 37 H 5.740193 0.004634 0.258734 0
M  V30 38 H -0.151935 0.821060 -0.137577 0
M  V30 39 H 0.930551 2.204575 -0.232897 0
M  V30 40 H 0.975851 2.789591 3.448256 0
M  V30 41 H 2.336376 1.817903 2.825962 0
M  V30 42 H 2.376224 4.160396 2.458852 0
M  V30 43 H -0.980212 2.841548 2.703374 0
M  V30 44 H -0.890355 3.097487 0.888281 0
M  V30 45 H -3.094887 1.728708 0.120488 0
M  V30 46 H -5.493709 0.347264 0.904577 0
M  V30 47 H -6.491059 -1.967682 0.948657 0
M  V30 48 H -2.656947 -3.725875 0.843273 0
M  V30 49 H -1.620392 -1.569567 0.785787 0
M  V30 END ATOM
M  V30 BEGIN BOND
M  V30 1 1 1 2
M  V30 2 2 2 3
M  V30 3 1 3 4
M  V30 4 2 4 5
M  V30 5 1 5 6
M  V30 6 2 6 7
M  V30 7 1 7 8
M  V30 8 2 8 9
M  V30 9 1 8 10
M  V30 10 1 10 11
M  V30 11 1 11 12
M  V30 12 1 12 13
M  V30 13 1 13 14
M  V30 14 1 12 15
M  V30 15 1 15 16
M  V30 16 2 16 17
M  V30 17 1 17 18
M  V30 18 2 18 19
M  V30 19 1 19 20
M  V30 20 2 20 21
M  V30 21 1 21 22
M  V30 22 1 22 23
M  V30 23 1 22 24
M  V30 24 1 22 25
M  V30 25 1 21 26
M  V30 26 2 26 27
M  V30 27 1 16 28
M  V30 28 2 28 29
M  V30 29 1 28 30
M  V30 30 1 7 2
M  V30 31 1 30 12
M  V30 32 1 27 18
M  V30 33 1 1 31
M  V30 34 1 1 32
M  V30 35 1 1 33
M  V30 36 1 3 34
M  V30 37 1 4 35
M  V30 38 1 5 36
M  V30 39 1 6 37
M  V30 40 1 11 38
M  V30 41 1 11 39
M  V30 42 1 13 40
M  V30 43 1 13 41
M  V30 44 1 14 42
M  V30 45 1 15 43
M  V30 46 1 15 44
M  V30 47 1 17 45
M  V30 48 1 19 46
M  V30 49 1 20 47
M  V30 50 1 26 48
M  V30 51 1 27 49
M  V30 END BOND
M  V30 END CTAB
M  END
>  <Dataset>  (85) 
ChEMBL_Kinases

>  <Ligand_Instance>  (85) 
nan

>  <PDB_ID>  (85) 
nan

>  <Standardized_SMILES>  (85) 
Cc1ccccc1C(=O)OCC1(CO)C/C(=C/c2ccc(C(F)(F)F)cc2)C(=O)O1

>  <Name>  (85) 
nan

>  <Pocket>  (85) 
nan

>  <ATP_Site>  (85) 
nan

>  <Peripheral>  (85) 
nan

>  <Num_H_Atoms_ProtBoundConf>  (85) 
nan

>  <Num_Resolved_Atoms>  (85) 
nan

>  <Num_Not_Resolved_Atoms>  (85) 
nan

$$$$
CHEMBL3733111
     RDKit          3D

  0  0  0  0  0  0  0  0  0  0999 V3000
M  V30 BEGIN CTAB
M  V30 COUNTS 49 53 0 0 0
M  V30 BEGIN ATOM
M  V30 1 N 2.113896 -7.859835 3.403414 0
M  V30 2 C 2.013897 -7.000595 2.616035 0
M  V30 3 C 1.871215 -5.941593 1.648871 0
M  V30 4 C 3.018951 -5.485721 1.024110 0
M  V30 5 C 2.927996 -4.473295 0.091600 0
M  V30 6 C 1.690225 -3.935258 -0.198960 0
M  V30 7 N 1.585670 -2.886790 -1.163067 0
M  V30 8 C 0.360878 -2.254610 -1.543846 0
M  V30 9 C -0.072214 -1.152326 -0.869372 0
M  V30 10 C -1.243735 -0.522040 -1.209919 0
M  V30 11 C -1.630353 0.667709 -0.418695 0
M  V30 12 N -0.823578 1.086814 0.601721 0
M  V30 13 C -1.227884 2.169561 1.280028 0
M  V30 14 N -0.553766 2.773422 2.366117 0
M  V30 15 C 0.685864 2.237519 2.845885 0 CFG=2
M  V30 16 C 1.768441 2.240899 1.794137 0
M  V30 17 C 2.696154 1.145574 2.312442 0
M  V30 18 N 1.785352 0.112175 2.786006 0
M  V30 19 C 0.607387 0.786023 3.243587 0
M  V30 20 C -2.416613 2.787655 0.913603 0
M  V30 21 S -3.229230 4.219548 1.592028 0
M  V30 22 C -4.680529 4.143207 0.379985 0
M  V30 23 C -4.385854 3.000543 -0.439744 0
M  V30 24 C -3.234358 2.365057 -0.118646 0
M  V30 25 N -2.752855 1.275856 -0.742167 0
M  V30 26 C -2.024527 -0.983983 -2.248992 0
M  V30 27 C -1.545236 -2.103131 -2.902697 0
M  V30 28 N -0.397455 -2.713088 -2.562090 0
M  V30 29 C 0.520008 -4.357866 0.398530 0
M  V30 30 C 0.635618 -5.381516 1.337297 0
M  V30 31 H 4.025103 -5.857525 1.198889 0
M  V30 32 H 3.819174 -4.090786 -0.420250 0
M  V30 33 H 2.424476 -2.526833 -1.645021 0
M  V30 34 H 0.517965 -0.782611 -0.065159 0
M  V30 35 H -0.892406 3.600579 2.862316 0
M  V30 36 H 1.072914 2.825651 3.736741 0
M  V30 37 H 1.352065 1.929334 0.837166 0
M  V30 38 H 2.303251 3.213398 1.752745 0
M  V30 39 H 3.407818 0.788129 1.551411 0
M  V30 40 H 3.172861 1.561816 3.228391 0
M  V30 41 H 1.606867 -0.620362 2.066369 0
M  V30 42 H 0.479890 0.684981 4.364575 0
M  V30 43 H -0.265031 0.343881 2.764155 0
M  V30 44 H -5.665848 4.780811 0.191562 0
M  V30 45 H -5.087601 2.756565 -1.216338 0
M  V30 46 H -2.928400 -0.466371 -2.482921 0
M  V30 47 H -2.138261 -2.491376 -3.726339 0
M  V30 48 H -0.447826 -3.943776 0.177535 0
M  V30 49 H -0.227478 -5.772874 1.852572 0
M  V30 END ATOM
M  V30 BEGIN BOND
M  V30 1 3 1 2
M  V30 2 1 2 3
M  V30 3 2 3 4
M  V30 4 1 4 5
M  V30 5 2 5 6
M  V30 6 1 6 7
M  V30 7 1 7 8
M  V30 8 2 8 9
M  V30 9 1 9 10
M  V30 10 1 10 11
M  V30 11 2 11 12
M  V30 12 1 12 13
M  V30 13 1 13 14
M  V30 14 1 14 15
M  V30 15 1 15 16
M  V30 16 1 16 17
M  V30 17 1 17 18
M  V30 18 1 18 19
M  V30 19 2 13 20
M  V30 20 1 20 21
M  V30 21 1 21 22
M  V30 22 2 22 23
M  V30 23 1 23 24
M  V30 24 2 24 25
M  V30 25 2 10 26
M  V30 26 1 26 27
M  V30 27 2 27 28
M  V30 28 1 6 29
M  V30 29 2 29 30
M  V30 30 1 30 3
M  V30 31 1 28 8
M  V30 32 1 25 11
M  V30 33 1 19 15
M  V30 34 1 24 20
M  V30 35 1 4 31
M  V30 36 1 5 32
M  V30 37 1 7 33
M  V30 38 1 9 34
M  V30 39 1 14 35
M  V30 40 1 15 36 CFG=1
M  V30 41 1 16 37
M  V30 42 1 16 38
M  V30 43 1 17 39
M  V30 44 1 17 40
M  V30 45 1 18 41
M  V30 46 1 19 42
M  V30 47 1 19 43
M  V30 48 1 22 44
M  V30 49 1 23 45
M  V30 50 1 26 46
M  V30 51 1 27 47
M  V30 52 1 29 48
M  V30 53 1 30 49
M  V30 END BOND
M  V30 END CTAB
M  END
>  <Dataset>  (86) 
ChEMBL_Kinases

>  <Ligand_Instance>  (86) 
nan

>  <PDB_ID>  (86) 
nan

>  <Standardized_SMILES>  (86) 
N#Cc1ccc(Nc2cc(-c3nc(N[C@@H]4CCNC4)c4sccc4n3)ccn2)cc1

>  <Name>  (86) 
nan

>  <Pocket>  (86) 
nan

>  <ATP_Site>  (86) 
nan

>  <Peripheral>  (86) 
nan

>  <Num_H_Atoms_ProtBoundConf>  (86) 
nan

>  <Num_Resolved_Atoms>  (86) 
nan

>  <Num_Not_Resolved_Atoms>  (86) 
nan

$$$$
CHEMBL512700
     RDKit          3D

  0  0  0  0  0  0  0  0  0  0999 V3000
M  V30 BEGIN CTAB
M  V30 COUNTS 54 56 0 0 0
M  V30 BEGIN ATOM
M  V30 1 C 4.754384 -3.190755 3.837873 0
M  V30 2 N 4.170790 -3.433905 2.531781 0
M  V30 3 C 4.347807 -4.788141 2.069587 0
M  V30 4 C 3.496151 -2.409312 1.815398 0
M  V30 5 C 3.378588 -1.150316 2.351939 0
M  V30 6 C 2.731483 -0.111344 1.712526 0
M  V30 7 C 2.161805 -0.314013 0.467972 0
M  V30 8 C 1.424914 0.650237 -0.349338 0
M  V30 9 O 0.976383 0.374737 -1.463809 0
M  V30 10 O 1.056624 1.858593 -0.233615 0
M  V30 11 C 0.676084 3.105929 -0.114895 0
M  V30 12 C -0.855273 3.245885 -0.120952 0
M  V30 13 C -1.264385 4.677262 0.061036 0
M  V30 14 O -2.647540 4.835665 0.062812 0
M  V30 15 C -1.458539 2.637856 -1.349121 0
M  V30 16 C -2.001602 1.337586 -0.873011 0
M  V30 17 C -2.692501 0.352578 -1.457063 0
M  V30 18 C -3.185811 -0.895224 -0.895198 0
M  V30 19 C -2.896671 -1.994189 -1.703668 0
M  V30 20 C -3.261787 -3.279540 -1.399749 0
M  V30 21 C -3.958588 -3.487703 -0.217954 0
M  V30 22 C -4.382950 -4.859266 0.180447 0
M  V30 23 F -5.730485 -4.963359 0.411236 0
M  V30 24 F -3.642651 -5.295899 1.279132 0
M  V30 25 F -4.055124 -5.733290 -0.843681 0
M  V30 26 C -4.262317 -2.417372 0.606778 0
M  V30 27 C -3.880280 -1.149455 0.267454 0
M  V30 28 C -1.606047 1.190554 0.542649 0
M  V30 29 O -1.476688 0.124876 1.193528 0
M  V30 30 O -1.411671 2.504210 0.978142 0
M  V30 31 C 2.286934 -1.601483 -0.072836 0
M  V30 32 C 2.942118 -2.649854 0.576652 0
M  V30 33 H 4.799955 -4.114672 4.472386 0
M  V30 34 H 5.763365 -2.708577 3.777802 0
M  V30 35 H 4.100159 -2.494997 4.408518 0
M  V30 36 H 4.103902 -4.973509 1.027063 0
M  V30 37 H 5.400593 -5.109380 2.312411 0
M  V30 38 H 3.684362 -5.429757 2.715164 0
M  V30 39 H 3.769557 -0.845576 3.304946 0
M  V30 40 H 2.617687 0.885310 2.096753 0
M  V30 41 H 0.954127 3.499892 0.920493 0
M  V30 42 H 1.105376 3.852643 -0.843741 0
M  V30 43 H -0.893261 5.114799 1.006309 0
M  V30 44 H -0.877584 5.300070 -0.778131 0
M  V30 45 H -3.081067 4.342606 0.793189 0
M  V30 46 H -2.251617 3.273618 -1.800345 0
M  V30 47 H -0.670077 2.458695 -2.096204 0
M  V30 48 H -2.897103 0.559281 -2.523223 0
M  V30 49 H -2.352661 -1.943885 -2.655380 0
M  V30 50 H -3.067586 -4.158375 -1.981345 0
M  V30 51 H -4.793034 -2.519159 1.522293 0
M  V30 52 H -4.094138 -0.275067 0.851002 0
M  V30 53 H 1.853095 -1.815770 -1.057224 0
M  V30 54 H 2.983756 -3.593192 0.083909 0
M  V30 END ATOM
M  V30 BEGIN BOND
M  V30 1 1 1 2
M  V30 2 1 2 3
M  V30 3 1 2 4
M  V30 4 2 4 5
M  V30 5 1 5 6
M  V30 6 2 6 7
M  V30 7 1 7 8
M  V30 8 2 8 9
M  V30 9 1 8 10
M  V30 10 1 10 11
M  V30 11 1 11 12
M  V30 12 1 12 13
M  V30 13 1 13 14
M  V30 14 1 12 15
M  V30 15 1 15 16
M  V30 16 2 16 17
M  V30 17 1 17 18
M  V30 18 2 18 19
M  V30 19 1 19 20
M  V30 20 2 20 21
M  V30 21 1 21 22
M  V30 22 1 22 23
M  V30 23 1 22 24
M  V30 24 1 22 25
M  V30 25 1 21 26
M  V30 26 2 26 27
M  V30 27 1 16 28
M  V30 28 2 28 29
M  V30 29 1 28 30
M  V30 30 1 7 31
M  V30 31 2 31 32
M  V30 32 1 32 4
M  V30 33 1 30 12
M  V30 34 1 27 18
M  V30 35 1 1 33
M  V30 36 1 1 34
M  V30 37 1 1 35
M  V30 38 1 3 36
M  V30 39 1 3 37
M  V30 40 1 3 38
M  V30 41 1 5 39
M  V30 42 1 6 40
M  V30 43 1 11 41
M  V30 44 1 11 42
M  V30 45 1 13 43
M  V30 46 1 13 44
M  V30 47 1 14 45
M  V30 48 1 15 46
M  V30 49 1 15 47
M  V30 50 1 17 48
M  V30 51 1 19 49
M  V30 52 1 20 50
M  V30 53 1 26 51
M  V30 54 1 27 52
M  V30 55 1 31 53
M  V30 56 1 32 54
M  V30 END BOND
M  V30 END CTAB
M  END
>  <Dataset>  (87) 
ChEMBL_Kinases

>  <Ligand_Instance>  (87) 
nan

>  <PDB_ID>  (87) 
nan

>  <Standardized_SMILES>  (87) 
CN(C)c1ccc(C(=O)OCC2(CO)C/C(=C/c3ccc(C(F)(F)F)cc3)C(=O)O2)cc1

>  <Name>  (87) 
nan

>  <Pocket>  (87) 
nan

>  <ATP_Site>  (87) 
nan

>  <Peripheral>  (87) 
nan

>  <Num_H_Atoms_ProtBoundConf>  (87) 
nan

>  <Num_Resolved_Atoms>  (87) 
nan

>  <Num_Not_Resolved_Atoms>  (87) 
nan

$$$$
CHEMBL512744
     RDKit          3D

  0  0  0  0  0  0  0  0  0  0999 V3000
M  V30 BEGIN CTAB
M  V30 COUNTS 37 40 0 0 0
M  V30 BEGIN ATOM
M  V30 1 O 1.153049 -0.751575 4.568419 0
M  V30 2 C 0.654374 -1.227658 3.523054 0
M  V30 3 N 0.467598 -2.629490 3.398067 0
M  V30 4 C -0.425701 -3.125009 2.410752 0
M  V30 5 C -0.495709 -2.397762 1.127853 0
M  V30 6 C 0.439848 -2.962248 0.086525 0
M  V30 7 C 1.690916 -3.422685 0.487551 0
M  V30 8 C 2.566623 -3.943327 -0.439950 0
M  V30 9 C 2.202967 -4.009696 -1.776050 0
M  V30 10 C 0.954754 -3.547468 -2.158857 0
M  V30 11 C 0.059507 -3.021512 -1.249046 0
M  V30 12 C -0.289109 -0.930243 1.284234 0
M  V30 13 N -0.572986 0.073230 0.411522 0
M  V30 14 C -0.207875 1.227066 1.001477 0
M  V30 15 C -0.359533 2.537761 0.366522 0
M  V30 16 C -0.898546 2.645239 -0.898871 0
M  V30 17 C -1.020796 3.902468 -1.454420 0
M  V30 18 N -0.632816 5.031044 -0.806286 0
M  V30 19 C -0.106972 4.955496 0.421802 0
M  V30 20 C 0.029273 3.695890 1.010119 0
M  V30 21 C 0.319915 1.026846 2.261245 0
M  V30 22 C 0.260636 -0.356429 2.425982 0
M  V30 23 H 1.006136 -3.267712 4.052061 0
M  V30 24 H -0.131599 -4.189996 2.177286 0
M  V30 25 H -1.455506 -3.234666 2.852475 0
M  V30 26 H -1.520854 -2.504130 0.684540 0
M  V30 27 H 1.972607 -3.369355 1.534260 0
M  V30 28 H 3.552032 -4.305165 -0.119035 0
M  V30 29 H 2.917788 -4.426076 -2.480736 0
M  V30 30 H 0.680640 -3.604188 -3.206713 0
M  V30 31 H -0.910597 -2.665434 -1.565789 0
M  V30 32 H -0.994481 -0.052448 -0.532339 0
M  V30 33 H -1.229476 1.768279 -1.470369 0
M  V30 34 H -1.445473 3.992164 -2.452477 0
M  V30 35 H 0.228784 5.789205 1.013839 0
M  V30 36 H 0.447312 3.573459 2.000022 0
M  V30 37 H 0.690915 1.769700 2.954301 0
M  V30 END ATOM
M  V30 BEGIN BOND
M  V30 1 2 1 2
M  V30 2 1 2 3
M  V30 3 1 3 4
M  V30 4 1 4 5
M  V30 5 1 5 6
M  V30 6 2 6 7
M  V30 7 1 7 8
M  V30 8 2 8 9
M  V30 9 1 9 10
M  V30 10 2 10 11
M  V30 11 1 5 12
M  V30 12 1 12 13
M  V30 13 1 13 14
M  V30 14 1 14 15
M  V30 15 2 15 16
M  V30 16 1 16 17
M  V30 17 2 17 18
M  V30 18 1 18 19
M  V30 19 2 19 20
M  V30 20 2 14 21
M  V30 21 1 21 22
M  V30 22 1 22 2
M  V30 23 1 11 6
M  V30 24 2 22 12
M  V30 25 1 20 15
M  V30 26 1 3 23
M  V30 27 1 4 24
M  V30 28 1 4 25
M  V30 29 1 5 26
M  V30 30 1 7 27
M  V30 31 1 8 28
M  V30 32 1 9 29
M  V30 33 1 10 30
M  V30 34 1 11 31
M  V30 35 1 13 32
M  V30 36 1 16 33
M  V30 37 1 17 34
M  V30 38 1 19 35
M  V30 39 1 20 36
M  V30 40 1 21 37
M  V30 END BOND
M  V30 END CTAB
M  END
>  <Dataset>  (88) 
ChEMBL_Kinases

>  <Ligand_Instance>  (88) 
nan

>  <PDB_ID>  (88) 
nan

>  <Standardized_SMILES>  (88) 
O=C1NCC(c2ccccc2)c2[nH]c(-c3ccncc3)cc21

>  <Name>  (88) 
nan

>  <Pocket>  (88) 
nan

>  <ATP_Site>  (88) 
nan

>  <Peripheral>  (88) 
nan

>  <Num_H_Atoms_ProtBoundConf>  (88) 
nan

>  <Num_Resolved_Atoms>  (88) 
nan

>  <Num_Not_Resolved_Atoms>  (88) 
nan

$$$$
CHEMBL3733109
     RDKit          3D

  0  0  0  0  0  0  0  0  0  0999 V3000
M  V30 BEGIN CTAB
M  V30 COUNTS 46 49 0 0 0
M  V30 BEGIN ATOM
M  V30 1 C 1.478531 -5.824189 4.809809 0
M  V30 2 C 0.968486 -4.759000 3.946758 0
M  V30 3 C -0.333415 -4.498677 3.589721 0
M  V30 4 C -0.760746 -3.481855 2.773275 0
M  V30 5 C -2.210570 -3.365830 2.506205 0
M  V30 6 C 0.147969 -2.602759 2.226062 0
M  V30 7 C 1.440519 -2.899020 2.608917 0
M  V30 8 N 1.853444 -3.900257 3.411875 0
M  V30 9 S 2.450638 -1.568827 1.735657 0
M  V30 10 C 1.064059 -0.812854 0.996005 0
M  V30 11 C 1.042523 0.286273 0.168204 0
M  V30 12 N 2.262298 0.930903 -0.164374 0
M  V30 13 C 2.193113 2.062888 -1.022696 0
M  V30 14 C 3.578145 2.606241 -1.259002 0 CFG=1
M  V30 15 C 3.591754 3.802057 -2.155056 0
M  V30 16 N 4.178956 2.979864 0.006336 0
M  V30 17 N -0.149879 0.719043 -0.304670 0
M  V30 18 C -1.233361 0.003673 0.097901 0
M  V30 19 C -2.591075 0.381572 -0.354305 0
M  V30 20 C -2.698103 1.472911 -1.186909 0
M  V30 21 C -3.943592 1.843542 -1.619735 0
M  V30 22 N -5.073694 1.199521 -1.276491 0
M  V30 23 C -4.974147 0.122963 -0.455912 0
M  V30 24 C -3.730791 -0.271986 -0.005093 0
M  V30 25 N -1.175989 -1.052253 0.897726 0
M  V30 26 C -0.021014 -1.527929 1.398163 0
M  V30 27 H 1.875037 -6.641944 4.160219 0
M  V30 28 H 2.227098 -5.466868 5.554534 0
M  V30 29 H 0.637075 -6.215667 5.436151 0
M  V30 30 H -1.078748 -5.182971 4.010965 0
M  V30 31 H -2.785752 -3.869710 3.282838 0
M  V30 32 H -2.496780 -3.695111 1.472292 0
M  V30 33 H -2.427193 -2.259863 2.539938 0
M  V30 34 H 3.164060 0.593327 0.200906 0
M  V30 35 H 1.645096 2.872884 -0.459056 0
M  V30 36 H 1.629892 1.888131 -1.939521 0
M  V30 37 H 4.151389 1.753343 -1.729723 0
M  V30 38 H 2.867543 4.545596 -1.733687 0
M  V30 39 H 4.604629 4.239537 -2.108299 0
M  V30 40 H 3.337349 3.557487 -3.204851 0
M  V30 41 H 4.939975 3.701530 -0.096294 0
M  V30 42 H 4.670413 2.133610 0.400821 0
M  V30 43 H -1.860575 2.059196 -1.523122 0
M  V30 44 H -4.097525 2.686579 -2.271752 0
M  V30 45 H -5.830079 -0.466226 -0.119812 0
M  V30 46 H -3.638665 -1.125346 0.646986 0
M  V30 END ATOM
M  V30 BEGIN BOND
M  V30 1 1 1 2
M  V30 2 2 2 3
M  V30 3 1 3 4
M  V30 4 1 4 5
M  V30 5 2 4 6
M  V30 6 1 6 7
M  V30 7 2 7 8
M  V30 8 1 7 9
M  V30 9 1 9 10
M  V30 10 2 10 11
M  V30 11 1 11 12
M  V30 12 1 12 13
M  V30 13 1 13 14
M  V30 14 1 14 15
M  V30 15 1 14 16
M  V30 16 1 11 17
M  V30 17 2 17 18
M  V30 18 1 18 19
M  V30 19 2 19 20
M  V30 20 1 20 21
M  V30 21 2 21 22
M  V30 22 1 22 23
M  V30 23 2 23 24
M  V30 24 1 18 25
M  V30 25 2 25 26
M  V30 26 1 8 2
M  V30 27 1 26 10
M  V30 28 1 26 6
M  V30 29 1 24 19
M  V30 30 1 1 27
M  V30 31 1 1 28
M  V30 32 1 1 29
M  V30 33 1 3 30
M  V30 34 1 5 31
M  V30 35 1 5 32
M  V30 36 1 5 33
M  V30 37 1 12 34
M  V30 38 1 13 35
M  V30 39 1 13 36
M  V30 40 1 14 37 CFG=3
M  V30 41 1 15 38
M  V30 42 1 15 39
M  V30 43 1 15 40
M  V30 44 1 16 41
M  V30 45 1 16 42
M  V30 46 1 20 43
M  V30 47 1 21 44
M  V30 48 1 23 45
M  V30 49 1 24 46
M  V30 END BOND
M  V30 END CTAB
M  END
>  <Dataset>  (89) 
ChEMBL_Kinases

>  <Ligand_Instance>  (89) 
nan

>  <PDB_ID>  (89) 
nan

>  <Standardized_SMILES>  (89) 
Cc1cc(C)c2c(n1)sc1c(NC[C@@H](C)N)nc(-c3ccncc3)nc12

>  <Name>  (89) 
nan

>  <Pocket>  (89) 
nan

>  <ATP_Site>  (89) 
nan

>  <Peripheral>  (89) 
nan

>  <Num_H_Atoms_ProtBoundConf>  (89) 
nan

>  <Num_Resolved_Atoms>  (89) 
nan

>  <Num_Not_Resolved_Atoms>  (89) 
nan

$$$$
CHEMBL512747
     RDKit          3D

  0  0  0  0  0  0  0  0  0  0999 V3000
M  V30 BEGIN CTAB
M  V30 COUNTS 40 42 0 0 0
M  V30 BEGIN ATOM
M  V30 1 C -0.666512 -4.305104 1.516142 0
M  V30 2 N 0.074089 -3.885275 2.673139 0
M  V30 3 C 1.483485 -4.023730 2.527876 0
M  V30 4 C 2.109907 -2.987325 1.624256 0
M  V30 5 N 1.525890 -1.706080 1.796640 0
M  V30 6 C 1.080853 -1.044508 0.600181 0
M  V30 7 C 2.214034 -0.615058 -0.303108 0
M  V30 8 C 1.707419 0.067303 -1.553358 0
M  V30 9 N 0.925191 1.248404 -1.283322 0
M  V30 10 N 1.143550 2.541885 -1.131588 0
M  V30 11 C -0.022335 3.181732 -0.885422 0
M  V30 12 C -0.426895 4.477128 -0.649134 0
M  V30 13 Br 0.943208 5.815940 -0.647205 0
M  V30 14 C -1.745296 4.819479 -0.423668 0
M  V30 15 Br -2.247345 6.643995 -0.101821 0
M  V30 16 C -2.711302 3.827544 -0.432727 0
M  V30 17 Br -4.552957 4.239715 -0.127717 0
M  V30 18 C -2.365637 2.510493 -0.663970 0
M  V30 19 Br -3.632835 1.075084 -0.694900 0
M  V30 20 C -1.017840 2.207660 -0.887987 0
M  V30 21 N -0.389180 1.045241 -1.135025 0
M  V30 22 C 0.694146 -1.508943 2.927927 0
M  V30 23 C -0.338248 -2.598425 3.127885 0
M  V30 24 H -0.804355 -5.414937 1.540373 0
M  V30 25 H -1.693152 -3.841207 1.587843 0
M  V30 26 H -0.241044 -3.960091 0.555482 0
M  V30 27 H 1.706721 -5.051966 2.168059 0
M  V30 28 H 1.956025 -3.913925 3.528623 0
M  V30 29 H 2.130710 -3.336357 0.567656 0
M  V30 30 H 3.190688 -2.905786 1.934109 0
M  V30 31 H 0.564201 -0.108676 0.951518 0
M  V30 32 H 0.417039 -1.710200 0.051484 0
M  V30 33 H 2.854793 0.074206 0.283741 0
M  V30 34 H 2.788105 -1.509878 -0.618799 0
M  V30 35 H 1.227601 -0.641721 -2.252935 0
M  V30 36 H 2.642504 0.399600 -2.095658 0
M  V30 37 H 1.342257 -1.429691 3.825163 0
M  V30 38 H 0.146855 -0.552837 2.801811 0
M  V30 39 H -0.475946 -2.692992 4.244322 0
M  V30 40 H -1.334914 -2.279144 2.759943 0
M  V30 END ATOM
M  V30 BEGIN BOND
M  V30 1 1 1 2
M  V30 2 1 2 3
M  V30 3 1 3 4
M  V30 4 1 4 5
M  V30 5 1 5 6
M  V30 6 1 6 7
M  V30 7 1 7 8
M  V30 8 1 8 9
M  V30 9 1 9 10
M  V30 10 2 10 11
M  V30 11 1 11 12
M  V30 12 1 12 13
M  V30 13 2 12 14
M  V30 14 1 14 15
M  V30 15 1 14 16
M  V30 16 1 16 17
M  V30 17 2 16 18
M  V30 18 1 18 19
M  V30 19 1 18 20
M  V30 20 2 20 21
M  V30 21 1 5 22
M  V30 22 1 22 23
M  V30 23 1 23 2
M  V30 24 1 21 9
M  V30 25 1 20 11
M  V30 26 1 1 24
M  V30 27 1 1 25
M  V30 28 1 1 26
M  V30 29 1 3 27
M  V30 30 1 3 28
M  V30 31 1 4 29
M  V30 32 1 4 30
M  V30 33 1 6 31
M  V30 34 1 6 32
M  V30 35 1 7 33
M  V30 36 1 7 34
M  V30 37 1 8 35
M  V30 38 1 8 36
M  V30 39 1 22 37
M  V30 40 1 22 38
M  V30 41 1 23 39
M  V30 42 1 23 40
M  V30 END BOND
M  V30 END CTAB
M  END
>  <Dataset>  (90) 
ChEMBL_Kinases

>  <Ligand_Instance>  (90) 
nan

>  <PDB_ID>  (90) 
nan

>  <Standardized_SMILES>  (90) 
CN1CCN(CCCn2nc3c(Br)c(Br)c(Br)c(Br)c3n2)CC1

>  <Name>  (90) 
nan

>  <Pocket>  (90) 
nan

>  <ATP_Site>  (90) 
nan

>  <Peripheral>  (90) 
nan

>  <Num_H_Atoms_ProtBoundConf>  (90) 
nan

>  <Num_Resolved_Atoms>  (90) 
nan

>  <Num_Not_Resolved_Atoms>  (90) 
nan

$$$$
CHEMBL512504
     RDKit          3D

  0  0  0  0  0  0  0  0  0  0999 V3000
M  V30 BEGIN CTAB
M  V30 COUNTS 38 41 0 0 0
M  V30 BEGIN ATOM
M  V30 1 N 4.674024 -2.179329 4.742168 0
M  V30 2 C 3.541673 -2.446841 4.612611 0
M  V30 3 C 2.128802 -2.763325 4.434147 0
M  V30 4 C 1.420804 -2.175777 3.407562 0
M  V30 5 O 2.136322 -1.302871 2.599816 0
M  V30 6 C 0.091499 -2.516271 3.294039 0
M  V30 7 C -0.756038 -2.035000 2.334441 0
M  V30 8 C -0.565911 -1.078021 1.258611 0
M  V30 9 C -0.060727 0.199199 1.371909 0
M  V30 10 C 0.115624 1.060936 0.311461 0
M  V30 11 C -0.244031 0.594214 -0.935468 0
M  V30 12 C -0.059927 1.505754 -2.074546 0
M  V30 13 C 1.156037 2.189624 -2.115710 0
M  V30 14 C 1.376736 3.066647 -3.178782 0
M  V30 15 C 0.375700 3.184953 -4.100106 0
M  V30 16 C -0.842164 2.524986 -4.093891 0
M  V30 17 C -1.038702 1.663506 -3.034378 0
M  V30 18 O -2.229104 0.970959 -2.961756 0
M  V30 19 C -0.756306 -0.651940 -1.175540 0
M  V30 20 C -0.892963 -1.433487 -0.055122 0
M  V30 21 C -2.098265 -2.529546 2.395661 0
M  V30 22 S -2.073291 -3.637112 3.801651 0
M  V30 23 C -0.393029 -3.411174 4.219590 0
M  V30 24 N 0.347977 -3.949793 5.198057 0
M  V30 25 C 1.651618 -3.665911 5.373251 0
M  V30 26 O 2.345095 -4.157831 6.274053 0
M  V30 27 H 2.702631 -0.608502 3.069886 0
M  V30 28 H 0.203663 0.550789 2.355296 0
M  V30 29 H 0.517685 2.050753 0.468945 0
M  V30 30 H 1.936719 2.087573 -1.383478 0
M  V30 31 H 2.298161 3.627172 -3.269285 0
M  V30 32 H 0.561709 3.875173 -4.927439 0
M  V30 33 H -1.550042 2.711276 -4.889306 0
M  V30 34 H -3.088146 1.328331 -2.583108 0
M  V30 35 H -1.044542 -1.039305 -2.138248 0
M  V30 36 H -1.300670 -2.449188 -0.182895 0
M  V30 37 H -2.982265 -2.365505 1.818817 0
M  V30 38 H -0.131641 -4.616250 5.839267 0
M  V30 END ATOM
M  V30 BEGIN BOND
M  V30 1 3 1 2
M  V30 2 1 2 3
M  V30 3 2 3 4
M  V30 4 1 4 5
M  V30 5 1 4 6
M  V30 6 1 6 7
M  V30 7 1 7 8
M  V30 8 2 8 9
M  V30 9 1 9 10
M  V30 10 2 10 11
M  V30 11 1 11 12
M  V30 12 2 12 13
M  V30 13 1 13 14
M  V30 14 2 14 15
M  V30 15 1 15 16
M  V30 16 2 16 17
M  V30 17 1 17 18
M  V30 18 1 11 19
M  V30 19 2 19 20
M  V30 20 2 7 21
M  V30 21 1 21 22
M  V30 22 1 22 23
M  V30 23 1 23 24
M  V30 24 1 24 25
M  V30 25 2 25 26
M  V30 26 1 25 3
M  V30 27 2 23 6
M  V30 28 1 20 8
M  V30 29 1 17 12
M  V30 30 1 5 27
M  V30 31 1 9 28
M  V30 32 1 10 29
M  V30 33 1 13 30
M  V30 34 1 14 31
M  V30 35 1 15 32
M  V30 36 1 16 33
M  V30 37 1 18 34
M  V30 38 1 19 35
M  V30 39 1 20 36
M  V30 40 1 21 37
M  V30 41 1 24 38
M  V30 END BOND
M  V30 END CTAB
M  END
>  <Dataset>  (91) 
ChEMBL_Kinases

>  <Ligand_Instance>  (91) 
nan

>  <PDB_ID>  (91) 
nan

>  <Standardized_SMILES>  (91) 
N#Cc1c(O)c2c(-c3ccc(-c4ccccc4O)cc3)csc2[nH]c1=O

>  <Name>  (91) 
nan

>  <Pocket>  (91) 
nan

>  <ATP_Site>  (91) 
nan

>  <Peripheral>  (91) 
nan

>  <Num_H_Atoms_ProtBoundConf>  (91) 
nan

>  <Num_Resolved_Atoms>  (91) 
nan

>  <Num_Not_Resolved_Atoms>  (91) 
nan

$$$$
CHEMBL575914
     RDKit          3D

  0  0  0  0  0  0  0  0  0  0999 V3000
M  V30 BEGIN CTAB
M  V30 COUNTS 42 45 0 0 0
M  V30 BEGIN ATOM
M  V30 1 C -2.045539 -6.443703 0.061329 0
M  V30 2 O -1.518411 -5.141060 0.038117 0
M  V30 3 C -0.162936 -4.882923 0.291295 0
M  V30 4 C 0.744973 -5.877546 0.580125 0
M  V30 5 C 2.060127 -5.543282 0.817353 0
M  V30 6 C 2.509561 -4.240115 0.777065 0
M  V30 7 C 1.585771 -3.236001 0.483929 0
M  V30 8 C 0.270571 -3.577427 0.247560 0
M  V30 9 C -0.464327 -2.335744 -0.031979 0
M  V30 10 C 0.567030 -1.305036 0.075659 0
M  V30 11 C 0.793417 0.074539 -0.018518 0
M  V30 12 N -0.110837 1.117841 -0.320093 0
M  V30 13 C -0.253348 2.536543 -0.493945 0
M  V30 14 C -0.016999 3.257673 0.758516 0
M  V30 15 C 1.108510 3.672867 1.418766 0
M  V30 16 C 2.380354 3.416585 0.742824 0
M  V30 17 C 1.091562 4.319223 2.628896 0
M  V30 18 C -0.089515 4.599759 3.272767 0
M  V30 19 C -1.248661 4.201523 2.645422 0
M  V30 20 C -1.216708 3.547125 1.419859 0
M  V30 21 Cl -2.824606 3.130892 0.802870 0
M  V30 22 N 2.097063 0.259174 0.231894 0
M  V30 23 N 2.750258 -0.845027 0.479668 0
M  V30 24 C 1.811510 -1.796433 0.382957 0
M  V30 25 H -3.132457 -6.343567 0.318298 0
M  V30 26 H -1.957231 -6.985772 -0.897672 0
M  V30 27 H -1.618572 -7.080073 0.867807 0
M  V30 28 H 0.402897 -6.915152 0.615343 0
M  V30 29 H 2.759057 -6.340740 1.043132 0
M  V30 30 H 3.570353 -4.021725 0.973593 0
M  V30 31 H -0.895183 -2.386679 -1.055662 0
M  V30 32 H -1.327403 -2.172841 0.643273 0
M  V30 33 H -1.086567 0.720091 -0.485739 0
M  V30 34 H -1.177385 2.853107 -1.010812 0
M  V30 35 H 0.554194 2.798146 -1.262538 0
M  V30 36 H 3.047324 4.324650 0.771677 0
M  V30 37 H 2.967565 2.663683 1.347892 0
M  V30 38 H 2.312495 2.999662 -0.272176 0
M  V30 39 H 2.037834 4.599629 3.057765 0
M  V30 40 H -0.013275 5.104498 4.209099 0
M  V30 41 H -2.161514 4.436149 3.175719 0
M  V30 42 H 3.763940 -0.955062 0.700380 0
M  V30 END ATOM
M  V30 BEGIN BOND
M  V30 1 1 1 2
M  V30 2 1 2 3
M  V30 3 2 3 4
M  V30 4 1 4 5
M  V30 5 2 5 6
M  V30 6 1 6 7
M  V30 7 2 7 8
M  V30 8 1 8 9
M  V30 9 1 9 10
M  V30 10 1 10 11
M  V30 11 1 11 12
M  V30 12 1 12 13
M  V30 13 1 13 14
M  V30 14 2 14 15
M  V30 15 1 15 16
M  V30 16 1 15 17
M  V30 17 2 17 18
M  V30 18 1 18 19
M  V30 19 2 19 20
M  V30 20 1 20 21
M  V30 21 2 11 22
M  V30 22 1 22 23
M  V30 23 1 23 24
M  V30 24 1 8 3
M  V30 25 2 24 10
M  V30 26 1 24 7
M  V30 27 1 20 14
M  V30 28 1 1 25
M  V30 29 1 1 26
M  V30 30 1 1 27
M  V30 31 1 4 28
M  V30 32 1 5 29
M  V30 33 1 6 30
M  V30 34 1 9 31
M  V30 35 1 9 32
M  V30 36 1 12 33
M  V30 37 1 13 34
M  V30 38 1 13 35
M  V30 39 1 16 36
M  V30 40 1 16 37
M  V30 41 1 16 38
M  V30 42 1 17 39
M  V30 43 1 18 40
M  V30 44 1 19 41
M  V30 45 1 23 42
M  V30 END BOND
M  V30 END CTAB
M  END
>  <Dataset>  (92) 
ChEMBL_Kinases

>  <Ligand_Instance>  (92) 
nan

>  <PDB_ID>  (92) 
nan

>  <Standardized_SMILES>  (92) 
COc1cccc2c1Cc1c(NCc3c(C)cccc3Cl)n[nH]c1-2

>  <Name>  (92) 
nan

>  <Pocket>  (92) 
nan

>  <ATP_Site>  (92) 
nan

>  <Peripheral>  (92) 
nan

>  <Num_H_Atoms_ProtBoundConf>  (92) 
nan

>  <Num_Resolved_Atoms>  (92) 
nan

>  <Num_Not_Resolved_Atoms>  (92) 
nan

$$$$
CHEMBL511991
     RDKit          3D

  0  0  0  0  0  0  0  0  0  0999 V3000
M  V30 BEGIN CTAB
M  V30 COUNTS 44 48 0 0 0
M  V30 BEGIN ATOM
M  V30 1 O 1.917670 2.920898 3.171711 0
M  V30 2 C 1.416334 1.778517 3.234858 0
M  V30 3 N 1.017930 1.025658 4.399132 0
M  V30 4 C 0.496603 -0.227703 3.994470 0
M  V30 5 O 0.121350 -0.964637 4.891062 0
M  V30 6 C 0.543580 -0.318031 2.569658 0
M  V30 7 C 1.086891 0.869753 2.140017 0
M  V30 8 C 1.274975 1.112700 0.781891 0
M  V30 9 C 1.848859 2.362713 0.294896 0
M  V30 10 C 3.222935 2.492985 0.124719 0
M  V30 11 C 3.680417 3.719762 -0.343601 0
M  V30 12 C 2.834817 4.773075 -0.633171 0
M  V30 13 C 1.492250 4.591945 -0.448168 0
M  V30 14 C 0.976044 3.399532 0.013536 0
M  V30 15 Cl -0.758525 3.253092 0.222099 0
M  V30 16 C 0.912411 0.151873 -0.140432 0
M  V30 17 C 0.367170 -1.038623 0.301578 0
M  V30 18 C 0.190480 -1.256745 1.650078 0
M  V30 19 C -0.357660 -2.490290 1.830348 0
M  V30 20 C -0.779219 -3.320081 2.823477 0
M  V30 21 C -1.315155 -4.574105 2.654931 0
M  V30 22 O -1.728582 -5.376536 3.710563 0
M  V30 23 C -1.448635 -5.061735 1.352784 0
M  V30 24 C -1.034147 -4.254642 0.313188 0
M  V30 25 C -0.504239 -3.003476 0.560732 0
M  V30 26 N -0.065845 -2.125666 -0.365231 0
M  V30 27 C -0.042152 -2.271031 -1.800440 0
M  V30 28 C -1.297153 -1.781266 -2.481963 0
M  V30 29 O -2.445365 -2.421494 -2.093453 0
M  V30 30 H 1.155392 1.474122 5.354105 0
M  V30 31 H 3.831793 1.649954 0.362650 0
M  V30 32 H 4.756235 3.771078 -0.459211 0
M  V30 33 H 3.304532 5.692349 -0.995633 0
M  V30 34 H 0.852744 5.434577 -0.683174 0
M  V30 35 H 1.058978 0.341888 -1.193747 0
M  V30 36 H -0.711270 -3.022778 3.839097 0
M  V30 37 H -2.690150 -5.709079 3.800584 0
M  V30 38 H -1.859576 -6.036330 1.129776 0
M  V30 39 H -1.142765 -4.643489 -0.689238 0
M  V30 40 H 0.177806 -3.329125 -2.045234 0
M  V30 41 H 0.800711 -1.693855 -2.261511 0
M  V30 42 H -1.151836 -2.032954 -3.568553 0
M  V30 43 H -1.375597 -0.675801 -2.462684 0
M  V30 44 H -3.233151 -1.857818 -1.978912 0
M  V30 END ATOM
M  V30 BEGIN BOND
M  V30 1 2 1 2
M  V30 2 1 2 3
M  V30 3 1 3 4
M  V30 4 2 4 5
M  V30 5 1 4 6
M  V30 6 2 6 7
M  V30 7 1 7 8
M  V30 8 1 8 9
M  V30 9 2 9 10
M  V30 10 1 10 11
M  V30 11 2 11 12
M  V30 12 1 12 13
M  V30 13 2 13 14
M  V30 14 1 14 15
M  V30 15 2 8 16
M  V30 16 1 16 17
M  V30 17 2 17 18
M  V30 18 1 18 19
M  V30 19 2 19 20
M  V30 20 1 20 21
M  V30 21 1 21 22
M  V30 22 2 21 23
M  V30 23 1 23 24
M  V30 24 2 24 25
M  V30 25 1 25 26
M  V30 26 1 26 27
M  V30 27 1 27 28
M  V30 28 1 28 29
M  V30 29 1 7 2
M  V30 30 1 14 9
M  V30 31 1 26 17
M  V30 32 1 18 6
M  V30 33 1 25 19
M  V30 34 1 3 30
M  V30 35 1 10 31
M  V30 36 1 11 32
M  V30 37 1 12 33
M  V30 38 1 13 34
M  V30 39 1 16 35
M  V30 40 1 20 36
M  V30 41 1 22 37
M  V30 42 1 23 38
M  V30 43 1 24 39
M  V30 44 1 27 40
M  V30 45 1 27 41
M  V30 46 1 28 42
M  V30 47 1 28 43
M  V30 48 1 29 44
M  V30 END BOND
M  V30 END CTAB
M  END
>  <Dataset>  (93) 
ChEMBL_Kinases

>  <Ligand_Instance>  (93) 
nan

>  <PDB_ID>  (93) 
nan

>  <Standardized_SMILES>  (93) 
O=C1NC(=O)c2c1c(-c1ccccc1Cl)cc1c2c2cc(O)ccc2n1CCO

>  <Name>  (93) 
nan

>  <Pocket>  (93) 
nan

>  <ATP_Site>  (93) 
nan

>  <Peripheral>  (93) 
nan

>  <Num_H_Atoms_ProtBoundConf>  (93) 
nan

>  <Num_Resolved_Atoms>  (93) 
nan

>  <Num_Not_Resolved_Atoms>  (93) 
nan

$$$$
CHEMBL511992
     RDKit          3D

  0  0  0  0  0  0  0  0  0  0999 V3000
M  V30 BEGIN CTAB
M  V30 COUNTS 49 53 0 0 0
M  V30 BEGIN ATOM
M  V30 1 O 0.529255 -1.591130 4.583635 0
M  V30 2 C 0.989125 -2.469898 3.776803 0
M  V30 3 O 0.328102 -3.686822 3.678520 0
M  V30 4 C 2.173540 -2.357470 2.903893 0
M  V30 5 C 2.858406 -1.052103 3.020335 0
M  V30 6 C 2.099524 0.170048 2.652957 0
M  V30 7 N 1.637599 0.254406 1.305451 0
M  V30 8 C 2.397719 0.760861 0.281821 0
M  V30 9 C 3.708023 1.258131 0.340218 0
M  V30 10 C 4.387814 1.750523 -0.767742 0
M  V30 11 C 3.699190 1.732884 -1.981821 0
M  V30 12 O 4.379491 2.224840 -3.086700 0
M  V30 13 C 2.418251 1.240032 -2.006225 0
M  V30 14 C 1.738478 0.753879 -0.928511 0
M  V30 15 C 0.521414 0.226420 -0.662939 0
M  V30 16 C -0.552294 -0.021598 -1.455163 0
M  V30 17 C -1.700383 -0.567797 -0.932784 0
M  V30 18 C -1.766225 -0.871884 0.427593 0
M  V30 19 C -2.955410 -1.449676 1.029743 0
M  V30 20 C -3.891543 -0.541526 1.517192 0
M  V30 21 C -5.066003 -0.992015 2.113105 0
M  V30 22 C -5.341457 -2.356513 2.240491 0
M  V30 23 C -4.389373 -3.251312 1.745019 0
M  V30 24 C -3.225413 -2.797663 1.154504 0
M  V30 25 Cl -2.024209 -3.906004 0.529597 0
M  V30 26 C -0.658001 -0.607001 1.200760 0
M  V30 27 C 0.492973 -0.061170 0.681243 0
M  V30 28 C -2.754472 -0.768111 -1.921978 0
M  V30 29 O -3.898453 -1.243551 -1.737029 0
M  V30 30 N -2.161327 -0.293799 -3.128889 0
M  V30 31 C -0.849485 0.151511 -2.853825 0
M  V30 32 O -0.202002 0.592585 -3.797435 0
M  V30 33 H -0.518472 -3.795497 4.248997 0
M  V30 34 H 1.953077 -2.655968 1.854400 0
M  V30 35 H 2.909244 -3.137593 3.259413 0
M  V30 36 H 3.154131 -0.925220 4.101619 0
M  V30 37 H 3.839971 -1.131889 2.494177 0
M  V30 38 H 2.760969 1.043407 2.932675 0
M  V30 39 H 1.245271 0.273301 3.385098 0
M  V30 40 H 4.285980 1.294629 1.253679 0
M  V30 41 H 5.397710 2.128244 -0.695781 0
M  V30 42 H 4.475648 3.233633 -3.222719 0
M  V30 43 H 2.002589 1.278289 -2.976299 0
M  V30 44 H -3.732178 0.539813 1.446361 0
M  V30 45 H -5.831032 -0.322763 2.510753 0
M  V30 46 H -6.255259 -2.694821 2.704269 0
M  V30 47 H -4.564868 -4.304400 1.824366 0
M  V30 48 H -0.724911 -0.833722 2.231320 0
M  V30 49 H -2.727825 -0.325974 -4.028568 0
M  V30 END ATOM
M  V30 BEGIN BOND
M  V30 1 2 1 2
M  V30 2 1 2 3
M  V30 3 1 2 4
M  V30 4 1 4 5
M  V30 5 1 5 6
M  V30 6 1 6 7
M  V30 7 1 7 8
M  V30 8 2 8 9
M  V30 9 1 9 10
M  V30 10 2 10 11
M  V30 11 1 11 12
M  V30 12 1 11 13
M  V30 13 2 13 14
M  V30 14 1 14 15
M  V30 15 2 15 16
M  V30 16 1 16 17
M  V30 17 2 17 18
M  V30 18 1 18 19
M  V30 19 2 19 20
M  V30 20 1 20 21
M  V30 21 2 21 22
M  V30 22 1 22 23
M  V30 23 2 23 24
M  V30 24 1 24 25
M  V30 25 1 18 26
M  V30 26 2 26 27
M  V30 27 1 17 28
M  V30 28 2 28 29
M  V30 29 1 28 30
M  V30 30 1 30 31
M  V30 31 2 31 32
M  V30 32 1 27 7
M  V30 33 1 14 8
M  V30 34 1 27 15
M  V30 35 1 31 16
M  V30 36 1 24 19
M  V30 37 1 3 33
M  V30 38 1 4 34
M  V30 39 1 4 35
M  V30 40 1 5 36
M  V30 41 1 5 37
M  V30 42 1 6 38
M  V30 43 1 6 39
M  V30 44 1 9 40
M  V30 45 1 10 41
M  V30 46 1 12 42
M  V30 47 1 13 43
M  V30 48 1 20 44
M  V30 49 1 21 45
M  V30 50 1 22 46
M  V30 51 1 23 47
M  V30 52 1 26 48
M  V30 53 1 30 49
M  V30 END BOND
M  V30 END CTAB
M  END
>  <Dataset>  (94) 
ChEMBL_Kinases

>  <Ligand_Instance>  (94) 
nan

>  <PDB_ID>  (94) 
nan

>  <Standardized_SMILES>  (94) 
O=C(O)CCCn1c2ccc(O)cc2c2c3c(c(-c4ccccc4Cl)cc21)C(=O)NC3=O

>  <Name>  (94) 
nan

>  <Pocket>  (94) 
nan

>  <ATP_Site>  (94) 
nan

>  <Peripheral>  (94) 
nan

>  <Num_H_Atoms_ProtBoundConf>  (94) 
nan

>  <Num_Resolved_Atoms>  (94) 
nan

>  <Num_Not_Resolved_Atoms>  (94) 
nan

$$$$
CHEMBL373480
     RDKit          3D

  0  0  0  0  0  0  0  0  0  0999 V3000
M  V30 BEGIN CTAB
M  V30 COUNTS 45 48 0 0 0
M  V30 BEGIN ATOM
M  V30 1 N -0.388600 -4.927615 4.096210 0
M  V30 2 C 0.150368 -4.509076 3.163839 0
M  V30 3 C 0.832065 -4.005105 2.014959 0
M  V30 4 C 1.757525 -4.773787 1.339792 0
M  V30 5 N 2.411681 -4.319658 0.255276 0
M  V30 6 C 2.146290 -3.074966 -0.174700 0
M  V30 7 C 2.818471 -2.614221 -1.285605 0
M  V30 8 C 2.626543 -1.360752 -1.811665 0
M  V30 9 C 1.713806 -0.488477 -1.215183 0
M  V30 10 N 1.444973 0.803068 -1.685942 0
M  V30 11 C 0.606765 1.914796 -1.299098 0
M  V30 12 C 0.960571 2.535104 -0.012903 0
M  V30 13 C 1.971271 3.485594 -0.220149 0
M  V30 14 C 2.499511 4.243651 0.830699 0
M  V30 15 C 2.026677 4.067108 2.117119 0
M  V30 16 C 1.032895 3.130295 2.309355 0
M  V30 17 C 0.511193 2.383570 1.278699 0
M  V30 18 C 1.061036 -0.974678 -0.113033 0
M  V30 19 C 1.240028 -2.228940 0.429658 0
M  V30 20 C 0.599255 -2.735073 1.529309 0
M  V30 21 N -0.347939 -1.872599 2.174227 0
M  V30 22 C -1.743737 -1.718106 1.939094 0
M  V30 23 C -2.409585 -0.798025 2.725264 0
M  V30 24 C -3.762425 -0.646907 2.498845 0
M  V30 25 C -4.372903 -1.408406 1.516058 0
M  V30 26 F -5.706549 -1.242663 1.310650 0
M  V30 27 C -3.666460 -2.325940 0.744200 0
M  V30 28 Cl -4.505451 -3.255080 -0.481843 0
M  V30 29 C -2.312087 -2.496020 0.950930 0
M  V30 30 H 1.941837 -5.786791 1.728861 0
M  V30 31 H 3.547610 -3.209609 -1.823863 0
M  V30 32 H 3.174092 -1.010471 -2.701333 0
M  V30 33 H 2.012295 1.019228 -2.558663 0
M  V30 34 H -0.432913 1.457600 -1.173066 0
M  V30 35 H 0.512144 2.637550 -2.121427 0
M  V30 36 H 2.458048 3.756503 -1.148940 0
M  V30 37 H 3.268522 4.981364 0.737414 0
M  V30 38 H 2.370208 4.602857 2.991375 0
M  V30 39 H 0.560740 2.878086 3.256833 0
M  V30 40 H -0.263898 1.647096 1.340936 0
M  V30 41 H 0.325078 -0.430639 0.455951 0
M  V30 42 H 0.180150 -1.337872 2.893047 0
M  V30 43 H -1.922232 -0.216353 3.481986 0
M  V30 44 H -4.367723 0.048002 3.063330 0
M  V30 45 H -1.730313 -3.196649 0.373643 0
M  V30 END ATOM
M  V30 BEGIN BOND
M  V30 1 3 1 2
M  V30 2 1 2 3
M  V30 3 2 3 4
M  V30 4 1 4 5
M  V30 5 2 5 6
M  V30 6 1 6 7
M  V30 7 2 7 8
M  V30 8 1 8 9
M  V30 9 1 9 10
M  V30 10 1 10 11
M  V30 11 1 11 12
M  V30 12 2 12 13
M  V30 13 1 13 14
M  V30 14 2 14 15
M  V30 15 1 15 16
M  V30 16 2 16 17
M  V30 17 2 9 18
M  V30 18 1 18 19
M  V30 19 2 19 20
M  V30 20 1 20 21
M  V30 21 1 21 22
M  V30 22 2 22 23
M  V30 23 1 23 24
M  V30 24 2 24 25
M  V30 25 1 25 26
M  V30 26 1 25 27
M  V30 27 1 27 28
M  V30 28 2 27 29
M  V30 29 1 20 3
M  V30 30 1 29 22
M  V30 31 1 19 6
M  V30 32 1 17 12
M  V30 33 1 4 30
M  V30 34 1 7 31
M  V30 35 1 8 32
M  V30 36 1 10 33
M  V30 37 1 11 34
M  V30 38 1 11 35
M  V30 39 1 13 36
M  V30 40 1 14 37
M  V30 41 1 15 38
M  V30 42 1 16 39
M  V30 43 1 17 40
M  V30 44 1 18 41
M  V30 45 1 21 42
M  V30 46 1 23 43
M  V30 47 1 24 44
M  V30 48 1 29 45
M  V30 END BOND
M  V30 END CTAB
M  END
>  <Dataset>  (95) 
ChEMBL_Kinases

>  <Ligand_Instance>  (95) 
nan

>  <PDB_ID>  (95) 
nan

>  <Standardized_SMILES>  (95) 
N#Cc1cnc2ccc(NCc3ccccc3)cc2c1Nc1ccc(F)c(Cl)c1

>  <Name>  (95) 
nan

>  <Pocket>  (95) 
nan

>  <ATP_Site>  (95) 
nan

>  <Peripheral>  (95) 
nan

>  <Num_H_Atoms_ProtBoundConf>  (95) 
nan

>  <Num_Resolved_Atoms>  (95) 
nan

>  <Num_Not_Resolved_Atoms>  (95) 
nan

$$$$
CHEMBL3734776
     RDKit          3D

  0  0  0  0  0  0  0  0  0  0999 V3000
M  V30 BEGIN CTAB
M  V30 COUNTS 69 72 0 0 0
M  V30 BEGIN ATOM
M  V30 1 C 4.071505 5.455504 5.163534 0
M  V30 2 O 5.233475 4.685606 5.347245 0
M  V30 3 C 5.515822 3.503583 4.702499 0
M  V30 4 C 6.716567 2.913506 5.034602 0
M  V30 5 C 7.099314 1.727742 4.449261 0
M  V30 6 C 6.245721 1.160190 3.529606 0
M  V30 7 N 6.243989 0.062083 2.766964 0
M  V30 8 N 5.148200 -0.038030 2.021225 0
M  V30 9 C 4.349110 1.028448 2.267733 0
M  V30 10 C 3.111703 1.090714 1.546791 0
M  V30 11 O 2.937121 0.106779 0.740744 0
M  V30 12 N 1.999397 1.895577 1.430511 0
M  V30 13 C 0.737662 2.243269 0.911539 0
M  V30 14 C -0.350172 1.293195 1.250490 0
M  V30 15 C -1.678347 1.764421 0.665863 0
M  V30 16 C -2.030990 1.088311 -0.630916 0
M  V30 17 N -1.960701 -0.330771 -0.549825 0
M  V30 18 C -2.902476 -1.111687 -1.215754 0
M  V30 19 C -2.857726 -1.105524 -2.725657 0
M  V30 20 C -3.955352 -2.015886 -3.296239 0
M  V30 21 N -3.812209 -3.356642 -2.865431 0
M  V30 22 C -2.692687 -4.082249 -3.352597 0
M  V30 23 C -2.570677 -5.420679 -2.658303 0 CFG=1
M  V30 24 C -1.132495 -5.734590 -2.302460 0
M  V30 25 O -3.296249 -5.364040 -1.483483 0
M  V30 26 C -4.656313 -5.349598 -1.838869 0 CFG=1
M  V30 27 C -5.473931 -5.517134 -0.603509 0
M  V30 28 C -4.995410 -4.098977 -2.615872 0
M  V30 29 C -1.420296 -0.801973 0.687220 0
M  V30 30 C -0.059090 -0.097109 0.798104 0
M  V30 31 C 5.050521 1.749708 3.200691 0
M  V30 32 C 4.675866 2.929793 3.786805 0
M  V30 33 H 4.289932 6.534602 5.391226 0
M  V30 34 H 3.278824 5.068737 5.849803 0
M  V30 35 H 3.659293 5.429300 4.151509 0
M  V30 36 H 7.410404 3.339166 5.757877 0
M  V30 37 H 8.025229 1.220524 4.669922 0
M  V30 38 H 7.000543 -0.665942 2.728389 0
M  V30 39 H 2.278708 2.649762 2.117659 0
M  V30 40 H 0.414886 3.240516 1.340467 0
M  V30 41 H 0.784822 2.427138 -0.213476 0
M  V30 42 H -0.440597 1.289045 2.365299 0
M  V30 43 H -2.449055 1.563670 1.434962 0
M  V30 44 H -1.615737 2.864197 0.550553 0
M  V30 45 H -3.056203 1.382694 -0.906998 0
M  V30 46 H -1.350070 1.444177 -1.421207 0
M  V30 47 H -2.759860 -2.174061 -0.919567 0
M  V30 48 H -3.916267 -0.847861 -0.849440 0
M  V30 49 H -3.090523 -0.078256 -3.070339 0
M  V30 50 H -1.906235 -1.432047 -3.134735 0
M  V30 51 H -4.952889 -1.637254 -3.077626 0
M  V30 52 H -3.821446 -1.975648 -4.401457 0
M  V30 53 H -1.728726 -3.566982 -3.205794 0
M  V30 54 H -2.820588 -4.241842 -4.457451 0
M  V30 55 H -2.968224 -6.192627 -3.330910 0
M  V30 56 H -0.677379 -6.437196 -3.016247 0
M  V30 57 H -1.095321 -6.213407 -1.304187 0
M  V30 58 H -0.532346 -4.783599 -2.198756 0
M  V30 59 H -4.816879 -6.215280 -2.512246 0
M  V30 60 H -6.463180 -5.006089 -0.658012 0
M  V30 61 H -4.958087 -5.038138 0.278022 0
M  V30 62 H -5.595095 -6.579445 -0.309006 0
M  V30 63 H -5.481919 -4.344527 -3.592798 0
M  V30 64 H -5.701118 -3.473474 -2.036623 0
M  V30 65 H -2.032675 -0.423151 1.521978 0
M  V30 66 H -1.365390 -1.877106 0.724968 0
M  V30 67 H 0.579142 -0.670382 1.502227 0
M  V30 68 H 0.441841 -0.067499 -0.173216 0
M  V30 69 H 3.750166 3.408968 3.547042 0
M  V30 END ATOM
M  V30 BEGIN BOND
M  V30 1 1 1 2
M  V30 2 1 2 3
M  V30 3 2 3 4
M  V30 4 1 4 5
M  V30 5 2 5 6
M  V30 6 1 6 7
M  V30 7 1 7 8
M  V30 8 2 8 9
M  V30 9 1 9 10
M  V30 10 2 10 11
M  V30 11 1 10 12
M  V30 12 1 12 13
M  V30 13 1 13 14
M  V30 14 1 14 15
M  V30 15 1 15 16
M  V30 16 1 16 17
M  V30 17 1 17 18
M  V30 18 1 18 19
M  V30 19 1 19 20
M  V30 20 1 20 21
M  V30 21 1 21 22
M  V30 22 1 22 23
M  V30 23 1 23 24
M  V30 24 1 23 25
M  V30 25 1 25 26
M  V30 26 1 26 27
M  V30 27 1 26 28
M  V30 28 1 17 29
M  V30 29 1 29 30
M  V30 30 1 9 31
M  V30 31 2 31 32
M  V30 32 1 32 3
M  V30 33 1 31 6
M  V30 34 1 30 14
M  V30 35 1 28 21
M  V30 36 1 1 33
M  V30 37 1 1 34
M  V30 38 1 1 35
M  V30 39 1 4 36
M  V30 40 1 5 37
M  V30 41 1 7 38
M  V30 42 1 12 39
M  V30 43 1 13 40
M  V30 44 1 13 41
M  V30 45 1 14 42
M  V30 46 1 15 43
M  V30 47 1 15 44
M  V30 48 1 16 45
M  V30 49 1 16 46
M  V30 50 1 18 47
M  V30 51 1 18 48
M  V30 52 1 19 49
M  V30 53 1 19 50
M  V30 54 1 20 51
M  V30 55 1 20 52
M  V30 56 1 22 53
M  V30 57 1 22 54
M  V30 58 1 23 55 CFG=3
M  V30 59 1 24 56
M  V30 60 1 24 57
M  V30 61 1 24 58
M  V30 62 1 26 59 CFG=3
M  V30 63 1 27 60
M  V30 64 1 27 61
M  V30 65 1 27 62
M  V30 66 1 28 63
M  V30 67 1 28 64
M  V30 68 1 29 65
M  V30 69 1 29 66
M  V30 70 1 30 67
M  V30 71 1 30 68
M  V30 72 1 32 69
M  V30 END BOND
M  V30 END CTAB
M  END
>  <Dataset>  (96) 
ChEMBL_Kinases

>  <Ligand_Instance>  (96) 
nan

>  <PDB_ID>  (96) 
nan

>  <Standardized_SMILES>  (96) 
COc1ccc2[nH]nc(C(=O)NCC3CCN(CCCN4C[C@@H](C)O[C@@H](C)C4)CC3)c2c1

>  <Name>  (96) 
nan

>  <Pocket>  (96) 
nan

>  <ATP_Site>  (96) 
nan

>  <Peripheral>  (96) 
nan

>  <Num_H_Atoms_ProtBoundConf>  (96) 
nan

>  <Num_Resolved_Atoms>  (96) 
nan

>  <Num_Not_Resolved_Atoms>  (96) 
nan

$$$$
CHEMBL373448
     RDKit          3D

  0  0  0  0  0  0  0  0  0  0999 V3000
M  V30 BEGIN CTAB
M  V30 COUNTS 46 49 0 0 0
M  V30 BEGIN ATOM
M  V30 1 O 1.751077 0.586992 0.710273 0
M  V30 2 C 1.216447 0.121064 1.769772 0
M  V30 3 N 1.998022 -0.604890 2.710766 0
M  V30 4 C 3.415202 -0.881735 2.582864 0
M  V30 5 C 3.731229 -1.669718 1.352817 0
M  V30 6 C 5.179388 -1.964368 1.202655 0
M  V30 7 C 6.061221 -1.141411 0.530577 0
M  V30 8 C 7.411535 -1.399167 0.382788 0
M  V30 9 C 7.905460 -2.551707 0.943064 0
M  V30 10 N 7.063424 -3.362260 1.598956 0
M  V30 11 C 5.745791 -3.106638 1.740992 0
M  V30 12 C -0.211058 0.361638 1.972564 0
M  V30 13 C -0.995020 1.062152 1.078067 0
M  V30 14 C -2.279766 1.066763 1.636084 0
M  V30 15 C -3.544273 1.640014 1.167944 0
M  V30 16 N -4.216166 2.660284 1.735950 0
M  V30 17 N -5.325420 2.902298 1.019105 0
M  V30 18 C -5.378765 2.041996 -0.014786 0
M  V30 19 C -4.248012 1.219181 0.055171 0
M  V30 20 C -3.929144 0.147578 -0.878120 0
M  V30 21 C -2.851742 0.007583 -1.726277 0
M  V30 22 C -2.747905 -1.112582 -2.535662 0
M  V30 23 C -3.738975 -2.078367 -2.475919 0
M  V30 24 C -4.842884 -1.968642 -1.629171 0
M  V30 25 Cl -6.027445 -3.252606 -1.644348 0
M  V30 26 C -4.919263 -0.837317 -0.831199 0
M  V30 27 C -2.190088 0.369288 2.831568 0
M  V30 28 N -0.911779 -0.059349 3.026593 0
M  V30 29 H 1.456490 -0.940998 3.540056 0
M  V30 30 H 3.945885 0.108825 2.486266 0
M  V30 31 H 3.768432 -1.316286 3.514311 0
M  V30 32 H 3.204981 -2.644772 1.416054 0
M  V30 33 H 3.435896 -1.063706 0.465248 0
M  V30 34 H 5.634301 -0.235769 0.098325 0
M  V30 35 H 8.060155 -0.711827 -0.157604 0
M  V30 36 H 8.966033 -2.774978 0.838818 0
M  V30 37 H 5.126926 -3.806339 2.282983 0
M  V30 38 H -0.781241 1.542978 0.134787 0
M  V30 39 H -3.968248 3.209768 2.588389 0
M  V30 40 H -6.121549 1.933946 -0.803467 0
M  V30 41 H -2.162410 0.830404 -1.668369 0
M  V30 42 H -1.882873 -1.168057 -3.178883 0
M  V30 43 H -3.577608 -2.918427 -3.141046 0
M  V30 44 H -5.810562 -0.848177 -0.213345 0
M  V30 45 H -2.984926 0.167960 3.539391 0
M  V30 46 H -0.542472 -0.607088 3.832900 0
M  V30 END ATOM
M  V30 BEGIN BOND
M  V30 1 2 1 2
M  V30 2 1 2 3
M  V30 3 1 3 4
M  V30 4 1 4 5
M  V30 5 1 5 6
M  V30 6 2 6 7
M  V30 7 1 7 8
M  V30 8 2 8 9
M  V30 9 1 9 10
M  V30 10 2 10 11
M  V30 11 1 2 12
M  V30 12 2 12 13
M  V30 13 1 13 14
M  V30 14 1 14 15
M  V30 15 1 15 16
M  V30 16 1 16 17
M  V30 17 2 17 18
M  V30 18 1 18 19
M  V30 19 1 19 20
M  V30 20 2 20 21
M  V30 21 1 21 22
M  V30 22 2 22 23
M  V30 23 1 23 24
M  V30 24 1 24 25
M  V30 25 2 24 26
M  V30 26 2 14 27
M  V30 27 1 27 28
M  V30 28 1 11 6
M  V30 29 1 28 12
M  V30 30 2 19 15
M  V30 31 1 26 20
M  V30 32 1 3 29
M  V30 33 1 4 30
M  V30 34 1 4 31
M  V30 35 1 5 32
M  V30 36 1 5 33
M  V30 37 1 7 34
M  V30 38 1 8 35
M  V30 39 1 9 36
M  V30 40 1 11 37
M  V30 41 1 13 38
M  V30 42 1 16 39
M  V30 43 1 18 40
M  V30 44 1 21 41
M  V30 45 1 22 42
M  V30 46 1 23 43
M  V30 47 1 26 44
M  V30 48 1 27 45
M  V30 49 1 28 46
M  V30 END BOND
M  V30 END CTAB
M  END
>  <Dataset>  (97) 
ChEMBL_Kinases

>  <Ligand_Instance>  (97) 
nan

>  <PDB_ID>  (97) 
nan

>  <Standardized_SMILES>  (97) 
O=C(NCCc1cccnc1)c1cc(-c2[nH]ncc2-c2cccc(Cl)c2)c[nH]1

>  <Name>  (97) 
nan

>  <Pocket>  (97) 
nan

>  <ATP_Site>  (97) 
nan

>  <Peripheral>  (97) 
nan

>  <Num_H_Atoms_ProtBoundConf>  (97) 
nan

>  <Num_Resolved_Atoms>  (97) 
nan

>  <Num_Not_Resolved_Atoms>  (97) 
nan

$$$$
CHEMBL373419
     RDKit          3D

  0  0  0  0  0  0  0  0  0  0999 V3000
M  V30 BEGIN CTAB
M  V30 COUNTS 40 43 0 0 0
M  V30 BEGIN ATOM
M  V30 1 C 0.620718 -3.171340 0.686606 0
M  V30 2 C 1.560746 -2.049298 0.305345 0
M  V30 3 N 0.989817 -1.154672 -0.677116 0
M  V30 4 C 1.069478 -1.252169 -2.016630 0
M  V30 5 C 1.765412 -2.307025 -2.746507 0
M  V30 6 N 2.449121 -3.365341 -2.274745 0
M  V30 7 O 2.932034 -4.088829 -3.240718 0
M  V30 8 N 2.592266 -3.546381 -4.368805 0
M  V30 9 C 1.858119 -2.423954 -4.119873 0
M  V30 10 N 1.279613 -1.518593 -5.055086 0
M  V30 11 N 0.418516 -0.242296 -2.587327 0
M  V30 12 C -0.121457 0.568901 -1.629650 0
M  V30 13 C -0.874903 1.725863 -1.647636 0
M  V30 14 N -1.248876 2.278248 -0.475319 0
M  V30 15 C -0.907091 1.731695 0.705979 0
M  V30 16 O -1.300875 2.314004 1.904446 0
M  V30 17 C -0.974133 1.789376 3.149098 0
M  V30 18 C 0.228844 2.266615 3.679138 0
M  V30 19 C 0.695529 1.843600 4.907896 0
M  V30 20 C -0.078650 0.919277 5.605125 0
M  V30 21 C -1.283597 0.423745 5.103679 0
M  V30 22 N -2.067664 -0.520203 5.822945 0
M  V30 23 C -1.709995 0.875354 3.871454 0
M  V30 24 C -0.151399 0.570970 0.741213 0
M  V30 25 C 0.257887 -0.035623 -0.431268 0
M  V30 26 H -0.425290 -2.952902 0.445607 0
M  V30 27 H 0.901571 -4.123077 0.184561 0
M  V30 28 H 0.772224 -3.370685 1.777548 0
M  V30 29 H 1.821446 -1.433077 1.202205 0
M  V30 30 H 2.497281 -2.513781 -0.042813 0
M  V30 31 H 0.564508 -1.591013 -5.813237 0
M  V30 32 H 1.633859 -0.535030 -4.995960 0
M  V30 33 H -1.153024 2.170490 -2.602048 0
M  V30 34 H 0.844423 2.989910 3.144361 0
M  V30 35 H 1.629277 2.215601 5.316663 0
M  V30 36 H 0.287147 0.578600 6.583580 0
M  V30 37 H -2.326745 -1.438552 5.439475 0
M  V30 38 H -2.329918 -0.150952 6.765090 0
M  V30 39 H -2.636616 0.543180 3.403565 0
M  V30 40 H 0.123876 0.130920 1.684987 0
M  V30 END ATOM
M  V30 BEGIN BOND
M  V30 1 1 1 2
M  V30 2 1 2 3
M  V30 3 1 3 4
M  V30 4 1 4 5
M  V30 5 2 5 6
M  V30 6 1 6 7
M  V30 7 1 7 8
M  V30 8 2 8 9
M  V30 9 1 9 10
M  V30 10 2 4 11
M  V30 11 1 11 12
M  V30 12 2 12 13
M  V30 13 1 13 14
M  V30 14 2 14 15
M  V30 15 1 15 16
M  V30 16 1 16 17
M  V30 17 2 17 18
M  V30 18 1 18 19
M  V30 19 2 19 20
M  V30 20 1 20 21
M  V30 21 1 21 22
M  V30 22 2 21 23
M  V30 23 1 15 24
M  V30 24 2 24 25
M  V30 25 1 25 3
M  V30 26 1 9 5
M  V30 27 1 25 12
M  V30 28 1 23 17
M  V30 29 1 1 26
M  V30 30 1 1 27
M  V30 31 1 1 28
M  V30 32 1 2 29
M  V30 33 1 2 30
M  V30 34 1 10 31
M  V30 35 1 10 32
M  V30 36 1 13 33
M  V30 37 1 18 34
M  V30 38 1 19 35
M  V30 39 1 20 36
M  V30 40 1 22 37
M  V30 41 1 22 38
M  V30 42 1 23 39
M  V30 43 1 24 40
M  V30 END BOND
M  V30 END CTAB
M  END
>  <Dataset>  (98) 
ChEMBL_Kinases

>  <Ligand_Instance>  (98) 
nan

>  <PDB_ID>  (98) 
nan

>  <Standardized_SMILES>  (98) 
CCn1c(-c2nonc2N)nc2cnc(Oc3cccc(N)c3)cc21

>  <Name>  (98) 
nan

>  <Pocket>  (98) 
nan

>  <ATP_Site>  (98) 
nan

>  <Peripheral>  (98) 
nan

>  <Num_H_Atoms_ProtBoundConf>  (98) 
nan

>  <Num_Resolved_Atoms>  (98) 
nan

>  <Num_Not_Resolved_Atoms>  (98) 
nan

$$$$
CHEMBL373390
     RDKit          3D

  0  0  0  0  0  0  0  0  0  0999 V3000
M  V30 BEGIN CTAB
M  V30 COUNTS 57 61 0 0 0
M  V30 BEGIN ATOM
M  V30 1 C 6.631419 0.463629 4.516775 0
M  V30 2 N 5.767344 -0.042082 3.465900 0
M  V30 3 C 4.404621 0.289187 3.834560 0
M  V30 4 C 3.406408 -0.172176 2.838779 0
M  V30 5 C 3.057734 0.675813 1.807748 0
M  V30 6 C 2.109886 0.149473 0.923100 0
M  V30 7 N 1.564082 -1.092346 1.049599 0
M  V30 8 C 0.650661 -1.724782 0.283674 0
M  V30 9 C 0.042674 -1.116175 -0.919698 0
M  V30 10 C 0.124939 -1.579033 -2.230327 0
M  V30 11 C -0.520253 -0.851111 -3.203666 0
M  V30 12 N -1.221591 0.271645 -2.976341 0
M  V30 13 C -1.286891 0.702152 -1.692246 0
M  V30 14 C -2.026323 1.926824 -1.301113 0 CFG=1
M  V30 15 C -1.965783 2.916321 -2.435423 0
M  V30 16 C -3.422080 1.552433 -0.955031 0
M  V30 17 C -3.783196 1.199434 0.350337 0
M  V30 18 C -5.097106 0.862561 0.605797 0
M  V30 19 C -6.092983 0.847796 -0.341866 0
M  V30 20 C -5.753643 1.197594 -1.654560 0
M  V30 21 C -4.436380 1.530897 -1.889535 0
M  V30 22 N -0.666253 0.016325 -0.699936 0
M  V30 23 C 0.466475 -2.965850 0.884319 0
M  V30 24 C -0.457765 -3.960248 0.349441 0
M  V30 25 C 0.179393 -5.115811 -0.009144 0
M  V30 26 C -0.499335 -6.210553 -0.545542 0
M  V30 27 C -1.877655 -6.066918 -0.700141 0
M  V30 28 F -2.592585 -7.091096 -1.214093 0
M  V30 29 C -2.539277 -4.907961 -0.343901 0
M  V30 30 C -1.838716 -3.833995 0.187545 0
M  V30 31 N 1.269482 -3.008241 1.963420 0
M  V30 32 C 1.955870 -1.857679 2.081090 0
M  V30 33 C 2.884493 -1.437733 3.012567 0
M  V30 34 H 6.047343 0.931206 5.351648 0
M  V30 35 H 7.223992 -0.348799 4.994595 0
M  V30 36 H 7.255719 1.279556 4.103764 0
M  V30 37 H 5.855907 -1.074807 3.339106 0
M  V30 38 H 4.208588 -0.166339 4.842713 0
M  V30 39 H 4.314089 1.382816 4.005952 0
M  V30 40 H 3.448366 1.653264 1.657126 0
M  V30 41 H 1.825192 0.811323 0.101871 0
M  V30 42 H 0.692679 -2.469995 -2.343561 0
M  V30 43 H -0.431003 -1.249882 -4.223733 0
M  V30 44 H -1.582898 2.425511 -0.422479 0
M  V30 45 H -2.452728 3.875006 -2.152071 0
M  V30 46 H -2.319937 2.488054 -3.371365 0
M  V30 47 H -0.880976 3.172617 -2.559031 0
M  V30 48 H -3.002192 1.213519 1.081489 0
M  V30 49 H -5.336209 0.593109 1.639719 0
M  V30 50 H -7.111828 0.583324 -0.127088 0
M  V30 51 H -6.486775 1.208684 -2.455839 0
M  V30 52 H -4.192657 1.801594 -2.926280 0
M  V30 53 H 1.250050 -5.318966 0.074894 0
M  V30 54 H -0.029935 -7.143450 -0.842241 0
M  V30 55 H -3.604000 -4.756352 -0.447426 0
M  V30 56 H -2.227063 -2.875606 0.506394 0
M  V30 57 H 3.160622 -2.097435 3.820848 0
M  V30 END ATOM
M  V30 BEGIN BOND
M  V30 1 1 1 2
M  V30 2 1 2 3
M  V30 3 1 3 4
M  V30 4 1 4 5
M  V30 5 2 5 6
M  V30 6 1 6 7
M  V30 7 1 7 8
M  V30 8 1 8 9
M  V30 9 2 9 10
M  V30 10 1 10 11
M  V30 11 2 11 12
M  V30 12 1 12 13
M  V30 13 1 13 14
M  V30 14 1 14 15
M  V30 15 1 14 16
M  V30 16 2 16 17
M  V30 17 1 17 18
M  V30 18 2 18 19
M  V30 19 1 19 20
M  V30 20 2 20 21
M  V30 21 2 13 22
M  V30 22 2 8 23
M  V30 23 1 23 24
M  V30 24 2 24 25
M  V30 25 1 25 26
M  V30 26 2 26 27
M  V30 27 1 27 28
M  V30 28 1 27 29
M  V30 29 2 29 30
M  V30 30 1 23 31
M  V30 31 2 31 32
M  V30 32 1 32 33
M  V30 33 2 33 4
M  V30 34 1 32 7
M  V30 35 1 22 9
M  V30 36 1 30 24
M  V30 37 1 21 16
M  V30 38 1 1 34
M  V30 39 1 1 35
M  V30 40 1 1 36
M  V30 41 1 2 37
M  V30 42 1 3 38
M  V30 43 1 3 39
M  V30 44 1 5 40
M  V30 45 1 6 41
M  V30 46 1 10 42
M  V30 47 1 11 43
M  V30 48 1 14 44 CFG=1
M  V30 49 1 15 45
M  V30 50 1 15 46
M  V30 51 1 15 47
M  V30 52 1 17 48
M  V30 53 1 18 49
M  V30 54 1 19 50
M  V30 55 1 20 51
M  V30 56 1 21 52
M  V30 57 1 25 53
M  V30 58 1 26 54
M  V30 59 1 29 55
M  V30 60 1 30 56
M  V30 61 1 33 57
M  V30 END BOND
M  V30 END CTAB
M  END
>  <Dataset>  (99) 
ChEMBL_Kinases

>  <Ligand_Instance>  (99) 
nan

>  <PDB_ID>  (99) 
nan

>  <Standardized_SMILES>  (99) 
CNCc1ccn2c(-c3ccnc([C@@H](C)c4ccccc4)n3)c(-c3ccc(F)cc3)nc2c1

>  <Name>  (99) 
nan

>  <Pocket>  (99) 
nan

>  <ATP_Site>  (99) 
nan

>  <Peripheral>  (99) 
nan

>  <Num_H_Atoms_ProtBoundConf>  (99) 
nan

>  <Num_Resolved_Atoms>  (99) 
nan

>  <Num_Not_Resolved_Atoms>  (99) 
nan

$$$$
CHEMBL3733358
     RDKit          3D

  0  0  0  0  0  0  0  0  0  0999 V3000
M  V30 BEGIN CTAB
M  V30 COUNTS 38 40 0 0 0
M  V30 BEGIN ATOM
M  V30 1 C -1.866717 -2.759406 3.918774 0
M  V30 2 C -1.457254 -2.767737 2.492913 0
M  V30 3 C -1.944510 -3.841207 1.649139 0
M  V30 4 S -1.185362 -3.458874 -0.037301 0
M  V30 5 C -0.361412 -2.027200 0.496759 0
M  V30 6 C 0.437331 -1.176978 -0.236637 0
M  V30 7 N 0.622915 -1.495771 -1.607542 0
M  V30 8 C 1.233634 -2.787167 -1.924360 0
M  V30 9 C 0.276751 -0.686731 -2.761233 0
M  V30 10 C -0.341456 0.610814 -2.276788 0
M  V30 11 N -0.711442 1.468673 -3.391132 0
M  V30 12 N 0.992503 -0.104056 0.374205 0
M  V30 13 C 0.685947 0.019955 1.702711 0
M  V30 14 C 1.244704 1.164020 2.466966 0
M  V30 15 C 2.050034 2.044956 1.783250 0
M  V30 16 C 2.554664 3.094706 2.512016 0
M  V30 17 N 2.319549 3.311393 3.813324 0
M  V30 18 C 1.522419 2.429956 4.468052 0
M  V30 19 C 0.975362 1.347505 3.807179 0
M  V30 20 N -0.095776 -0.829337 2.380545 0
M  V30 21 C -0.665628 -1.906426 1.809858 0
M  V30 22 H -1.177651 -2.092895 4.471804 0
M  V30 23 H -1.777219 -3.786662 4.333265 0
M  V30 24 H -2.897483 -2.421648 4.085086 0
M  V30 25 H -2.675012 -4.704637 2.119233 0
M  V30 26 H 1.855607 -3.154966 -1.087516 0
M  V30 27 H 1.791580 -2.749058 -2.887412 0
M  V30 28 H 0.394226 -3.493758 -2.109675 0
M  V30 29 H 1.232367 -0.391724 -3.254829 0
M  V30 30 H -0.385099 -1.257004 -3.410249 0
M  V30 31 H 0.410115 1.172164 -1.684988 0
M  V30 32 H -1.243900 0.443470 -1.658772 0
M  V30 33 H -1.518521 2.087811 -3.170966 0
M  V30 34 H 0.113573 2.017069 -3.664444 0
M  V30 35 H 2.290466 1.946336 0.738405 0
M  V30 36 H 3.198284 3.829924 2.038095 0
M  V30 37 H 1.239080 2.468955 5.519818 0
M  V30 38 H 0.338053 0.614404 4.264627 0
M  V30 END ATOM
M  V30 BEGIN BOND
M  V30 1 1 1 2
M  V30 2 2 2 3
M  V30 3 1 3 4
M  V30 4 1 4 5
M  V30 5 2 5 6
M  V30 6 1 6 7
M  V30 7 1 7 8
M  V30 8 1 7 9
M  V30 9 1 9 10
M  V30 10 1 10 11
M  V30 11 1 6 12
M  V30 12 2 12 13
M  V30 13 1 13 14
M  V30 14 2 14 15
M  V30 15 1 15 16
M  V30 16 2 16 17
M  V30 17 1 17 18
M  V30 18 2 18 19
M  V30 19 1 13 20
M  V30 20 2 20 21
M  V30 21 1 21 2
M  V30 22 1 21 5
M  V30 23 1 19 14
M  V30 24 1 1 22
M  V30 25 1 1 23
M  V30 26 1 1 24
M  V30 27 1 3 25
M  V30 28 1 8 26
M  V30 29 1 8 27
M  V30 30 1 8 28
M  V30 31 1 9 29
M  V30 32 1 9 30
M  V30 33 1 10 31
M  V30 34 1 10 32
M  V30 35 1 11 33
M  V30 36 1 11 34
M  V30 37 1 15 35
M  V30 38 1 16 36
M  V30 39 1 18 37
M  V30 40 1 19 38
M  V30 END BOND
M  V30 END CTAB
M  END
>  <Dataset>  (100) 
ChEMBL_Kinases

>  <Ligand_Instance>  (100) 
nan

>  <PDB_ID>  (100) 
nan

>  <Standardized_SMILES>  (100) 
Cc1csc2c(N(C)CCN)nc(-c3ccncc3)nc12

>  <Name>  (100) 
nan

>  <Pocket>  (100) 
nan

>  <ATP_Site>  (100) 
nan

>  <Peripheral>  (100) 
nan

>  <Num_H_Atoms_ProtBoundConf>  (100) 
nan

>  <Num_Resolved_Atoms>  (100) 
nan

>  <Num_Not_Resolved_Atoms>  (100) 
nan

$$$$
CHEMBL3733354
     RDKit          3D

  0  0  0  0  0  0  0  0  0  0999 V3000
M  V30 BEGIN CTAB
M  V30 COUNTS 57 61 0 0 0
M  V30 BEGIN ATOM
M  V30 1 C 0.516666 -3.282636 3.329586 0
M  V30 2 C 1.706475 -2.449001 3.040898 0
M  V30 3 C 2.571425 -2.201940 4.079249 0
M  V30 4 C 3.683665 -1.433039 3.845492 0
M  V30 5 C 3.880880 -0.943813 2.576939 0
M  V30 6 C 3.028594 -1.172879 1.503794 0
M  V30 7 C 3.323373 -0.596824 0.147326 0
M  V30 8 C 2.698107 0.767912 -0.005318 0 CFG=2
M  V30 9 N 3.283797 1.599169 1.041502 0
M  V30 10 C 1.225899 0.781736 0.206334 0
M  V30 11 O 0.477784 0.039082 -0.699429 0
M  V30 12 C -0.902297 0.005725 -0.563621 0
M  V30 13 N -1.508833 0.662499 0.403615 0
M  V30 14 C -2.820298 0.726567 0.662111 0
M  V30 15 C -3.476073 1.455653 1.733568 0
M  V30 16 C -2.651161 2.172054 2.593898 0
M  V30 17 C -3.247191 2.879199 3.627891 0
M  V30 18 N -4.571610 2.866911 3.784811 0
M  V30 19 C -5.381254 2.177082 2.958400 0
M  V30 20 C -4.842896 1.456088 1.913242 0
M  V30 21 N -3.587075 0.040381 -0.164881 0
M  V30 22 C -3.064417 -0.682034 -1.209851 0
M  V30 23 S -3.783122 -1.723561 -2.523455 0
M  V30 24 C -2.290627 -2.132290 -3.271533 0
M  V30 25 C -1.278710 -1.470714 -2.509953 0
M  V30 26 C -1.670121 -0.720385 -1.444437 0
M  V30 27 C 0.053489 -1.774013 -3.094983 0
M  V30 28 C 0.209665 -3.299205 -3.032147 0
M  V30 29 C -0.846204 -3.967000 -3.874757 0
M  V30 30 C -1.834935 -2.948897 -4.434472 0
M  V30 31 C 1.912711 -1.952620 1.767254 0
M  V30 32 H 0.893764 -4.276617 3.644821 0
M  V30 33 H -0.202759 -3.328097 2.500277 0
M  V30 34 H -0.004530 -2.850484 4.211181 0
M  V30 35 H 2.405870 -2.589112 5.062341 0
M  V30 36 H 4.388613 -1.218334 4.645362 0
M  V30 37 H 4.767938 -0.332907 2.398585 0
M  V30 38 H 4.431001 -0.435199 0.138269 0
M  V30 39 H 3.107595 -1.296336 -0.665897 0
M  V30 40 H 2.955069 1.139190 -1.003131 0
M  V30 41 H 4.272382 1.797665 0.851474 0
M  V30 42 H 2.796698 2.534833 1.099721 0
M  V30 43 H 1.026933 0.331340 1.222519 0
M  V30 44 H 0.904165 1.842790 0.279113 0
M  V30 45 H -1.576076 2.176889 2.459563 0
M  V30 46 H -2.553656 3.428849 4.280025 0
M  V30 47 H -6.442964 2.157305 3.070777 0
M  V30 48 H -5.395705 0.861739 1.182250 0
M  V30 49 H 0.072009 -1.514235 -4.171854 0
M  V30 50 H 0.895851 -1.337505 -2.533950 0
M  V30 51 H -0.017720 -3.574246 -1.969163 0
M  V30 52 H 1.215319 -3.639589 -3.277353 0
M  V30 53 H -0.366440 -4.475685 -4.744421 0
M  V30 54 H -1.405578 -4.750012 -3.325567 0
M  V30 55 H -2.728267 -3.542338 -4.726980 0
M  V30 56 H -1.426203 -2.360308 -5.260582 0
M  V30 57 H 1.233002 -2.142555 0.936641 0
M  V30 END ATOM
M  V30 BEGIN BOND
M  V30 1 1 1 2
M  V30 2 2 2 3
M  V30 3 1 3 4
M  V30 4 2 4 5
M  V30 5 1 5 6
M  V30 6 1 6 7
M  V30 7 1 7 8
M  V30 8 1 8 9
M  V30 9 1 8 10
M  V30 10 1 10 11
M  V30 11 1 11 12
M  V30 12 2 12 13
M  V30 13 1 13 14
M  V30 14 1 14 15
M  V30 15 2 15 16
M  V30 16 1 16 17
M  V30 17 2 17 18
M  V30 18 1 18 19
M  V30 19 2 19 20
M  V30 20 2 14 21
M  V30 21 1 21 22
M  V30 22 1 22 23
M  V30 23 1 23 24
M  V30 24 2 24 25
M  V30 25 1 25 26
M  V30 26 1 25 27
M  V30 27 1 27 28
M  V30 28 1 28 29
M  V30 29 1 29 30
M  V30 30 2 6 31
M  V30 31 1 31 2
M  V30 32 1 26 12
M  V30 33 1 20 15
M  V30 34 2 26 22
M  V30 35 1 30 24
M  V30 36 1 1 32
M  V30 37 1 1 33
M  V30 38 1 1 34
M  V30 39 1 3 35
M  V30 40 1 4 36
M  V30 41 1 5 37
M  V30 42 1 7 38
M  V30 43 1 7 39
M  V30 44 1 8 40 CFG=3
M  V30 45 1 9 41
M  V30 46 1 9 42
M  V30 47 1 10 43
M  V30 48 1 10 44
M  V30 49 1 16 45
M  V30 50 1 17 46
M  V30 51 1 19 47
M  V30 52 1 20 48
M  V30 53 1 27 49
M  V30 54 1 27 50
M  V30 55 1 28 51
M  V30 56 1 28 52
M  V30 57 1 29 53
M  V30 58 1 29 54
M  V30 59 1 30 55
M  V30 60 1 30 56
M  V30 61 1 31 57
M  V30 END BOND
M  V30 END CTAB
M  END
>  <Dataset>  (101) 
ChEMBL_Kinases

>  <Ligand_Instance>  (101) 
nan

>  <PDB_ID>  (101) 
nan

>  <Standardized_SMILES>  (101) 
Cc1cccc(C[C@H](N)COc2nc(-c3ccncc3)nc3sc4c(c23)CCCC4)c1

>  <Name>  (101) 
nan

>  <Pocket>  (101) 
nan

>  <ATP_Site>  (101) 
nan

>  <Peripheral>  (101) 
nan

>  <Num_H_Atoms_ProtBoundConf>  (101) 
nan

>  <Num_Resolved_Atoms>  (101) 
nan

>  <Num_Not_Resolved_Atoms>  (101) 
nan

$$$$
CHEMBL3733352
     RDKit          3D

  0  0  0  0  0  0  0  0  0  0999 V3000
M  V30 BEGIN CTAB
M  V30 COUNTS 61 65 0 0 0
M  V30 BEGIN ATOM
M  V30 1 C 2.676254 -0.752626 3.788675 0
M  V30 2 N 1.848149 -1.829597 3.331362 0
M  V30 3 C 2.007962 -2.288987 2.085543 0
M  V30 4 N 2.901599 -1.805308 1.087850 0
M  V30 5 C 4.296073 -1.749034 0.736853 0
M  V30 6 C 4.499237 -0.842075 -0.422155 0
M  V30 7 O 3.842548 0.384262 -0.382708 0
M  V30 8 C 2.565572 0.288333 0.080962 0 CFG=1
M  V30 9 C 1.533066 1.127169 -0.565384 0
M  V30 10 C 1.433313 1.484495 -1.888326 0
M  V30 11 C 0.346169 2.229705 -2.313438 0
M  V30 12 C -0.622218 2.602761 -1.394732 0
M  V30 13 C -1.826577 3.374789 -1.722601 0
M  V30 14 O -2.176107 4.548323 -1.995783 0
M  V30 15 N -2.965312 2.486517 -1.730836 0
M  V30 16 C -4.332760 2.944554 -2.000609 0
M  V30 17 C -5.269761 2.244349 -1.043129 0
M  V30 18 O -4.521958 1.913474 0.105250 0
M  V30 19 C -3.761459 0.784864 -0.220620 0
M  V30 20 C -2.966440 1.031756 -1.490874 0
M  V30 21 C -0.574038 2.275305 -0.049639 0
M  V30 22 C 0.529439 1.531710 0.322570 0
M  V30 23 C 2.109395 -1.180767 0.051690 0
M  V30 24 N 1.236990 -3.299197 1.655766 0
M  V30 25 C 0.282514 -3.913265 2.393336 0
M  V30 26 C -0.480363 -4.967654 1.761533 0
M  V30 27 C -0.261921 -5.186025 0.418025 0
M  V30 28 C -0.918950 -6.163578 -0.283941 0
M  V30 29 N -1.802170 -6.942523 0.330742 0
M  V30 30 C -2.075420 -6.793704 1.654436 0
M  V30 31 C -1.394847 -5.795503 2.339299 0
M  V30 32 F -1.660161 -5.649345 3.646802 0
M  V30 33 C 0.179189 -3.385093 3.660412 0
M  V30 34 C 0.928844 -2.359034 4.165157 0
M  V30 35 O 0.751843 -1.959390 5.327134 0
M  V30 36 H 2.321866 0.257320 3.494288 0
M  V30 37 H 3.741502 -0.849294 3.527089 0
M  V30 38 H 2.657992 -0.711203 4.920975 0
M  V30 39 H 4.969514 -1.618559 1.580665 0
M  V30 40 H 4.534086 -2.794374 0.352129 0
M  V30 41 H 5.606590 -0.588528 -0.439731 0
M  V30 42 H 4.361579 -1.378923 -1.402835 0
M  V30 43 H 2.639400 0.536088 1.186378 0
M  V30 44 H 2.228450 1.155027 -2.534638 0
M  V30 45 H 0.236566 2.526023 -3.343863 0
M  V30 46 H -4.679409 2.703980 -3.011936 0
M  V30 47 H -4.413665 4.041539 -1.850751 0
M  V30 48 H -6.126958 2.876583 -0.725091 0
M  V30 49 H -5.625672 1.293426 -1.503670 0
M  V30 50 H -3.039782 0.531984 0.572017 0
M  V30 51 H -4.470451 -0.069638 -0.311276 0
M  V30 52 H -1.932225 0.624736 -1.431151 0
M  V30 53 H -3.467260 0.510118 -2.338024 0
M  V30 54 H -1.318828 2.554007 0.686848 0
M  V30 55 H 0.567189 1.265953 1.394935 0
M  V30 56 H 2.413243 -1.592199 -0.933715 0
M  V30 57 H 1.024747 -1.205308 0.193791 0
M  V30 58 H 0.447424 -4.581955 -0.147750 0
M  V30 59 H -0.690312 -6.275169 -1.359079 0
M  V30 60 H -2.802039 -7.440773 2.119455 0
M  V30 61 H -0.569055 -3.821139 4.301750 0
M  V30 END ATOM
M  V30 BEGIN BOND
M  V30 1 1 1 2
M  V30 2 1 2 3
M  V30 3 1 3 4
M  V30 4 1 4 5
M  V30 5 1 5 6
M  V30 6 1 6 7
M  V30 7 1 7 8
M  V30 8 1 8 9
M  V30 9 2 9 10
M  V30 10 1 10 11
M  V30 11 2 11 12
M  V30 12 1 12 13
M  V30 13 2 13 14
M  V30 14 1 13 15
M  V30 15 1 15 16
M  V30 16 1 16 17
M  V30 17 1 17 18
M  V30 18 1 18 19
M  V30 19 1 19 20
M  V30 20 1 12 21
M  V30 21 2 21 22
M  V30 22 1 8 23
M  V30 23 2 3 24
M  V30 24 1 24 25
M  V30 25 1 25 26
M  V30 26 2 26 27
M  V30 27 1 27 28
M  V30 28 2 28 29
M  V30 29 1 29 30
M  V30 30 2 30 31
M  V30 31 1 31 32
M  V30 32 2 25 33
M  V30 33 1 33 34
M  V30 34 2 34 35
M  V30 35 1 34 2
M  V30 36 1 23 4
M  V30 37 1 31 26
M  V30 38 1 22 9
M  V30 39 1 20 15
M  V30 40 1 1 36
M  V30 41 1 1 37
M  V30 42 1 1 38
M  V30 43 1 5 39
M  V30 44 1 5 40
M  V30 45 1 6 41
M  V30 46 1 6 42
M  V30 47 1 8 43 CFG=1
M  V30 48 1 10 44
M  V30 49 1 11 45
M  V30 50 1 16 46
M  V30 51 1 16 47
M  V30 52 1 17 48
M  V30 53 1 17 49
M  V30 54 1 19 50
M  V30 55 1 19 51
M  V30 56 1 20 52
M  V30 57 1 20 53
M  V30 58 1 21 54
M  V30 59 1 22 55
M  V30 60 1 23 56
M  V30 61 1 23 57
M  V30 62 1 27 58
M  V30 63 1 28 59
M  V30 64 1 30 60
M  V30 65 1 33 61
M  V30 END BOND
M  V30 END CTAB
M  END
>  <Dataset>  (102) 
ChEMBL_Kinases

>  <Ligand_Instance>  (102) 
nan

>  <PDB_ID>  (102) 
nan

>  <Standardized_SMILES>  (102) 
Cn1c(N2CCO[C@@H](c3ccc(C(=O)N4CCOCC4)cc3)C2)nc(-c2ccncc2F)cc1=O

>  <Name>  (102) 
nan

>  <Pocket>  (102) 
nan

>  <ATP_Site>  (102) 
nan

>  <Peripheral>  (102) 
nan

>  <Num_H_Atoms_ProtBoundConf>  (102) 
nan

>  <Num_Resolved_Atoms>  (102) 
nan

>  <Num_Not_Resolved_Atoms>  (102) 
nan

$$$$
CHEMBL3733186
     RDKit          3D

  0  0  0  0  0  0  0  0  0  0999 V3000
M  V30 BEGIN CTAB
M  V30 COUNTS 39 42 0 0 0
M  V30 BEGIN ATOM
M  V30 1 C 1.315344 -3.602075 4.124141 0
M  V30 2 C 1.664709 -2.939073 2.805128 0
M  V30 3 C 2.737853 -3.385330 2.144672 0
M  V30 4 S 2.841459 -2.420011 0.703555 0
M  V30 5 C 1.442984 -1.456808 1.042927 0
M  V30 6 C 0.827389 -0.393538 0.319140 0
M  V30 7 N 1.427014 -0.009652 -0.914838 0
M  V30 8 C 1.534162 -1.000636 -1.970825 0
M  V30 9 C 0.629122 -0.588124 -3.095498 0
M  V30 10 N 0.459167 0.843326 -3.157358 0
M  V30 11 C 1.641890 1.557215 -2.717053 0
M  V30 12 C 1.975841 1.303744 -1.285777 0
M  V30 13 N -0.294389 0.213148 0.818028 0
M  V30 14 C -0.688034 -0.321342 2.013924 0
M  V30 15 C -1.899668 0.294516 2.606651 0
M  V30 16 C -2.408660 -0.146090 3.810714 0
M  V30 17 C -3.543003 0.456838 4.329620 0
M  V30 18 N -4.156691 1.469496 3.672825 0
M  V30 19 C -3.648754 1.887332 2.501104 0
M  V30 20 C -2.511724 1.325416 1.923013 0
M  V30 21 N -0.106504 -1.306293 2.671049 0
M  V30 22 C 1.018427 -1.939604 2.204802 0
M  V30 23 H 2.199140 -3.724616 4.753525 0
M  V30 24 H 0.645700 -2.898712 4.694556 0
M  V30 25 H 0.753095 -4.541128 3.945547 0
M  V30 26 H 3.483169 -4.278245 2.482257 0
M  V30 27 H 1.249286 -2.014307 -1.625151 0
M  V30 28 H 2.570467 -0.961033 -2.358421 0
M  V30 29 H 0.969649 -1.005732 -4.078685 0
M  V30 30 H -0.365967 -1.052549 -2.932099 0
M  V30 31 H 0.333896 1.107672 -4.169642 0
M  V30 32 H 2.513147 1.364330 -3.357530 0
M  V30 33 H 1.403549 2.636414 -2.854272 0
M  V30 34 H 1.532679 2.105882 -0.667056 0
M  V30 35 H 3.079829 1.301389 -1.177276 0
M  V30 36 H -1.877296 -0.952319 4.282992 0
M  V30 37 H -3.840685 0.010761 5.291096 0
M  V30 38 H -4.154799 2.699073 1.991324 0
M  V30 39 H -2.165827 1.719860 0.975001 0
M  V30 END ATOM
M  V30 BEGIN BOND
M  V30 1 1 1 2
M  V30 2 2 2 3
M  V30 3 1 3 4
M  V30 4 1 4 5
M  V30 5 2 5 6
M  V30 6 1 6 7
M  V30 7 1 7 8
M  V30 8 1 8 9
M  V30 9 1 9 10
M  V30 10 1 10 11
M  V30 11 1 11 12
M  V30 12 1 6 13
M  V30 13 2 13 14
M  V30 14 1 14 15
M  V30 15 2 15 16
M  V30 16 1 16 17
M  V30 17 2 17 18
M  V30 18 1 18 19
M  V30 19 2 19 20
M  V30 20 1 14 21
M  V30 21 2 21 22
M  V30 22 1 22 2
M  V30 23 1 22 5
M  V30 24 1 12 7
M  V30 25 1 20 15
M  V30 26 1 1 23
M  V30 27 1 1 24
M  V30 28 1 1 25
M  V30 29 1 3 26
M  V30 30 1 8 27
M  V30 31 1 8 28
M  V30 32 1 9 29
M  V30 33 1 9 30
M  V30 34 1 10 31
M  V30 35 1 11 32
M  V30 36 1 11 33
M  V30 37 1 12 34
M  V30 38 1 12 35
M  V30 39 1 16 36
M  V30 40 1 17 37
M  V30 41 1 19 38
M  V30 42 1 20 39
M  V30 END BOND
M  V30 END CTAB
M  END
>  <Dataset>  (103) 
ChEMBL_Kinases

>  <Ligand_Instance>  (103) 
nan

>  <PDB_ID>  (103) 
nan

>  <Standardized_SMILES>  (103) 
Cc1csc2c(N3CCNCC3)nc(-c3ccncc3)nc12

>  <Name>  (103) 
nan

>  <Pocket>  (103) 
nan

>  <ATP_Site>  (103) 
nan

>  <Peripheral>  (103) 
nan

>  <Num_H_Atoms_ProtBoundConf>  (103) 
nan

>  <Num_Resolved_Atoms>  (103) 
nan

>  <Num_Not_Resolved_Atoms>  (103) 
nan

$$$$
CHEMBL3733338
     RDKit          3D

  0  0  0  0  0  0  0  0  0  0999 V3000
M  V30 BEGIN CTAB
M  V30 COUNTS 68 72 0 0 0
M  V30 BEGIN ATOM
M  V30 1 C 0.627328 -1.286084 5.501904 0
M  V30 2 C 0.457514 -1.405095 4.032066 0
M  V30 3 S 1.667482 -0.581241 2.819323 0
M  V30 4 C 0.808391 -1.172212 1.428982 0
M  V30 5 C 1.077322 -0.991076 0.047928 0
M  V30 6 N 2.200228 -0.225068 -0.289616 0
M  V30 7 C 2.497450 -0.024396 -1.663697 0
M  V30 8 C 1.445189 0.664069 -2.463056 0 CFG=1
M  V30 9 N 1.181301 1.989368 -1.922153 0
M  V30 10 C 1.912846 0.858165 -3.891008 0
M  V30 11 C 3.148562 1.678699 -3.987672 0
M  V30 12 C 3.076640 3.055879 -4.114270 0
M  V30 13 C 4.216956 3.861880 -4.208690 0
M  V30 14 C 5.455405 3.266334 -4.174672 0
M  V30 15 C 5.574558 1.909058 -4.050666 0
M  V30 16 C 4.425122 1.149639 -3.960423 0
M  V30 17 N 0.275123 -1.540896 -0.881864 0
M  V30 18 C -0.778588 -2.259831 -0.384136 0
M  V30 19 C -1.680358 -2.876245 -1.364034 0
M  V30 20 C -2.766509 -3.616184 -0.942138 0
M  V30 21 C -3.584921 -4.174684 -1.917951 0
M  V30 22 N -3.334976 -4.005231 -3.214276 0
M  V30 23 C -2.278338 -3.285387 -3.602186 0
M  V30 24 C -1.405031 -2.689549 -2.699228 0
M  V30 25 N -1.023344 -2.424622 0.925352 0
M  V30 26 C -0.232816 -1.882835 1.871643 0
M  V30 27 C -0.440413 -2.021160 3.219719 0
M  V30 28 C -1.489021 -2.754837 3.916945 0
M  V30 29 C -1.305711 -4.078845 4.237130 0
M  V30 30 C -2.322546 -4.733439 4.894434 0
M  V30 31 F -2.078469 -6.034601 5.180606 0
M  V30 32 C -3.490565 -4.080973 5.222253 0
M  V30 33 C -3.628377 -2.732159 4.873986 0
M  V30 34 C -2.615832 -2.026921 4.203286 0
M  V30 35 O -3.074783 -0.766060 4.026649 0
M  V30 36 C -2.590643 0.376629 3.463419 0
M  V30 37 C -2.647423 1.457783 4.563611 0
M  V30 38 C -3.561449 0.904627 2.389413 0
M  V30 39 H -0.166710 -0.666850 5.965804 0
M  V30 40 H 0.575875 -2.286957 5.980550 0
M  V30 41 H 1.605575 -0.871270 5.779731 0
M  V30 42 H 2.821302 0.200295 0.435835 0
M  V30 43 H 3.433632 0.555847 -1.785214 0
M  V30 44 H 2.716190 -1.012179 -2.149810 0
M  V30 45 H 0.473336 0.165611 -2.525751 0
M  V30 46 H 0.283637 2.324954 -2.345781 0
M  V30 47 H 1.027964 1.891797 -0.900429 0
M  V30 48 H 2.071816 -0.140240 -4.376049 0
M  V30 49 H 1.146796 1.387161 -4.503080 0
M  V30 50 H 2.137603 3.567767 -4.145734 0
M  V30 51 H 4.167425 4.925771 -4.306374 0
M  V30 52 H 6.373820 3.866623 -4.246153 0
M  V30 53 H 6.523964 1.394112 -4.019004 0
M  V30 54 H 4.531773 0.065417 -3.861602 0
M  V30 55 H -2.985869 -3.764771 0.122186 0
M  V30 56 H -4.430462 -4.750707 -1.608855 0
M  V30 57 H -2.072329 -3.145711 -4.654198 0
M  V30 58 H -0.575408 -2.124713 -3.054346 0
M  V30 59 H -0.383441 -4.518621 3.955397 0
M  V30 60 H -4.206250 -4.704219 5.734276 0
M  V30 61 H -4.623053 -2.402757 5.221933 0
M  V30 62 H -1.584673 0.327238 3.041893 0
M  V30 63 H -3.719249 1.704030 4.687902 0
M  V30 64 H -2.072584 2.306278 4.179318 0
M  V30 65 H -2.216895 0.977054 5.471233 0
M  V30 66 H -3.764728 1.975917 2.505027 0
M  V30 67 H -3.110252 0.729726 1.371058 0
M  V30 68 H -4.513332 0.340036 2.478087 0
M  V30 END ATOM
M  V30 BEGIN BOND
M  V30 1 1 1 2
M  V30 2 1 2 3
M  V30 3 1 3 4
M  V30 4 2 4 5
M  V30 5 1 5 6
M  V30 6 1 6 7
M  V30 7 1 7 8
M  V30 8 1 8 9
M  V30 9 1 8 10
M  V30 10 1 10 11
M  V30 11 2 11 12
M  V30 12 1 12 13
M  V30 13 2 13 14
M  V30 14 1 14 15
M  V30 15 2 15 16
M  V30 16 1 5 17
M  V30 17 2 17 18
M  V30 18 1 18 19
M  V30 19 2 19 20
M  V30 20 1 20 21
M  V30 21 2 21 22
M  V30 22 1 22 23
M  V30 23 2 23 24
M  V30 24 1 18 25
M  V30 25 2 25 26
M  V30 26 1 26 27
M  V30 27 1 27 28
M  V30 28 2 28 29
M  V30 29 1 29 30
M  V30 30 1 30 31
M  V30 31 2 30 32
M  V30 32 1 32 33
M  V30 33 2 33 34
M  V30 34 1 34 35
M  V30 35 1 35 36
M  V30 36 1 36 37
M  V30 37 1 36 38
M  V30 38 2 27 2
M  V30 39 1 34 28
M  V30 40 1 26 4
M  V30 41 1 16 11
M  V30 42 1 24 19
M  V30 43 1 1 39
M  V30 44 1 1 40
M  V30 45 1 1 41
M  V30 46 1 6 42
M  V30 47 1 7 43
M  V30 48 1 7 44
M  V30 49 1 8 45 CFG=3
M  V30 50 1 9 46
M  V30 51 1 9 47
M  V30 52 1 10 48
M  V30 53 1 10 49
M  V30 54 1 12 50
M  V30 55 1 13 51
M  V30 56 1 14 52
M  V30 57 1 15 53
M  V30 58 1 16 54
M  V30 59 1 20 55
M  V30 60 1 21 56
M  V30 61 1 23 57
M  V30 62 1 24 58
M  V30 63 1 29 59
M  V30 64 1 32 60
M  V30 65 1 33 61
M  V30 66 1 36 62
M  V30 67 1 37 63
M  V30 68 1 37 64
M  V30 69 1 37 65
M  V30 70 1 38 66
M  V30 71 1 38 67
M  V30 72 1 38 68
M  V30 END BOND
M  V30 END CTAB
M  END
>  <Dataset>  (104) 
ChEMBL_Kinases

>  <Ligand_Instance>  (104) 
nan

>  <PDB_ID>  (104) 
nan

>  <Standardized_SMILES>  (104) 
Cc1sc2c(NC[C@@H](N)Cc3ccccc3)nc(-c3ccncc3)nc2c1-c1cc(F)ccc1OC(C)C

>  <Name>  (104) 
nan

>  <Pocket>  (104) 
nan

>  <ATP_Site>  (104) 
nan

>  <Peripheral>  (104) 
nan

>  <Num_H_Atoms_ProtBoundConf>  (104) 
nan

>  <Num_Resolved_Atoms>  (104) 
nan

>  <Num_Not_Resolved_Atoms>  (104) 
nan

$$$$
CHEMBL3733327
     RDKit          3D

  0  0  0  0  0  0  0  0  0  0999 V3000
M  V30 BEGIN CTAB
M  V30 COUNTS 45 48 0 0 0
M  V30 BEGIN ATOM
M  V30 1 C 1.751866 -2.816408 4.239003 0
M  V30 2 C 0.819964 -3.161056 3.064096 0 CFG=2
M  V30 3 N 0.360252 -4.522782 3.369786 0
M  V30 4 C 1.624193 -3.228085 1.809605 0
M  V30 5 N 2.310227 -2.019346 1.439947 0
M  V30 6 C 1.430149 -1.072481 0.875625 0
M  V30 7 N 2.514157 -0.174900 0.706251 0
M  V30 8 C 2.292722 1.054484 0.149170 0
M  V30 9 C 3.400229 2.092510 -0.057114 0
M  V30 10 C 4.674861 1.768365 0.351767 0
M  V30 11 C 5.743178 2.622522 0.223536 0
M  V30 12 N 5.516055 3.823906 -0.329504 0
M  V30 13 C 4.277082 4.149474 -0.731905 0
M  V30 14 C 3.178884 3.324148 -0.621607 0
M  V30 15 N 1.120675 1.524779 -0.271481 0
M  V30 16 C -0.045074 0.874168 -0.221745 0
M  V30 17 C -1.336843 0.680975 -0.397382 0
M  V30 18 C -2.073642 -0.366808 -0.110688 0
M  V30 19 C -3.548373 -0.479612 -0.355841 0
M  V30 20 C -4.064679 -1.678821 0.073577 0
M  V30 21 C -5.436157 -1.769397 -0.174879 0
M  V30 22 C -6.225937 -0.800762 -0.775350 0
M  V30 23 C -5.531128 0.357834 -1.147079 0
M  V30 24 C -4.182407 0.552223 -0.951021 0
M  V30 25 S -0.893448 -1.398216 0.550208 0
M  V30 26 C 0.608868 -0.171229 0.341524 0
M  V30 27 H 2.283910 -3.700839 4.612698 0
M  V30 28 H 2.413163 -1.976221 3.988178 0
M  V30 29 H 1.095893 -2.487279 5.079666 0
M  V30 30 H -0.007473 -2.469527 3.104037 0
M  V30 31 H -0.443686 -4.790931 2.761780 0
M  V30 32 H 1.119011 -5.212432 3.340580 0
M  V30 33 H 2.348582 -4.057177 1.902351 0
M  V30 34 H 0.951866 -3.556476 0.947297 0
M  V30 35 H 3.289765 -2.111943 1.673734 0
M  V30 36 H 4.794546 0.770355 0.795263 0
M  V30 37 H 6.688276 2.212355 0.599558 0
M  V30 38 H 4.118336 5.119762 -1.176388 0
M  V30 39 H 2.174925 3.559507 -0.935285 0
M  V30 40 H -1.679114 1.630751 -0.859289 0
M  V30 41 H -3.544232 -2.494509 0.547237 0
M  V30 42 H -5.990855 -2.662622 0.109722 0
M  V30 43 H -7.283459 -0.938828 -0.935727 0
M  V30 44 H -6.101906 1.166931 -1.631651 0
M  V30 45 H -3.684390 1.460634 -1.252117 0
M  V30 END ATOM
M  V30 BEGIN BOND
M  V30 1 1 1 2
M  V30 2 1 2 3
M  V30 3 1 2 4
M  V30 4 1 4 5
M  V30 5 1 5 6
M  V30 6 2 6 7
M  V30 7 1 7 8
M  V30 8 1 8 9
M  V30 9 2 9 10
M  V30 10 1 10 11
M  V30 11 2 11 12
M  V30 12 1 12 13
M  V30 13 2 13 14
M  V30 14 2 8 15
M  V30 15 1 15 16
M  V30 16 1 16 17
M  V30 17 2 17 18
M  V30 18 1 18 19
M  V30 19 2 19 20
M  V30 20 1 20 21
M  V30 21 2 21 22
M  V30 22 1 22 23
M  V30 23 2 23 24
M  V30 24 1 18 25
M  V30 25 1 25 26
M  V30 26 1 26 6
M  V30 27 1 14 9
M  V30 28 2 26 16
M  V30 29 1 24 19
M  V30 30 1 1 27
M  V30 31 1 1 28
M  V30 32 1 1 29
M  V30 33 1 2 30 CFG=3
M  V30 34 1 3 31
M  V30 35 1 3 32
M  V30 36 1 4 33
M  V30 37 1 4 34
M  V30 38 1 5 35
M  V30 39 1 10 36
M  V30 40 1 11 37
M  V30 41 1 13 38
M  V30 42 1 14 39
M  V30 43 1 17 40
M  V30 44 1 20 41
M  V30 45 1 21 42
M  V30 46 1 22 43
M  V30 47 1 23 44
M  V30 48 1 24 45
M  V30 END BOND
M  V30 END CTAB
M  END
>  <Dataset>  (105) 
ChEMBL_Kinases

>  <Ligand_Instance>  (105) 
nan

>  <PDB_ID>  (105) 
nan

>  <Standardized_SMILES>  (105) 
C[C@H](N)CNc1nc(-c2ccncc2)nc2cc(-c3ccccc3)sc12

>  <Name>  (105) 
nan

>  <Pocket>  (105) 
nan

>  <ATP_Site>  (105) 
nan

>  <Peripheral>  (105) 
nan

>  <Num_H_Atoms_ProtBoundConf>  (105) 
nan

>  <Num_Resolved_Atoms>  (105) 
nan

>  <Num_Not_Resolved_Atoms>  (105) 
nan

$$$$
CHEMBL3733310
     RDKit          3D

  0  0  0  0  0  0  0  0  0  0999 V3000
M  V30 BEGIN CTAB
M  V30 COUNTS 49 52 0 0 0
M  V30 BEGIN ATOM
M  V30 1 C 2.792973 -2.304296 3.627211 0
M  V30 2 C 3.285512 -2.608404 2.256839 0
M  V30 3 N 4.531598 -3.047409 1.931569 0
M  V30 4 N 4.638637 -3.218758 0.632697 0
M  V30 5 C 3.487564 -2.907551 0.036111 0
M  V30 6 C 3.237180 -2.980028 -1.426772 0
M  V30 7 C 2.635714 -2.523879 1.053152 0
M  V30 8 C 1.258317 -2.095653 0.870077 0
M  V30 9 N 0.920967 -0.831128 0.668968 0
M  V30 10 C -0.300750 -0.321196 0.489013 0
M  V30 11 N -0.345254 1.085911 0.293544 0
M  V30 12 C 0.847790 1.872526 0.299083 0
M  V30 13 C 1.580188 1.865918 1.623308 0 CFG=1
M  V30 14 C 2.806745 2.760662 1.405388 0
M  V30 15 N 0.809118 2.358716 2.722989 0
M  V30 16 C -1.378442 -1.177386 0.506181 0
M  V30 17 C -2.707180 -0.884095 0.346796 0
M  V30 18 C -3.602287 -1.923954 0.406796 0
M  V30 19 S -2.498525 -3.394612 0.704867 0
M  V30 20 C -1.036667 -2.486504 0.713797 0
M  V30 21 N 0.220968 -2.946197 0.890265 0
M  V30 22 C -5.072908 -1.915768 0.269001 0
M  V30 23 C -5.521786 -0.914362 -0.775387 0
M  V30 24 C -4.369817 -0.008558 -1.170369 0
M  V30 25 C -3.586663 0.276369 0.109970 0
M  V30 26 H 1.686354 -2.501273 3.710485 0
M  V30 27 H 3.263656 -3.012318 4.359251 0
M  V30 28 H 3.063090 -1.279553 3.934198 0
M  V30 29 H 5.526166 -3.557014 0.157807 0
M  V30 30 H 4.025283 -2.455123 -1.998438 0
M  V30 31 H 3.219609 -4.033620 -1.812091 0
M  V30 32 H 2.237657 -2.559962 -1.676871 0
M  V30 33 H -1.047847 1.820794 0.131240 0
M  V30 34 H 0.780555 2.914251 -0.018574 0
M  V30 35 H 1.600352 1.415214 -0.424252 0
M  V30 36 H 1.990094 0.879515 1.893505 0
M  V30 37 H 3.398136 2.243369 0.623293 0
M  V30 38 H 2.444922 3.743275 1.040664 0
M  V30 39 H 3.346557 2.945615 2.340715 0
M  V30 40 H 0.202071 3.166239 2.495197 0
M  V30 41 H 1.477285 2.705548 3.451540 0
M  V30 42 H -5.461059 -2.903975 -0.038425 0
M  V30 43 H -5.530020 -1.667882 1.242528 0
M  V30 44 H -6.360904 -0.305959 -0.385368 0
M  V30 45 H -5.876875 -1.397596 -1.706855 0
M  V30 46 H -3.733659 -0.529931 -1.889353 0
M  V30 47 H -4.801887 0.934127 -1.535525 0
M  V30 48 H -4.382702 0.362311 0.910969 0
M  V30 49 H -3.106925 1.236134 -0.045133 0
M  V30 END ATOM
M  V30 BEGIN BOND
M  V30 1 1 1 2
M  V30 2 2 2 3
M  V30 3 1 3 4
M  V30 4 1 4 5
M  V30 5 1 5 6
M  V30 6 2 5 7
M  V30 7 1 7 8
M  V30 8 2 8 9
M  V30 9 1 9 10
M  V30 10 1 10 11
M  V30 11 1 11 12
M  V30 12 1 12 13
M  V30 13 1 13 14
M  V30 14 1 13 15
M  V30 15 2 10 16
M  V30 16 1 16 17
M  V30 17 2 17 18
M  V30 18 1 18 19
M  V30 19 1 19 20
M  V30 20 2 20 21
M  V30 21 1 18 22
M  V30 22 1 22 23
M  V30 23 1 23 24
M  V30 24 1 24 25
M  V30 25 1 7 2
M  V30 26 1 21 8
M  V30 27 1 20 16
M  V30 28 1 25 17
M  V30 29 1 1 26
M  V30 30 1 1 27
M  V30 31 1 1 28
M  V30 32 1 4 29
M  V30 33 1 6 30
M  V30 34 1 6 31
M  V30 35 1 6 32
M  V30 36 1 11 33
M  V30 37 1 12 34
M  V30 38 1 12 35
M  V30 39 1 13 36 CFG=1
M  V30 40 1 14 37
M  V30 41 1 14 38
M  V30 42 1 14 39
M  V30 43 1 15 40
M  V30 44 1 15 41
M  V30 45 1 22 42
M  V30 46 1 22 43
M  V30 47 1 23 44
M  V30 48 1 23 45
M  V30 49 1 24 46
M  V30 50 1 24 47
M  V30 51 1 25 48
M  V30 52 1 25 49
M  V30 END BOND
M  V30 END CTAB
M  END
>  <Dataset>  (106) 
ChEMBL_Kinases

>  <Ligand_Instance>  (106) 
nan

>  <PDB_ID>  (106) 
nan

>  <Standardized_SMILES>  (106) 
Cc1n[nH]c(C)c1-c1nc(NC[C@@H](C)N)c2c3c(sc2n1)CCCC3

>  <Name>  (106) 
nan

>  <Pocket>  (106) 
nan

>  <ATP_Site>  (106) 
nan

>  <Peripheral>  (106) 
nan

>  <Num_H_Atoms_ProtBoundConf>  (106) 
nan

>  <Num_Resolved_Atoms>  (106) 
nan

>  <Num_Not_Resolved_Atoms>  (106) 
nan

$$$$
CHEMBL3733303
     RDKit          3D

  0  0  0  0  0  0  0  0  0  0999 V3000
M  V30 BEGIN CTAB
M  V30 COUNTS 44 48 0 0 0
M  V30 BEGIN ATOM
M  V30 1 C -3.724353 -3.339500 -0.448301 0
M  V30 2 N -3.963352 -4.582246 -0.940034 0
M  V30 3 N -2.881914 -5.330771 -0.844068 0
M  V30 4 C -1.891930 -4.584667 -0.277956 0
M  V30 5 C -2.415148 -3.318269 -0.022241 0
M  V30 6 C -1.534443 -2.333904 0.588507 0
M  V30 7 N -0.831549 -1.374156 -0.029953 0
M  V30 8 C -0.027885 -0.483466 0.575404 0
M  V30 9 N 0.564706 0.331324 -0.428776 0
M  V30 10 C 1.884155 0.457752 -1.022361 0
M  V30 11 C 1.774172 0.080852 -2.475131 0
M  V30 12 N 0.826115 0.908539 -3.150208 0
M  V30 13 C -0.468801 0.925841 -2.497772 0
M  V30 14 C -0.343377 1.306091 -1.054077 0
M  V30 15 C 0.106820 -0.530945 1.940825 0
M  V30 16 C 0.892033 0.333493 2.640605 0
M  V30 17 C 0.891889 0.119248 4.034295 0
M  V30 18 S -0.203779 -1.266281 4.248035 0
M  V30 19 C -0.610438 -1.511378 2.572617 0
M  V30 20 N -1.390532 -2.367479 1.923632 0
M  V30 21 C 1.676081 0.929606 4.997689 0
M  V30 22 C 3.120387 1.105476 4.505768 0
M  V30 23 C 3.150969 1.068453 2.990085 0
M  V30 24 C 1.778453 1.498132 2.440557 0
M  V30 25 H -4.298064 -2.440559 -0.331529 0
M  V30 26 H -2.994120 -6.304194 -1.205235 0
M  V30 27 H -0.935626 -5.071324 -0.134534 0
M  V30 28 H 2.637265 -0.159646 -0.495019 0
M  V30 29 H 2.177329 1.523045 -0.969311 0
M  V30 30 H 1.602082 -1.004487 -2.621944 0
M  V30 31 H 2.778821 0.307871 -2.938313 0
M  V30 32 H 0.684507 0.643976 -4.130076 0
M  V30 33 H -1.082323 1.681648 -3.003283 0
M  V30 34 H -0.970705 -0.057602 -2.552544 0
M  V30 35 H -1.347452 1.306341 -0.588555 0
M  V30 36 H 0.067912 2.338590 -0.936811 0
M  V30 37 H 1.695085 0.446135 5.971037 0
M  V30 38 H 1.226384 1.940287 5.011322 0
M  V30 39 H 3.708320 0.271281 4.957475 0
M  V30 40 H 3.476086 2.067369 4.887711 0
M  V30 41 H 3.972042 1.631431 2.547539 0
M  V30 42 H 3.271599 0.004781 2.699284 0
M  V30 43 H 1.417551 2.379774 3.039581 0
M  V30 44 H 1.932913 1.782717 1.403650 0
M  V30 END ATOM
M  V30 BEGIN BOND
M  V30 1 2 1 2
M  V30 2 1 2 3
M  V30 3 1 3 4
M  V30 4 2 4 5
M  V30 5 1 5 6
M  V30 6 2 6 7
M  V30 7 1 7 8
M  V30 8 1 8 9
M  V30 9 1 9 10
M  V30 10 1 10 11
M  V30 11 1 11 12
M  V30 12 1 12 13
M  V30 13 1 13 14
M  V30 14 2 8 15
M  V30 15 1 15 16
M  V30 16 2 16 17
M  V30 17 1 17 18
M  V30 18 1 18 19
M  V30 19 2 19 20
M  V30 20 1 17 21
M  V30 21 1 21 22
M  V30 22 1 22 23
M  V30 23 1 23 24
M  V30 24 1 5 1
M  V30 25 1 20 6
M  V30 26 1 14 9
M  V30 27 1 19 15
M  V30 28 1 24 16
M  V30 29 1 1 25
M  V30 30 1 3 26
M  V30 31 1 4 27
M  V30 32 1 10 28
M  V30 33 1 10 29
M  V30 34 1 11 30
M  V30 35 1 11 31
M  V30 36 1 12 32
M  V30 37 1 13 33
M  V30 38 1 13 34
M  V30 39 1 14 35
M  V30 40 1 14 36
M  V30 41 1 21 37
M  V30 42 1 21 38
M  V30 43 1 22 39
M  V30 44 1 22 40
M  V30 45 1 23 41
M  V30 46 1 23 42
M  V30 47 1 24 43
M  V30 48 1 24 44
M  V30 END BOND
M  V30 END CTAB
M  END
>  <Dataset>  (107) 
ChEMBL_Kinases

>  <Ligand_Instance>  (107) 
nan

>  <PDB_ID>  (107) 
nan

>  <Standardized_SMILES>  (107) 
c1n[nH]cc1-c1nc(N2CCNCC2)c2c3c(sc2n1)CCCC3

>  <Name>  (107) 
nan

>  <Pocket>  (107) 
nan

>  <ATP_Site>  (107) 
nan

>  <Peripheral>  (107) 
nan

>  <Num_H_Atoms_ProtBoundConf>  (107) 
nan

>  <Num_Resolved_Atoms>  (107) 
nan

>  <Num_Not_Resolved_Atoms>  (107) 
nan

$$$$
CHEMBL3733276
     RDKit          3D

  0  0  0  0  0  0  0  0  0  0999 V3000
M  V30 BEGIN CTAB
M  V30 COUNTS 58 62 0 0 0
M  V30 BEGIN ATOM
M  V30 1 C 3.841619 -4.541281 -1.316466 0
M  V30 2 C 2.795439 -3.567800 -1.023456 0
M  V30 3 S 3.077989 -2.056830 0.062379 0
M  V30 4 C 1.423322 -1.482647 -0.113453 0
M  V30 5 C 0.797426 -0.353923 0.418162 0
M  V30 6 N 1.603668 0.483347 1.236806 0
M  V30 7 C 0.971360 1.659500 1.797394 0
M  V30 8 C 1.923800 2.467903 2.645885 0 CFG=1
M  V30 9 N 3.049662 2.900979 1.821475 0
M  V30 10 C 1.181037 3.716694 3.080036 0
M  V30 11 C -0.027248 3.371232 3.865840 0
M  V30 12 C -1.245866 3.173603 3.231624 0
M  V30 13 C -2.416364 2.851970 3.869739 0
M  V30 14 C -2.395685 2.711041 5.245866 0
M  V30 15 C -1.215206 2.898806 5.895060 0
M  V30 16 C -0.030386 3.225513 5.238330 0
M  V30 17 N -0.493817 -0.088136 0.161348 0
M  V30 18 C -1.108867 -1.005627 -0.646082 0
M  V30 19 C -2.536369 -0.820317 -1.001139 0
M  V30 20 C -3.182375 0.283837 -0.492106 0
M  V30 21 C -4.510499 0.453654 -0.824089 0
M  V30 22 N -5.152445 -0.406281 -1.602856 0
M  V30 23 C -4.554490 -1.509317 -2.127207 0
M  V30 24 C -3.225995 -1.700543 -1.809155 0
M  V30 25 N -0.509939 -2.092710 -1.159381 0
M  V30 26 C 0.783147 -2.364876 -0.906137 0
M  V30 27 C 1.438124 -3.457224 -1.404158 0
M  V30 28 C 0.958983 -4.527955 -2.266697 0
M  V30 29 C 0.439798 -5.593642 -1.523466 0
M  V30 30 C -0.061176 -6.701387 -2.216259 0
M  V30 31 C -0.041815 -6.737892 -3.597218 0
M  V30 32 C 0.475315 -5.674881 -4.310088 0
M  V30 33 C 0.976094 -4.569275 -3.647900 0
M  V30 34 H 4.854698 -4.051703 -1.420935 0
M  V30 35 H 3.944595 -5.262263 -0.481753 0
M  V30 36 H 3.628016 -4.963609 -2.293469 0
M  V30 37 H 2.604387 0.288031 1.442852 0
M  V30 38 H 0.585414 2.334499 1.026414 0
M  V30 39 H 0.135605 1.295484 2.414084 0
M  V30 40 H 2.309127 1.935720 3.521901 0
M  V30 41 H 2.689786 3.350144 0.936711 0
M  V30 42 H 3.664447 3.556494 2.326095 0
M  V30 43 H 0.864983 4.309900 2.204494 0
M  V30 44 H 1.849075 4.333270 3.733732 0
M  V30 45 H -1.327859 3.271161 2.139950 0
M  V30 46 H -3.345947 2.707578 3.325712 0
M  V30 47 H -3.335571 2.456813 5.720105 0
M  V30 48 H -1.222427 2.782811 6.977903 0
M  V30 49 H 0.900808 3.372507 5.761043 0
M  V30 50 H -2.642793 0.973728 0.140872 0
M  V30 51 H -5.040754 1.324193 -0.429745 0
M  V30 52 H -5.068325 -2.217294 -2.763463 0
M  V30 53 H -2.697637 -2.577890 -2.208616 0
M  V30 54 H 0.379792 -5.661427 -0.454513 0
M  V30 55 H -0.475947 -7.554957 -1.661654 0
M  V30 56 H -0.431128 -7.599754 -4.153632 0
M  V30 57 H 0.500275 -5.682152 -5.384044 0
M  V30 58 H 1.393746 -3.704672 -4.115412 0
M  V30 END ATOM
M  V30 BEGIN BOND
M  V30 1 1 1 2
M  V30 2 1 2 3
M  V30 3 1 3 4
M  V30 4 2 4 5
M  V30 5 1 5 6
M  V30 6 1 6 7
M  V30 7 1 7 8
M  V30 8 1 8 9
M  V30 9 1 8 10
M  V30 10 1 10 11
M  V30 11 2 11 12
M  V30 12 1 12 13
M  V30 13 2 13 14
M  V30 14 1 14 15
M  V30 15 2 15 16
M  V30 16 1 5 17
M  V30 17 2 17 18
M  V30 18 1 18 19
M  V30 19 2 19 20
M  V30 20 1 20 21
M  V30 21 2 21 22
M  V30 22 1 22 23
M  V30 23 2 23 24
M  V30 24 1 18 25
M  V30 25 2 25 26
M  V30 26 1 26 27
M  V30 27 1 27 28
M  V30 28 2 28 29
M  V30 29 1 29 30
M  V30 30 2 30 31
M  V30 31 1 31 32
M  V30 32 2 32 33
M  V30 33 2 27 2
M  V30 34 1 33 28
M  V30 35 1 26 4
M  V30 36 1 16 11
M  V30 37 1 24 19
M  V30 38 1 1 34
M  V30 39 1 1 35
M  V30 40 1 1 36
M  V30 41 1 6 37
M  V30 42 1 7 38
M  V30 43 1 7 39
M  V30 44 1 8 40 CFG=1
M  V30 45 1 9 41
M  V30 46 1 9 42
M  V30 47 1 10 43
M  V30 48 1 10 44
M  V30 49 1 12 45
M  V30 50 1 13 46
M  V30 51 1 14 47
M  V30 52 1 15 48
M  V30 53 1 16 49
M  V30 54 1 20 50
M  V30 55 1 21 51
M  V30 56 1 23 52
M  V30 57 1 24 53
M  V30 58 1 29 54
M  V30 59 1 30 55
M  V30 60 1 31 56
M  V30 61 1 32 57
M  V30 62 1 33 58
M  V30 END BOND
M  V30 END CTAB
M  END
>  <Dataset>  (108) 
ChEMBL_Kinases

>  <Ligand_Instance>  (108) 
nan

>  <PDB_ID>  (108) 
nan

>  <Standardized_SMILES>  (108) 
Cc1sc2c(NC[C@@H](N)Cc3ccccc3)nc(-c3ccncc3)nc2c1-c1ccccc1

>  <Name>  (108) 
nan

>  <Pocket>  (108) 
nan

>  <ATP_Site>  (108) 
nan

>  <Peripheral>  (108) 
nan

>  <Num_H_Atoms_ProtBoundConf>  (108) 
nan

>  <Num_Resolved_Atoms>  (108) 
nan

>  <Num_Not_Resolved_Atoms>  (108) 
nan

$$$$
CHEMBL3733268
     RDKit          3D

  0  0  0  0  0  0  0  0  0  0999 V3000
M  V30 BEGIN CTAB
M  V30 COUNTS 60 64 0 0 0
M  V30 BEGIN ATOM
M  V30 1 C 5.749417 -4.452090 2.728324 0
M  V30 2 C 5.330966 -3.028031 2.658182 0
M  V30 3 N 5.660176 -1.969428 3.044847 0
M  V30 4 C 5.107071 -0.801145 2.843349 0
M  V30 5 C 5.657829 0.412586 3.485849 0
M  V30 6 C 3.924619 -0.801324 2.029764 0
M  V30 7 C 2.940748 0.203730 1.601973 0
M  V30 8 C 3.262262 1.518485 1.426474 0
M  V30 9 C 4.434429 2.397071 1.397410 0
M  V30 10 S 1.584282 2.303604 1.048655 0
M  V30 11 C 0.715995 0.808360 1.171828 0
M  V30 12 C -0.629283 0.616899 1.009128 0
M  V30 13 N -1.461260 1.725578 0.736953 0
M  V30 14 C -2.856160 1.734492 0.523948 0
M  V30 15 C -3.387124 1.296703 -0.787253 0 CFG=1
M  V30 16 N -2.865824 2.159105 -1.863027 0
M  V30 17 C -3.267893 -0.138178 -1.151793 0
M  V30 18 C -3.885673 -0.405735 -2.514031 0
M  V30 19 C -5.230945 -0.742677 -2.511736 0
M  V30 20 C -5.884560 -1.004106 -3.690328 0
M  V30 21 C -5.232064 -0.940943 -4.901765 0
M  V30 22 C -3.895630 -0.604275 -4.880888 0
M  V30 23 C -3.209046 -0.335568 -3.714412 0
M  V30 24 N -1.144349 -0.635427 1.146240 0
M  V30 25 C -0.258033 -1.598770 1.437905 0
M  V30 26 C -0.731469 -2.968555 1.601041 0
M  V30 27 C 0.078951 -4.041506 1.900805 0
M  V30 28 C -0.395779 -5.327946 2.049706 0
M  V30 29 N -1.718848 -5.526887 1.890904 0
M  V30 30 C -2.514963 -4.483430 1.598239 0
M  V30 31 C -2.085862 -3.167340 1.437661 0
M  V30 32 N 1.018380 -1.350523 1.581358 0
M  V30 33 C 1.626108 -0.165278 1.469121 0
M  V30 34 S 3.787823 -2.551067 1.672912 0
M  V30 35 H 6.819701 -4.587429 2.537978 0
M  V30 36 H 5.134086 -5.083395 2.021813 0
M  V30 37 H 5.493572 -4.875985 3.732093 0
M  V30 38 H 6.191154 0.165984 4.467323 0
M  V30 39 H 6.378518 0.971437 2.905796 0
M  V30 40 H 4.837464 1.074170 3.841164 0
M  V30 41 H 4.722111 2.870529 2.329741 0
M  V30 42 H 5.281232 1.799163 0.994380 0
M  V30 43 H 4.317947 3.225664 0.639577 0
M  V30 44 H -1.069882 2.688074 0.667645 0
M  V30 45 H -3.354786 2.697509 0.791612 0
M  V30 46 H -3.309380 1.014865 1.288734 0
M  V30 47 H -4.489657 1.530351 -0.776979 0
M  V30 48 H -2.893203 3.120360 -1.499907 0
M  V30 49 H -3.536147 2.050331 -2.655561 0
M  V30 50 H -3.688781 -0.860307 -0.438822 0
M  V30 51 H -2.199806 -0.421755 -1.315596 0
M  V30 52 H -5.838234 -0.821155 -1.621570 0
M  V30 53 H -6.941253 -1.275747 -3.772467 0
M  V30 54 H -5.660523 -1.128219 -5.865652 0
M  V30 55 H -3.325381 -0.538333 -5.810327 0
M  V30 56 H -2.162698 -0.068069 -3.653813 0
M  V30 57 H 1.126265 -3.877923 2.025801 0
M  V30 58 H 0.295621 -6.119593 2.284417 0
M  V30 59 H -3.593324 -4.646356 1.469070 0
M  V30 60 H -2.802229 -2.385516 1.201078 0
M  V30 END ATOM
M  V30 BEGIN BOND
M  V30 1 1 1 2
M  V30 2 2 2 3
M  V30 3 1 3 4
M  V30 4 1 4 5
M  V30 5 2 4 6
M  V30 6 1 6 7
M  V30 7 2 7 8
M  V30 8 1 8 9
M  V30 9 1 8 10
M  V30 10 1 10 11
M  V30 11 2 11 12
M  V30 12 1 12 13
M  V30 13 1 13 14
M  V30 14 1 14 15
M  V30 15 1 15 16
M  V30 16 1 15 17
M  V30 17 1 17 18
M  V30 18 2 18 19
M  V30 19 1 19 20
M  V30 20 2 20 21
M  V30 21 1 21 22
M  V30 22 2 22 23
M  V30 23 1 12 24
M  V30 24 2 24 25
M  V30 25 1 25 26
M  V30 26 2 26 27
M  V30 27 1 27 28
M  V30 28 2 28 29
M  V30 29 1 29 30
M  V30 30 2 30 31
M  V30 31 1 25 32
M  V30 32 2 32 33
M  V30 33 1 6 34
M  V30 34 1 34 2
M  V30 35 1 33 7
M  V30 36 1 33 11
M  V30 37 1 23 18
M  V30 38 1 31 26
M  V30 39 1 1 35
M  V30 40 1 1 36
M  V30 41 1 1 37
M  V30 42 1 5 38
M  V30 43 1 5 39
M  V30 44 1 5 40
M  V30 45 1 9 41
M  V30 46 1 9 42
M  V30 47 1 9 43
M  V30 48 1 13 44
M  V30 49 1 14 45
M  V30 50 1 14 46
M  V30 51 1 15 47 CFG=1
M  V30 52 1 16 48
M  V30 53 1 16 49
M  V30 54 1 17 50
M  V30 55 1 17 51
M  V30 56 1 19 52
M  V30 57 1 20 53
M  V30 58 1 21 54
M  V30 59 1 22 55
M  V30 60 1 23 56
M  V30 61 1 27 57
M  V30 62 1 28 58
M  V30 63 1 30 59
M  V30 64 1 31 60
M  V30 END BOND
M  V30 END CTAB
M  END
>  <Dataset>  (109) 
ChEMBL_Kinases

>  <Ligand_Instance>  (109) 
nan

>  <PDB_ID>  (109) 
nan

>  <Standardized_SMILES>  (109) 
Cc1nc(C)c(-c2c(C)sc3c(NC[C@@H](N)Cc4ccccc4)nc(-c4ccncc4)nc23)s1

>  <Name>  (109) 
nan

>  <Pocket>  (109) 
nan

>  <ATP_Site>  (109) 
nan

>  <Peripheral>  (109) 
nan

>  <Num_H_Atoms_ProtBoundConf>  (109) 
nan

>  <Num_Resolved_Atoms>  (109) 
nan

>  <Num_Not_Resolved_Atoms>  (109) 
nan

$$$$
CHEMBL3733256
     RDKit          3D

  0  0  0  0  0  0  0  0  0  0999 V3000
M  V30 BEGIN CTAB
M  V30 COUNTS 39 42 0 0 0
M  V30 BEGIN ATOM
M  V30 1 Br 2.813388 -1.375849 6.401624 0
M  V30 2 C 2.892660 -1.318569 4.500750 0
M  V30 3 C 4.183275 -1.481407 3.994800 0
M  V30 4 S 3.888840 -1.372724 2.122470 0
M  V30 5 C 2.084180 -1.124462 2.258578 0
M  V30 6 C 1.105980 -0.952070 1.281121 0
M  V30 7 N 1.572481 -0.969506 -0.053290 0
M  V30 8 C 0.529347 -0.787925 -1.033020 0
M  V30 9 C 1.066472 -0.812470 -2.447567 0 CFG=1
M  V30 10 C -0.038181 -0.621721 -3.445324 0
M  V30 11 C 0.234884 0.646393 -4.185799 0
M  V30 12 C 1.388841 1.259937 -3.434246 0
M  V30 13 N 2.035769 0.208833 -2.690065 0
M  V30 14 N -0.154602 -0.789993 1.691087 0
M  V30 15 C -0.395541 -0.804501 3.033399 0
M  V30 16 C -1.753444 -0.632293 3.540568 0
M  V30 17 C -2.756833 -0.458221 2.613985 0
M  V30 18 C -4.037222 -0.296284 3.104102 0
M  V30 19 N -4.335549 -0.301683 4.416752 0
M  V30 20 C -3.370345 -0.470297 5.340467 0
M  V30 21 C -2.078814 -0.634851 4.879657 0
M  V30 22 N 0.552198 -0.971034 3.966730 0
M  V30 23 C 1.844852 -1.141203 3.656598 0
M  V30 24 H 5.119963 -1.623998 4.305857 0
M  V30 25 H 2.544530 -1.095913 -0.330187 0
M  V30 26 H -0.254345 -1.523819 -0.860566 0
M  V30 27 H 0.049346 0.227011 -0.910083 0
M  V30 28 H 1.568152 -1.802943 -2.568138 0
M  V30 29 H -0.066079 -1.481849 -4.168170 0
M  V30 30 H -1.037864 -0.509075 -2.935824 0
M  V30 31 H 0.535881 0.480890 -5.256594 0
M  V30 32 H -0.620219 1.358755 -4.142454 0
M  V30 33 H 2.125388 1.701935 -4.165774 0
M  V30 34 H 1.076951 2.125800 -2.810650 0
M  V30 35 H 2.486662 0.566516 -1.819888 0
M  V30 36 H -2.537553 -0.450647 1.548990 0
M  V30 37 H -4.819105 -0.159694 2.355723 0
M  V30 38 H -3.587229 -0.478207 6.405407 0
M  V30 39 H -1.270150 -0.773664 5.585087 0
M  V30 END ATOM
M  V30 BEGIN BOND
M  V30 1 1 1 2
M  V30 2 2 2 3
M  V30 3 1 3 4
M  V30 4 1 4 5
M  V30 5 2 5 6
M  V30 6 1 6 7
M  V30 7 1 7 8
M  V30 8 1 8 9
M  V30 9 1 9 10
M  V30 10 1 10 11
M  V30 11 1 11 12
M  V30 12 1 12 13
M  V30 13 1 6 14
M  V30 14 2 14 15
M  V30 15 1 15 16
M  V30 16 2 16 17
M  V30 17 1 17 18
M  V30 18 2 18 19
M  V30 19 1 19 20
M  V30 20 2 20 21
M  V30 21 1 15 22
M  V30 22 2 22 23
M  V30 23 1 23 2
M  V30 24 1 23 5
M  V30 25 1 13 9
M  V30 26 1 21 16
M  V30 27 1 3 24
M  V30 28 1 7 25
M  V30 29 1 8 26
M  V30 30 1 8 27
M  V30 31 1 9 28 CFG=3
M  V30 32 1 10 29
M  V30 33 1 10 30
M  V30 34 1 11 31
M  V30 35 1 11 32
M  V30 36 1 12 33
M  V30 37 1 12 34
M  V30 38 1 13 35
M  V30 39 1 17 36
M  V30 40 1 18 37
M  V30 41 1 20 38
M  V30 42 1 21 39
M  V30 END BOND
M  V30 END CTAB
M  END
>  <Dataset>  (110) 
ChEMBL_Kinases

>  <Ligand_Instance>  (110) 
nan

>  <PDB_ID>  (110) 
nan

>  <Standardized_SMILES>  (110) 
Brc1csc2c(NC[C@H]3CCCN3)nc(-c3ccncc3)nc12

>  <Name>  (110) 
nan

>  <Pocket>  (110) 
nan

>  <ATP_Site>  (110) 
nan

>  <Peripheral>  (110) 
nan

>  <Num_H_Atoms_ProtBoundConf>  (110) 
nan

>  <Num_Resolved_Atoms>  (110) 
nan

>  <Num_Not_Resolved_Atoms>  (110) 
nan

$$$$
CHEMBL3733230
     RDKit          3D

  0  0  0  0  0  0  0  0  0  0999 V3000
M  V30 BEGIN CTAB
M  V30 COUNTS 52 56 0 0 0
M  V30 BEGIN ATOM
M  V30 1 N 2.615923 -4.335562 1.160661 0
M  V30 2 C 1.647525 -4.362501 2.240249 0 CFG=1
M  V30 3 C 1.534340 -3.095427 3.006802 0
M  V30 4 N 1.168979 -1.904892 2.328978 0
M  V30 5 C 0.810793 -0.735704 1.662763 0
M  V30 6 N 1.411522 -0.126264 0.599934 0
M  V30 7 C 0.835743 0.989744 0.152593 0
M  V30 8 C 1.552132 1.557941 -0.976778 0
M  V30 9 C 1.158463 2.705768 -1.622066 0
M  V30 10 C 1.779679 3.302942 -2.692596 0
M  V30 11 N 2.899976 2.692003 -3.158990 0
M  V30 12 C 3.330404 1.575863 -2.573830 0
M  V30 13 C 2.691332 0.974594 -1.484071 0
M  V30 14 N -0.245942 1.483726 0.694548 0
M  V30 15 C -0.917839 0.978123 1.731972 0
M  V30 16 C -2.034389 1.517317 2.270545 0
M  V30 17 C -2.761927 2.710054 1.881440 0
M  V30 18 C -2.432598 3.542717 0.835307 0
M  V30 19 C -3.326393 4.585753 0.726196 0
M  V30 20 N -4.183837 4.348468 1.726734 0
M  V30 21 N -3.861407 3.264489 2.397866 0
M  V30 22 C -2.539519 0.781904 3.362938 0
M  V30 23 S -1.365809 -0.652248 3.547586 0
M  V30 24 C -0.347737 -0.159395 2.202910 0
M  V30 25 C 0.359286 -4.928457 1.724536 0
M  V30 26 C -0.260874 -4.193748 0.617489 0
M  V30 27 C 0.171509 -4.571795 -0.658000 0
M  V30 28 C -0.296572 -4.011516 -1.829167 0
M  V30 29 C -1.261425 -3.005219 -1.740308 0
M  V30 30 C -1.723314 -2.595425 -0.485954 0
M  V30 31 C -1.207294 -3.202368 0.628703 0
M  V30 32 H 2.444562 -3.636247 0.435267 0
M  V30 33 H 2.940515 -5.262202 0.874242 0
M  V30 34 H 2.034211 -5.125577 2.981325 0
M  V30 35 H 0.675998 -3.317309 3.758893 0
M  V30 36 H 2.370960 -2.900463 3.727621 0
M  V30 37 H 2.052731 -2.141475 1.760168 0
M  V30 38 H 0.272473 3.163602 -1.231304 0
M  V30 39 H 1.374054 4.209070 -3.117932 0
M  V30 40 H 4.224078 1.093090 -2.949877 0
M  V30 41 H 3.106600 0.067894 -1.067268 0
M  V30 42 H -1.580847 3.386255 0.191899 0
M  V30 43 H -3.292001 5.374866 -0.010001 0
M  V30 44 H -4.381893 2.884891 3.215480 0
M  V30 45 H -3.446266 0.987212 4.002211 0
M  V30 46 H 0.453219 -6.017923 1.511797 0
M  V30 47 H -0.368808 -4.871984 2.577958 0
M  V30 48 H 0.924398 -5.352265 -0.830749 0
M  V30 49 H 0.036782 -4.303535 -2.801092 0
M  V30 50 H -1.674866 -2.518551 -2.619967 0
M  V30 51 H -2.468688 -1.823192 -0.329622 0
M  V30 52 H -1.533599 -2.923590 1.625646 0
M  V30 END ATOM
M  V30 BEGIN BOND
M  V30 1 1 1 2
M  V30 2 1 2 3
M  V30 3 1 3 4
M  V30 4 1 4 5
M  V30 5 2 5 6
M  V30 6 1 6 7
M  V30 7 1 7 8
M  V30 8 2 8 9
M  V30 9 1 9 10
M  V30 10 2 10 11
M  V30 11 1 11 12
M  V30 12 2 12 13
M  V30 13 2 7 14
M  V30 14 1 14 15
M  V30 15 1 15 16
M  V30 16 1 16 17
M  V30 17 2 17 18
M  V30 18 1 18 19
M  V30 19 2 19 20
M  V30 20 1 20 21
M  V30 21 2 16 22
M  V30 22 1 22 23
M  V30 23 1 23 24
M  V30 24 1 2 25
M  V30 25 1 25 26
M  V30 26 2 26 27
M  V30 27 1 27 28
M  V30 28 2 28 29
M  V30 29 1 29 30
M  V30 30 2 30 31
M  V30 31 1 24 5
M  V30 32 1 31 26
M  V30 33 1 13 8
M  V30 34 2 24 15
M  V30 35 1 21 17
M  V30 36 1 1 32
M  V30 37 1 1 33
M  V30 38 1 2 34 CFG=1
M  V30 39 1 3 35
M  V30 40 1 3 36
M  V30 41 1 4 37
M  V30 42 1 9 38
M  V30 43 1 10 39
M  V30 44 1 12 40
M  V30 45 1 13 41
M  V30 46 1 18 42
M  V30 47 1 19 43
M  V30 48 1 21 44
M  V30 49 1 22 45
M  V30 50 1 25 46
M  V30 51 1 25 47
M  V30 52 1 27 48
M  V30 53 1 28 49
M  V30 54 1 29 50
M  V30 55 1 30 51
M  V30 56 1 31 52
M  V30 END BOND
M  V30 END CTAB
M  END
>  <Dataset>  (111) 
ChEMBL_Kinases

>  <Ligand_Instance>  (111) 
nan

>  <PDB_ID>  (111) 
nan

>  <Standardized_SMILES>  (111) 
N[C@@H](CNc1nc(-c2ccncc2)nc2c(-c3ccn[nH]3)csc12)Cc1ccccc1

>  <Name>  (111) 
nan

>  <Pocket>  (111) 
nan

>  <ATP_Site>  (111) 
nan

>  <Peripheral>  (111) 
nan

>  <Num_H_Atoms_ProtBoundConf>  (111) 
nan

>  <Num_Resolved_Atoms>  (111) 
nan

>  <Num_Not_Resolved_Atoms>  (111) 
nan

$$$$
CHEMBL3733219
     RDKit          3D

  0  0  0  0  0  0  0  0  0  0999 V3000
M  V30 BEGIN CTAB
M  V30 COUNTS 49 52 0 0 0
M  V30 BEGIN ATOM
M  V30 1 C 0.119117 -6.690078 0.170513 0
M  V30 2 C 0.516132 -6.441568 -1.286936 0
M  V30 3 C 1.307810 -5.217174 -1.392828 0
M  V30 4 O 1.519545 -5.152204 -2.657670 0
M  V30 5 N 1.835915 -4.204822 -0.540830 0
M  V30 6 C 1.841838 -3.899489 0.863137 0
M  V30 7 C 0.792540 -2.800404 1.087793 0
M  V30 8 C 1.139491 -1.602436 0.287187 0
M  V30 9 C 2.033714 -1.881549 -0.755487 0
M  V30 10 S 2.321271 -0.288465 -1.503095 0
M  V30 11 C 1.274800 0.632713 -0.432296 0
M  V30 12 N 1.035742 1.944753 -0.464828 0
M  V30 13 C 0.197107 2.480610 0.431793 0
M  V30 14 C -0.056463 3.904559 0.394704 0
M  V30 15 C -0.902001 4.542334 1.269921 0
M  V30 16 C -1.140315 5.916870 1.226477 0
M  V30 17 N -0.488108 6.597965 0.266606 0
M  V30 18 C 0.350710 6.028121 -0.616908 0
M  V30 19 C 0.574287 4.666449 -0.558696 0
M  V30 20 N -0.321296 1.610805 1.282656 0
M  V30 21 C -0.098239 0.297302 1.334940 0
M  V30 22 N -0.838113 -0.375514 2.341614 0
M  V30 23 C -1.724159 0.296196 3.270652 0
M  V30 24 C -2.890561 0.884696 2.503474 0
M  V30 25 N -3.806744 1.565795 3.402030 0
M  V30 26 C 0.756006 -0.294685 0.437831 0
M  V30 27 C 2.592771 -3.152141 -1.163298 0
M  V30 28 H 0.988369 -6.978410 0.790374 0
M  V30 29 H -0.536394 -7.611389 0.176386 0
M  V30 30 H -0.405898 -5.826745 0.599172 0
M  V30 31 H -0.414754 -6.455811 -1.892608 0
M  V30 32 H 1.127163 -7.331326 -1.622338 0
M  V30 33 H 2.838961 -3.560777 1.222207 0
M  V30 34 H 1.534670 -4.769870 1.489202 0
M  V30 35 H -0.177677 -3.237931 0.887855 0
M  V30 36 H 0.910187 -2.601686 2.188330 0
M  V30 37 H -1.421590 3.964453 2.042820 0
M  V30 38 H -1.811697 6.425300 1.920737 0
M  V30 39 H 0.858715 6.617377 -1.378536 0
M  V30 40 H 1.240078 4.207641 -1.258077 0
M  V30 41 H -0.898800 -1.386393 2.576366 0
M  V30 42 H -2.121200 -0.336700 4.072956 0
M  V30 43 H -1.199508 1.165090 3.756378 0
M  V30 44 H -2.603974 1.633009 1.747658 0
M  V30 45 H -3.487893 0.090467 2.004998 0
M  V30 46 H -4.676976 1.025507 3.596443 0
M  V30 47 H -3.360016 1.987313 4.221458 0
M  V30 48 H 2.619352 -3.241436 -2.266869 0
M  V30 49 H 3.648984 -3.253772 -0.827772 0
M  V30 END ATOM
M  V30 BEGIN BOND
M  V30 1 1 1 2
M  V30 2 1 2 3
M  V30 3 2 3 4
M  V30 4 1 3 5
M  V30 5 1 5 6
M  V30 6 1 6 7
M  V30 7 1 7 8
M  V30 8 2 8 9
M  V30 9 1 9 10
M  V30 10 1 10 11
M  V30 11 2 11 12
M  V30 12 1 12 13
M  V30 13 1 13 14
M  V30 14 2 14 15
M  V30 15 1 15 16
M  V30 16 2 16 17
M  V30 17 1 17 18
M  V30 18 2 18 19
M  V30 19 2 13 20
M  V30 20 1 20 21
M  V30 21 1 21 22
M  V30 22 1 22 23
M  V30 23 1 23 24
M  V30 24 1 24 25
M  V30 25 2 21 26
M  V30 26 1 9 27
M  V30 27 1 27 5
M  V30 28 1 26 8
M  V30 29 1 26 11
M  V30 30 1 19 14
M  V30 31 1 1 28
M  V30 32 1 1 29
M  V30 33 1 1 30
M  V30 34 1 2 31
M  V30 35 1 2 32
M  V30 36 1 6 33
M  V30 37 1 6 34
M  V30 38 1 7 35
M  V30 39 1 7 36
M  V30 40 1 15 37
M  V30 41 1 16 38
M  V30 42 1 18 39
M  V30 43 1 19 40
M  V30 44 1 22 41
M  V30 45 1 23 42
M  V30 46 1 23 43
M  V30 47 1 24 44
M  V30 48 1 24 45
M  V30 49 1 25 46
M  V30 50 1 25 47
M  V30 51 1 27 48
M  V30 52 1 27 49
M  V30 END BOND
M  V30 END CTAB
M  END
>  <Dataset>  (112) 
ChEMBL_Kinases

>  <Ligand_Instance>  (112) 
nan

>  <PDB_ID>  (112) 
nan

>  <Standardized_SMILES>  (112) 
CCC(=O)N1CCc2c(sc3nc(-c4ccncc4)nc(NCCN)c23)C1

>  <Name>  (112) 
nan

>  <Pocket>  (112) 
nan

>  <ATP_Site>  (112) 
nan

>  <Peripheral>  (112) 
nan

>  <Num_H_Atoms_ProtBoundConf>  (112) 
nan

>  <Num_Resolved_Atoms>  (112) 
nan

>  <Num_Not_Resolved_Atoms>  (112) 
nan

$$$$
CHEMBL3733206
     RDKit          3D

  0  0  0  0  0  0  0  0  0  0999 V3000
M  V30 BEGIN CTAB
M  V30 COUNTS 47 49 0 0 0
M  V30 BEGIN ATOM
M  V30 1 C -0.486420 -4.594869 1.244505 0
M  V30 2 C 0.653319 -3.665102 0.874940 0 CFG=1
M  V30 3 N 1.817773 -4.595301 0.704583 0
M  V30 4 C 0.416866 -2.994277 -0.476852 0
M  V30 5 N 1.494906 -2.110110 -0.768883 0
M  V30 6 C 0.908612 -1.143666 -0.064129 0
M  V30 7 N 1.871781 -0.340282 -0.679373 0
M  V30 8 C 2.009108 0.967041 -0.498868 0
M  V30 9 C 2.980559 1.870563 -1.310857 0
M  V30 10 C 3.697931 1.176972 -2.372574 0
M  V30 11 C 4.504801 1.880493 -3.205997 0
M  V30 12 N 4.590427 3.239680 -2.971481 0
M  V30 13 C 3.921973 3.814154 -1.994538 0
M  V30 14 C 3.040345 3.222197 -1.049563 0
M  V30 15 N 1.232315 1.728797 0.327986 0
M  V30 16 C 0.239163 1.074193 1.010524 0
M  V30 17 C -0.751506 1.330828 1.817337 0
M  V30 18 C -1.681061 0.506137 2.312361 0
M  V30 19 C -2.815747 0.299989 3.148078 0
M  V30 20 C -4.076492 0.750157 2.446561 0
M  V30 21 C -2.696046 1.050077 4.447850 0
M  V30 22 C -3.020204 -1.182309 3.496672 0
M  V30 23 S -1.054168 -1.071413 1.456897 0
M  V30 24 C 0.371489 -0.172505 0.611047 0
M  V30 25 H -0.930227 -5.017911 0.309285 0
M  V30 26 H -1.221230 -4.012284 1.818220 0
M  V30 27 H -0.067634 -5.417395 1.849074 0
M  V30 28 H 0.989546 -2.988617 1.633932 0
M  V30 29 H 1.713945 -5.266943 1.542030 0
M  V30 30 H 1.567802 -5.191588 -0.119266 0
M  V30 31 H -0.627596 -2.606035 -0.573119 0
M  V30 32 H 0.362161 -3.880927 -1.194448 0
M  V30 33 H 1.864648 -2.854624 -1.273469 0
M  V30 34 H 3.391286 0.209189 -2.197897 0
M  V30 35 H 4.907548 1.176203 -3.913346 0
M  V30 36 H 4.056091 4.895636 -1.891837 0
M  V30 37 H 2.526325 3.720622 -0.272788 0
M  V30 38 H -0.983814 2.269197 2.260941 0
M  V30 39 H -4.616835 1.485643 3.072604 0
M  V30 40 H -3.761855 1.289829 1.507653 0
M  V30 41 H -4.678450 -0.106349 2.120364 0
M  V30 42 H -2.611812 0.399279 5.330478 0
M  V30 43 H -1.758167 1.644329 4.402153 0
M  V30 44 H -3.513130 1.823295 4.531681 0
M  V30 45 H -2.036742 -1.627485 3.680540 0
M  V30 46 H -3.477033 -1.684176 2.609126 0
M  V30 47 H -3.674465 -1.244602 4.383456 0
M  V30 END ATOM
M  V30 BEGIN BOND
M  V30 1 1 1 2
M  V30 2 1 2 3
M  V30 3 1 2 4
M  V30 4 1 4 5
M  V30 5 1 5 6
M  V30 6 2 6 7
M  V30 7 1 7 8
M  V30 8 1 8 9
M  V30 9 2 9 10
M  V30 10 1 10 11
M  V30 11 2 11 12
M  V30 12 1 12 13
M  V30 13 2 13 14
M  V30 14 2 8 15
M  V30 15 1 15 16
M  V30 16 1 16 17
M  V30 17 2 17 18
M  V30 18 1 18 19
M  V30 19 1 19 20
M  V30 20 1 19 21
M  V30 21 1 19 22
M  V30 22 1 18 23
M  V30 23 1 23 24
M  V30 24 1 24 6
M  V30 25 1 14 9
M  V30 26 2 24 16
M  V30 27 1 1 25
M  V30 28 1 1 26
M  V30 29 1 1 27
M  V30 30 1 2 28 CFG=1
M  V30 31 1 3 29
M  V30 32 1 3 30
M  V30 33 1 4 31
M  V30 34 1 4 32
M  V30 35 1 5 33
M  V30 36 1 10 34
M  V30 37 1 11 35
M  V30 38 1 13 36
M  V30 39 1 14 37
M  V30 40 1 17 38
M  V30 41 1 20 39
M  V30 42 1 20 40
M  V30 43 1 20 41
M  V30 44 1 21 42
M  V30 45 1 21 43
M  V30 46 1 21 44
M  V30 47 1 22 45
M  V30 48 1 22 46
M  V30 49 1 22 47
M  V30 END BOND
M  V30 END CTAB
M  END
>  <Dataset>  (113) 
ChEMBL_Kinases

>  <Ligand_Instance>  (113) 
nan

>  <PDB_ID>  (113) 
nan

>  <Standardized_SMILES>  (113) 
C[C@@H](N)CNc1nc(-c2ccncc2)nc2cc(C(C)(C)C)sc12

>  <Name>  (113) 
nan

>  <Pocket>  (113) 
nan

>  <ATP_Site>  (113) 
nan

>  <Peripheral>  (113) 
nan

>  <Num_H_Atoms_ProtBoundConf>  (113) 
nan

>  <Num_Resolved_Atoms>  (113) 
nan

>  <Num_Not_Resolved_Atoms>  (113) 
nan

$$$$
CHEMBL3733187
     RDKit          3D

  0  0  0  0  0  0  0  0  0  0999 V3000
M  V30 BEGIN CTAB
M  V30 COUNTS 53 56 0 0 0
M  V30 BEGIN ATOM
M  V30 1 N -0.562785 -3.428814 0.314554 0
M  V30 2 C 0.190601 -4.130227 1.293722 0 CFG=2
M  V30 3 C 1.188298 -3.261113 2.011516 0
M  V30 4 N 0.648124 -2.159758 2.727760 0
M  V30 5 C 0.021505 -1.013143 2.170667 0
M  V30 6 N -0.104202 -0.838851 0.826129 0
M  V30 7 C -0.707214 0.310212 0.472488 0
M  V30 8 C -0.885195 0.604399 -0.965869 0
M  V30 9 C -1.500168 1.722058 -1.437748 0
M  V30 10 C -1.644443 1.950434 -2.781875 0
M  V30 11 N -1.165901 1.046768 -3.651383 0
M  V30 12 C -0.547568 -0.078462 -3.233363 0
M  V30 13 C -0.416870 -0.281436 -1.878629 0
M  V30 14 N -1.169436 1.247218 1.310363 0
M  V30 15 C -1.064899 1.113220 2.644073 0
M  V30 16 C -1.500655 2.003448 3.564065 0
M  V30 17 C -2.159371 3.265296 3.328025 0
M  V30 18 C -2.722905 4.336070 3.105949 0
M  V30 19 C -3.384849 5.609040 2.818937 0
M  V30 20 C -2.472660 6.369112 1.868052 0
M  V30 21 F -1.265554 6.537152 2.547120 0
M  V30 22 C -1.289378 1.663740 4.908828 0
M  V30 23 S -0.424667 -0.015569 4.785851 0
M  V30 24 C -0.461949 -0.032667 3.046819 0
M  V30 25 C 0.888612 -5.296934 0.672128 0
M  V30 26 C 1.834735 -4.946613 -0.408647 0
M  V30 27 C 3.143233 -4.676062 -0.014850 0
M  V30 28 C 4.119847 -4.339271 -0.947267 0
M  V30 29 C 3.806337 -4.266878 -2.290137 0
M  V30 30 C 2.519140 -4.531478 -2.693354 0
M  V30 31 C 1.578378 -4.859885 -1.759420 0
M  V30 32 H -0.118411 -3.333193 -0.599810 0
M  V30 33 H -1.582491 -3.576867 0.320882 0
M  V30 34 H -0.528199 -4.471789 2.077634 0
M  V30 35 H 1.763308 -3.924642 2.685175 0
M  V30 36 H 1.961957 -2.922258 1.251863 0
M  V30 37 H 0.737246 -2.234541 3.767873 0
M  V30 38 H -1.883713 2.447046 -0.720452 0
M  V30 39 H -2.150306 2.872530 -3.070141 0
M  V30 40 H -0.176301 -0.780961 -3.961596 0
M  V30 41 H 0.089081 -1.198753 -1.619146 0
M  V30 42 H -4.337633 5.470818 2.270015 0
M  V30 43 H -3.559174 6.133915 3.760042 0
M  V30 44 H -2.233556 5.661863 1.042410 0
M  V30 45 H -2.905051 7.310850 1.517789 0
M  V30 46 H -1.541307 2.199543 5.853705 0
M  V30 47 H 1.415636 -5.939408 1.418456 0
M  V30 48 H 0.085392 -5.976120 0.263729 0
M  V30 49 H 3.550267 -4.690174 0.987495 0
M  V30 50 H 5.150563 -4.118590 -0.705371 0
M  V30 51 H 4.555727 -4.006064 -3.026851 0
M  V30 52 H 2.237760 -4.483979 -3.739063 0
M  V30 53 H 0.567126 -5.074214 -2.061540 0
M  V30 END ATOM
M  V30 BEGIN BOND
M  V30 1 1 1 2
M  V30 2 1 2 3
M  V30 3 1 3 4
M  V30 4 1 4 5
M  V30 5 2 5 6
M  V30 6 1 6 7
M  V30 7 1 7 8
M  V30 8 2 8 9
M  V30 9 1 9 10
M  V30 10 2 10 11
M  V30 11 1 11 12
M  V30 12 2 12 13
M  V30 13 2 7 14
M  V30 14 1 14 15
M  V30 15 1 15 16
M  V30 16 1 16 17
M  V30 17 3 17 18
M  V30 18 1 18 19
M  V30 19 1 19 20
M  V30 20 1 20 21
M  V30 21 2 16 22
M  V30 22 1 22 23
M  V30 23 1 23 24
M  V30 24 1 2 25
M  V30 25 1 25 26
M  V30 26 2 26 27
M  V30 27 1 27 28
M  V30 28 2 28 29
M  V30 29 1 29 30
M  V30 30 2 30 31
M  V30 31 1 24 5
M  V30 32 1 31 26
M  V30 33 1 13 8
M  V30 34 2 24 15
M  V30 35 1 1 32
M  V30 36 1 1 33
M  V30 37 1 2 34 CFG=1
M  V30 38 1 3 35
M  V30 39 1 3 36
M  V30 40 1 4 37
M  V30 41 1 9 38
M  V30 42 1 10 39
M  V30 43 1 12 40
M  V30 44 1 13 41
M  V30 45 1 19 42
M  V30 46 1 19 43
M  V30 47 1 20 44
M  V30 48 1 20 45
M  V30 49 1 22 46
M  V30 50 1 25 47
M  V30 51 1 25 48
M  V30 52 1 27 49
M  V30 53 1 28 50
M  V30 54 1 29 51
M  V30 55 1 30 52
M  V30 56 1 31 53
M  V30 END BOND
M  V30 END CTAB
M  END
>  <Dataset>  (114) 
ChEMBL_Kinases

>  <Ligand_Instance>  (114) 
nan

>  <PDB_ID>  (114) 
nan

>  <Standardized_SMILES>  (114) 
N[C@H](CNc1nc(-c2ccncc2)nc2c(C#CCCF)csc12)Cc1ccccc1

>  <Name>  (114) 
nan

>  <Pocket>  (114) 
nan

>  <ATP_Site>  (114) 
nan

>  <Peripheral>  (114) 
nan

>  <Num_H_Atoms_ProtBoundConf>  (114) 
nan

>  <Num_Resolved_Atoms>  (114) 
nan

>  <Num_Not_Resolved_Atoms>  (114) 
nan

$$$$
CHEMBL3733344
     RDKit          3D

  0  0  0  0  0  0  0  0  0  0999 V3000
M  V30 BEGIN CTAB
M  V30 COUNTS 69 72 0 0 0
M  V30 BEGIN ATOM
M  V30 1 C 5.893049 -1.348569 1.773628 0
M  V30 2 C 5.678000 -2.083324 0.456386 0
M  V30 3 C 6.429656 -1.442846 -0.678111 0
M  V30 4 O 6.130951 -3.401312 0.676036 0
M  V30 5 C 4.264613 -2.079187 0.069846 0
M  V30 6 C 3.073246 -2.082866 -0.235075 0
M  V30 7 C 1.674535 -2.069411 -0.574622 0
M  V30 8 C 1.263829 -3.023906 -1.517659 0
M  V30 9 C 1.964753 -4.059386 -2.253428 0
M  V30 10 C 2.569358 -5.005050 -1.284981 0
M  V30 11 C 3.095789 -3.409115 -3.036326 0
M  V30 12 C 1.079412 -4.757531 -3.262001 0
M  V30 13 S -0.531992 -2.687287 -1.671356 0
M  V30 14 C -0.547036 -1.373653 -0.518941 0
M  V30 15 C -1.591270 -0.561867 -0.066004 0
M  V30 16 N -2.887704 -0.766387 -0.579867 0
M  V30 17 C -4.243656 -0.445485 -0.640687 0
M  V30 18 C -4.990694 -0.700740 0.645028 0 CFG=1
M  V30 19 N -4.906944 -2.072290 1.095096 0
M  V30 20 C -4.664803 0.235333 1.763853 0
M  V30 21 C -4.987805 1.650153 1.423525 0
M  V30 22 C -4.229103 2.626388 0.825811 0
M  V30 23 C -4.658433 3.895331 0.573487 0
M  V30 24 C -5.929033 4.278424 0.920142 0
M  V30 25 C -6.771143 3.378515 1.523983 0
M  V30 26 C -6.271357 2.124124 1.745402 0
M  V30 27 N -1.308923 0.392449 0.844990 0
M  V30 28 C -0.051573 0.530305 1.281793 0
M  V30 29 C 0.301862 1.543387 2.269352 0
M  V30 30 C 1.592973 1.698226 2.715935 0
M  V30 31 C 1.800359 2.686604 3.645165 0
M  V30 32 N 0.831470 3.484298 4.123340 0
M  V30 33 C -0.434005 3.295379 3.652599 0
M  V30 34 C -0.740701 2.320918 2.712030 0
M  V30 35 N 0.909441 -0.267871 0.819759 0
M  V30 36 C 0.715480 -1.236936 -0.082201 0
M  V30 37 H 4.970169 -1.340390 2.389560 0
M  V30 38 H 6.140615 -0.283095 1.579010 0
M  V30 39 H 6.679457 -1.843552 2.392464 0
M  V30 40 H 7.281647 -0.872683 -0.205721 0
M  V30 41 H 5.856489 -0.714552 -1.260729 0
M  V30 42 H 6.894682 -2.238632 -1.269925 0
M  V30 43 H 5.350663 -3.861222 1.093880 0
M  V30 44 H 2.610950 -6.011679 -1.759227 0
M  V30 45 H 1.882752 -5.103829 -0.425887 0
M  V30 46 H 3.604555 -4.775935 -1.001546 0
M  V30 47 H 2.952964 -2.307240 -3.074056 0
M  V30 48 H 4.077454 -3.565150 -2.526038 0
M  V30 49 H 3.128466 -3.732071 -4.095107 0
M  V30 50 H 0.030097 -4.504793 -3.007055 0
M  V30 51 H 1.236838 -5.862749 -3.243032 0
M  V30 52 H 1.247370 -4.356467 -4.284254 0
M  V30 53 H -2.932149 -1.566777 -1.292197 0
M  V30 54 H -4.871870 -0.918960 -1.430056 0
M  V30 55 H -4.371751 0.695419 -0.786103 0
M  V30 56 H -6.117589 -0.543296 0.408131 0
M  V30 57 H -5.716018 -2.647791 0.772944 0
M  V30 58 H -4.926259 -2.134808 2.152732 0
M  V30 59 H -3.645866 0.130327 2.166026 0
M  V30 60 H -5.368366 -0.052367 2.608658 0
M  V30 61 H -3.234709 2.320447 0.553435 0
M  V30 62 H -3.942779 4.566160 0.090464 0
M  V30 63 H -6.226841 5.276093 0.707181 0
M  V30 64 H -7.778153 3.629393 1.815753 0
M  V30 65 H -6.961087 1.416392 2.230149 0
M  V30 66 H 2.369711 1.059159 2.333019 0
M  V30 67 H 2.811207 2.819901 4.005315 0
M  V30 68 H -1.169098 3.956682 4.065547 0
M  V30 69 H -1.777314 2.297479 2.445067 0
M  V30 END ATOM
M  V30 BEGIN BOND
M  V30 1 1 1 2
M  V30 2 1 2 3
M  V30 3 1 2 4
M  V30 4 1 2 5
M  V30 5 3 5 6
M  V30 6 1 6 7
M  V30 7 2 7 8
M  V30 8 1 8 9
M  V30 9 1 9 10
M  V30 10 1 9 11
M  V30 11 1 9 12
M  V30 12 1 8 13
M  V30 13 1 13 14
M  V30 14 2 14 15
M  V30 15 1 15 16
M  V30 16 1 16 17
M  V30 17 1 17 18
M  V30 18 1 18 19
M  V30 19 1 18 20
M  V30 20 1 20 21
M  V30 21 2 21 22
M  V30 22 1 22 23
M  V30 23 2 23 24
M  V30 24 1 24 25
M  V30 25 2 25 26
M  V30 26 1 15 27
M  V30 27 2 27 28
M  V30 28 1 28 29
M  V30 29 2 29 30
M  V30 30 1 30 31
M  V30 31 2 31 32
M  V30 32 1 32 33
M  V30 33 2 33 34
M  V30 34 1 28 35
M  V30 35 2 35 36
M  V30 36 1 36 7
M  V30 37 1 36 14
M  V30 38 1 26 21
M  V30 39 1 34 29
M  V30 40 1 1 37
M  V30 41 1 1 38
M  V30 42 1 1 39
M  V30 43 1 3 40
M  V30 44 1 3 41
M  V30 45 1 3 42
M  V30 46 1 4 43
M  V30 47 1 10 44
M  V30 48 1 10 45
M  V30 49 1 10 46
M  V30 50 1 11 47
M  V30 51 1 11 48
M  V30 52 1 11 49
M  V30 53 1 12 50
M  V30 54 1 12 51
M  V30 55 1 12 52
M  V30 56 1 16 53
M  V30 57 1 17 54
M  V30 58 1 17 55
M  V30 59 1 18 56 CFG=3
M  V30 60 1 19 57
M  V30 61 1 19 58
M  V30 62 1 20 59
M  V30 63 1 20 60
M  V30 64 1 22 61
M  V30 65 1 23 62
M  V30 66 1 24 63
M  V30 67 1 25 64
M  V30 68 1 26 65
M  V30 69 1 30 66
M  V30 70 1 31 67
M  V30 71 1 33 68
M  V30 72 1 34 69
M  V30 END BOND
M  V30 END CTAB
M  END
>  <Dataset>  (115) 
ChEMBL_Kinases

>  <Ligand_Instance>  (115) 
nan

>  <PDB_ID>  (115) 
nan

>  <Standardized_SMILES>  (115) 
CC(C)(O)C#Cc1c(C(C)(C)C)sc2c(NC[C@@H](N)Cc3ccccc3)nc(-c3ccncc3)nc12

>  <Name>  (115) 
nan

>  <Pocket>  (115) 
nan

>  <ATP_Site>  (115) 
nan

>  <Peripheral>  (115) 
nan

>  <Num_H_Atoms_ProtBoundConf>  (115) 
nan

>  <Num_Resolved_Atoms>  (115) 
nan

>  <Num_Not_Resolved_Atoms>  (115) 
nan

$$$$
CHEMBL373808
     RDKit          3D

  0  0  0  0  0  0  0  0  0  0999 V3000
M  V30 BEGIN CTAB
M  V30 COUNTS 53 55 0 0 0
M  V30 BEGIN ATOM
M  V30 1 C 0.650697 -5.580742 0.317598 0
M  V30 2 S 0.142197 -4.470054 -1.029361 0
M  V30 3 C 0.488438 -2.758701 -0.657083 0
M  V30 4 N 1.622950 -2.091188 -0.935670 0
M  V30 5 C 1.504408 -0.817611 -0.485226 0
M  V30 6 C 2.608103 0.091227 -0.674376 0
M  V30 7 C 2.670816 1.248602 -1.419521 0
M  V30 8 C 3.780370 2.052415 -1.534400 0
M  V30 9 C 4.914504 1.659479 -0.845334 0
M  V30 10 F 5.993662 2.481816 -0.984593 0
M  V30 11 C 4.919767 0.508592 -0.079358 0
M  V30 12 C 3.777362 -0.269323 0.006159 0
M  V30 13 C 0.247240 -0.769583 0.070704 0
M  V30 14 C -0.228590 0.475550 0.665010 0
M  V30 15 C -0.561014 1.677684 0.072582 0
M  V30 16 C -0.983676 2.728070 0.860796 0
M  V30 17 N -1.074613 2.595137 2.184576 0
M  V30 18 C -0.765909 1.453586 2.814606 0
M  V30 19 N -0.901478 1.430432 4.232369 0
M  V30 20 C 0.174330 1.792339 5.097373 0
M  V30 21 C -0.153449 1.706901 6.550598 0
M  V30 22 O 1.293853 2.148791 4.614351 0
M  V30 23 C -0.338271 0.379125 2.056322 0
M  V30 24 N -0.396105 -1.969144 -0.029398 0
M  V30 25 C -1.730505 -2.122631 0.503154 0
M  V30 26 C -2.804494 -1.752512 -0.486099 0
M  V30 27 N -2.835319 -2.517390 -1.689542 0
M  V30 28 C -3.875577 -2.006935 -2.611598 0
M  V30 29 C -3.238655 -3.906759 -1.445695 0
M  V30 30 H -0.196490 -6.217867 0.661832 0
M  V30 31 H 1.056614 -4.968772 1.158019 0
M  V30 32 H 1.452195 -6.273549 0.017209 0
M  V30 33 H 1.752283 1.489020 -1.927578 0
M  V30 34 H 3.681600 2.941490 -2.161504 0
M  V30 35 H 5.844732 0.276037 0.423519 0
M  V30 36 H 3.928099 -1.147599 0.645646 0
M  V30 37 H -0.443546 1.646773 -1.000827 0
M  V30 38 H -1.209194 3.605214 0.260131 0
M  V30 39 H -1.862372 1.123463 4.553737 0
M  V30 40 H -1.196211 2.032349 6.719375 0
M  V30 41 H -0.016752 0.638441 6.846959 0
M  V30 42 H 0.474952 2.389395 7.158615 0
M  V30 43 H -0.116133 -0.493773 2.692401 0
M  V30 44 H -1.881688 -3.138210 0.942296 0
M  V30 45 H -1.883577 -1.435901 1.385823 0
M  V30 46 H -3.772327 -1.739012 0.057530 0
M  V30 47 H -2.612481 -0.688977 -0.790531 0
M  V30 48 H -3.561316 -2.317696 -3.631259 0
M  V30 49 H -3.957742 -0.902385 -2.514817 0
M  V30 50 H -4.847714 -2.478878 -2.367793 0
M  V30 51 H -2.654653 -4.525968 -2.158579 0
M  V30 52 H -2.960568 -4.163538 -0.426630 0
M  V30 53 H -4.332687 -4.061212 -1.614914 0
M  V30 END ATOM
M  V30 BEGIN BOND
M  V30 1 1 1 2
M  V30 2 1 2 3
M  V30 3 2 3 4
M  V30 4 1 4 5
M  V30 5 1 5 6
M  V30 6 2 6 7
M  V30 7 1 7 8
M  V30 8 2 8 9
M  V30 9 1 9 10
M  V30 10 1 9 11
M  V30 11 2 11 12
M  V30 12 2 5 13
M  V30 13 1 13 14
M  V30 14 2 14 15
M  V30 15 1 15 16
M  V30 16 2 16 17
M  V30 17 1 17 18
M  V30 18 1 18 19
M  V30 19 1 19 20
M  V30 20 1 20 21
M  V30 21 2 20 22
M  V30 22 2 18 23
M  V30 23 1 13 24
M  V30 24 1 24 25
M  V30 25 1 25 26
M  V30 26 1 26 27
M  V30 27 1 27 28
M  V30 28 1 27 29
M  V30 29 1 24 3
M  V30 30 1 12 6
M  V30 31 1 23 14
M  V30 32 1 1 30
M  V30 33 1 1 31
M  V30 34 1 1 32
M  V30 35 1 7 33
M  V30 36 1 8 34
M  V30 37 1 11 35
M  V30 38 1 12 36
M  V30 39 1 15 37
M  V30 40 1 16 38
M  V30 41 1 19 39
M  V30 42 1 21 40
M  V30 43 1 21 41
M  V30 44 1 21 42
M  V30 45 1 23 43
M  V30 46 1 25 44
M  V30 47 1 25 45
M  V30 48 1 26 46
M  V30 49 1 26 47
M  V30 50 1 28 48
M  V30 51 1 28 49
M  V30 52 1 28 50
M  V30 53 1 29 51
M  V30 54 1 29 52
M  V30 55 1 29 53
M  V30 END BOND
M  V30 END CTAB
M  END
>  <Dataset>  (116) 
ChEMBL_Kinases

>  <Ligand_Instance>  (116) 
nan

>  <PDB_ID>  (116) 
nan

>  <Standardized_SMILES>  (116) 
CSc1nc(-c2ccc(F)cc2)c(-c2ccnc(NC(C)=O)c2)n1CCN(C)C

>  <Name>  (116) 
nan

>  <Pocket>  (116) 
nan

>  <ATP_Site>  (116) 
nan

>  <Peripheral>  (116) 
nan

>  <Num_H_Atoms_ProtBoundConf>  (116) 
nan

>  <Num_Resolved_Atoms>  (116) 
nan

>  <Num_Not_Resolved_Atoms>  (116) 
nan

$$$$
CHEMBL373807
     RDKit          3D

  0  0  0  0  0  0  0  0  0  0999 V3000
M  V30 BEGIN CTAB
M  V30 COUNTS 46 48 0 0 0
M  V30 BEGIN ATOM
M  V30 1 C 3.248492 -4.895025 2.211061 0
M  V30 2 S 2.334125 -4.747982 0.675926 0
M  V30 3 C 1.788869 -3.066409 0.363331 0
M  V30 4 N 2.443356 -2.072617 -0.299544 0
M  V30 5 C 1.651920 -0.958299 -0.293899 0
M  V30 6 C 2.274561 0.159678 -0.988586 0
M  V30 7 C 2.000506 0.137756 -2.357175 0
M  V30 8 C 2.510178 1.117357 -3.181739 0
M  V30 9 C 3.298990 2.144079 -2.703122 0
M  V30 10 F 3.812884 3.121302 -3.506211 0
M  V30 11 C 3.559560 2.149832 -1.347727 0
M  V30 12 C 3.062435 1.182870 -0.501411 0
M  V30 13 C 0.496766 -1.279937 0.384018 0
M  V30 14 C -0.495581 -0.263494 0.521276 0
M  V30 15 C -1.186965 0.361489 -0.490566 0
M  V30 16 C -2.147696 1.340560 -0.378691 0
M  V30 17 N -2.435205 1.724402 0.894865 0
M  V30 18 C -1.814890 1.176475 1.971484 0
M  V30 19 N -2.158965 1.620693 3.277029 0
M  V30 20 C -3.139986 2.630285 3.466340 0
M  V30 21 C -3.451145 3.047227 4.859790 0
M  V30 22 O -3.741538 3.171439 2.511088 0
M  V30 23 C -0.862845 0.200835 1.790850 0
M  V30 24 N 0.604570 -2.564171 0.772280 0
M  V30 25 C -0.446529 -3.224346 1.514725 0
M  V30 26 C -1.453939 -3.886552 0.588522 0
M  V30 27 O -0.825039 -4.846809 -0.218452 0
M  V30 28 H 4.356428 -4.758015 2.068680 0
M  V30 29 H 2.924117 -4.153433 2.970935 0
M  V30 30 H 3.057817 -5.903046 2.659516 0
M  V30 31 H 1.404149 -0.584221 -2.911036 0
M  V30 32 H 2.344933 1.175491 -4.265372 0
M  V30 33 H 4.177482 2.931017 -0.891271 0
M  V30 34 H 3.216184 1.111008 0.568054 0
M  V30 35 H -0.950935 0.047202 -1.511649 0
M  V30 36 H -2.625350 1.758330 -1.252180 0
M  V30 37 H -1.689415 1.205657 4.106764 0
M  V30 38 H -4.464916 3.481471 4.974351 0
M  V30 39 H -3.266422 2.203153 5.569384 0
M  V30 40 H -2.709231 3.836619 5.130320 0
M  V30 41 H -0.389365 -0.212842 2.676309 0
M  V30 42 H -0.941309 -2.586907 2.267503 0
M  V30 43 H -0.005762 -4.086400 2.101933 0
M  V30 44 H -1.925811 -3.168872 -0.118799 0
M  V30 45 H -2.212609 -4.456136 1.161798 0
M  V30 46 H -0.338577 -4.367183 -0.952803 0
M  V30 END ATOM
M  V30 BEGIN BOND
M  V30 1 1 1 2
M  V30 2 1 2 3
M  V30 3 2 3 4
M  V30 4 1 4 5
M  V30 5 1 5 6
M  V30 6 2 6 7
M  V30 7 1 7 8
M  V30 8 2 8 9
M  V30 9 1 9 10
M  V30 10 1 9 11
M  V30 11 2 11 12
M  V30 12 2 5 13
M  V30 13 1 13 14
M  V30 14 2 14 15
M  V30 15 1 15 16
M  V30 16 2 16 17
M  V30 17 1 17 18
M  V30 18 1 18 19
M  V30 19 1 19 20
M  V30 20 1 20 21
M  V30 21 2 20 22
M  V30 22 2 18 23
M  V30 23 1 13 24
M  V30 24 1 24 25
M  V30 25 1 25 26
M  V30 26 1 26 27
M  V30 27 1 24 3
M  V30 28 1 12 6
M  V30 29 1 23 14
M  V30 30 1 1 28
M  V30 31 1 1 29
M  V30 32 1 1 30
M  V30 33 1 7 31
M  V30 34 1 8 32
M  V30 35 1 11 33
M  V30 36 1 12 34
M  V30 37 1 15 35
M  V30 38 1 16 36
M  V30 39 1 19 37
M  V30 40 1 21 38
M  V30 41 1 21 39
M  V30 42 1 21 40
M  V30 43 1 23 41
M  V30 44 1 25 42
M  V30 45 1 25 43
M  V30 46 1 26 44
M  V30 47 1 26 45
M  V30 48 1 27 46
M  V30 END BOND
M  V30 END CTAB
M  END
>  <Dataset>  (117) 
ChEMBL_Kinases

>  <Ligand_Instance>  (117) 
nan

>  <PDB_ID>  (117) 
nan

>  <Standardized_SMILES>  (117) 
CSc1nc(-c2ccc(F)cc2)c(-c2ccnc(NC(C)=O)c2)n1CCO

>  <Name>  (117) 
nan

>  <Pocket>  (117) 
nan

>  <ATP_Site>  (117) 
nan

>  <Peripheral>  (117) 
nan

>  <Num_H_Atoms_ProtBoundConf>  (117) 
nan

>  <Num_Resolved_Atoms>  (117) 
nan

>  <Num_Not_Resolved_Atoms>  (117) 
nan

$$$$
CHEMBL373797
     RDKit          3D

  0  0  0  0  0  0  0  0  0  0999 V3000
M  V30 BEGIN CTAB
M  V30 COUNTS 47 50 0 0 0
M  V30 BEGIN ATOM
M  V30 1 C 1.868747 -1.990930 0.457805 0
M  V30 2 N 2.170580 -1.667479 1.849824 0
M  V30 3 C 3.295535 -2.383284 2.386709 0
M  V30 4 C 4.555605 -1.585589 2.272471 0
M  V30 5 C 5.319940 -1.611979 1.131454 0
M  V30 6 C 6.465023 -0.871366 1.072816 0
M  V30 7 C 6.833613 -0.111649 2.162488 0
M  V30 8 C 6.096041 -0.046775 3.348029 0
M  V30 9 C 4.961390 -0.803361 3.353324 0
M  V30 10 C 1.359480 -0.728113 2.547229 0
M  V30 11 O 1.651113 -0.469216 3.746246 0
M  V30 12 C 0.236359 -0.093922 1.885236 0
M  V30 13 C -0.053883 0.466143 0.662874 0
M  V30 14 C -1.343498 0.941441 0.576534 0
M  V30 15 C -1.957982 1.576062 -0.579754 0
M  V30 16 N -1.611360 2.631101 -1.350132 0
M  V30 17 N -2.521421 2.806703 -2.311902 0
M  V30 18 C -3.482083 1.848171 -2.167018 0
M  V30 19 C -3.143798 1.067825 -1.084741 0
M  V30 20 C -4.065829 -0.011991 -0.766526 0
M  V30 21 C -5.404987 0.328174 -0.539776 0
M  V30 22 C -6.426700 -0.534918 -0.225521 0
M  V30 23 C -6.061949 -1.877214 -0.129382 0
M  V30 24 C -4.762994 -2.279492 -0.339163 0
M  V30 25 Cl -4.261068 -3.963151 -0.228650 0
M  V30 26 C -3.766710 -1.370288 -0.655452 0
M  V30 27 C -1.889332 0.654111 1.837688 0
M  V30 28 N -0.929351 0.042925 2.586019 0
M  V30 29 H 2.214183 -3.014861 0.181346 0
M  V30 30 H 0.751136 -1.929942 0.311952 0
M  V30 31 H 2.327553 -1.283342 -0.257269 0
M  V30 32 H 3.185153 -2.601360 3.475151 0
M  V30 33 H 3.473275 -3.344619 1.879051 0
M  V30 34 H 4.999453 -2.221080 0.289268 0
M  V30 35 H 7.019485 -0.936965 0.154729 0
M  V30 36 H 7.742432 0.445606 2.067901 0
M  V30 37 H 6.438072 0.571538 4.179566 0
M  V30 38 H 4.392160 -0.738461 4.293942 0
M  V30 39 H 0.736701 0.477847 -0.087056 0
M  V30 40 H -0.742927 3.190914 -1.175165 0
M  V30 41 H -4.308163 1.860465 -2.892365 0
M  V30 42 H -5.691570 1.367133 -0.612082 0
M  V30 43 H -7.439230 -0.186743 -0.066437 0
M  V30 44 H -6.827119 -2.626298 0.117183 0
M  V30 45 H -2.720778 -1.628569 -0.831513 0
M  V30 46 H -2.912370 0.928293 2.041254 0
M  V30 47 H -1.177840 -0.235766 3.553410 0
M  V30 END ATOM
M  V30 BEGIN BOND
M  V30 1 1 1 2
M  V30 2 1 2 3
M  V30 3 1 3 4
M  V30 4 2 4 5
M  V30 5 1 5 6
M  V30 6 2 6 7
M  V30 7 1 7 8
M  V30 8 2 8 9
M  V30 9 1 2 10
M  V30 10 2 10 11
M  V30 11 1 10 12
M  V30 12 2 12 13
M  V30 13 1 13 14
M  V30 14 1 14 15
M  V30 15 1 15 16
M  V30 16 1 16 17
M  V30 17 2 17 18
M  V30 18 1 18 19
M  V30 19 1 19 20
M  V30 20 2 20 21
M  V30 21 1 21 22
M  V30 22 2 22 23
M  V30 23 1 23 24
M  V30 24 1 24 25
M  V30 25 2 24 26
M  V30 26 2 14 27
M  V30 27 1 27 28
M  V30 28 1 9 4
M  V30 29 1 28 12
M  V30 30 2 19 15
M  V30 31 1 26 20
M  V30 32 1 1 29
M  V30 33 1 1 30
M  V30 34 1 1 31
M  V30 35 1 3 32
M  V30 36 1 3 33
M  V30 37 1 5 34
M  V30 38 1 6 35
M  V30 39 1 7 36
M  V30 40 1 8 37
M  V30 41 1 9 38
M  V30 42 1 13 39
M  V30 43 1 16 40
M  V30 44 1 18 41
M  V30 45 1 21 42
M  V30 46 1 22 43
M  V30 47 1 23 44
M  V30 48 1 26 45
M  V30 49 1 27 46
M  V30 50 1 28 47
M  V30 END BOND
M  V30 END CTAB
M  END
>  <Dataset>  (118) 
ChEMBL_Kinases

>  <Ligand_Instance>  (118) 
nan

>  <PDB_ID>  (118) 
nan

>  <Standardized_SMILES>  (118) 
CN(Cc1ccccc1)C(=O)c1cc(-c2[nH]ncc2-c2cccc(Cl)c2)c[nH]1

>  <Name>  (118) 
nan

>  <Pocket>  (118) 
nan

>  <ATP_Site>  (118) 
nan

>  <Peripheral>  (118) 
nan

>  <Num_H_Atoms_ProtBoundConf>  (118) 
nan

>  <Num_Resolved_Atoms>  (118) 
nan

>  <Num_Not_Resolved_Atoms>  (118) 
nan

$$$$
CHEMBL373775
     RDKit          3D

  0  0  0  0  0  0  0  0  0  0999 V3000
M  V30 BEGIN CTAB
M  V30 COUNTS 40 43 0 0 0
M  V30 BEGIN ATOM
M  V30 1 N 3.237154 -4.876853 0.924730 0
M  V30 2 C 3.506495 -3.967013 -0.124336 0
M  V30 3 C 4.692567 -4.086443 -0.811690 0
M  V30 4 C 4.949641 -3.210496 -1.820232 0
M  V30 5 C 4.074290 -2.215553 -2.176942 0
M  V30 6 C 2.874075 -2.056757 -1.517144 0
M  V30 7 N 1.954467 -1.040839 -1.889334 0
M  V30 8 C 0.898861 -0.381240 -1.206026 0
M  V30 9 C -0.126226 0.228309 -1.900615 0
M  V30 10 C -1.129477 0.875218 -1.214522 0
M  V30 11 C -1.166090 0.948670 0.161472 0
M  V30 12 C -0.146829 0.343630 0.870244 0
M  V30 13 C 0.853224 -0.301640 0.169709 0
M  V30 14 O -0.040699 0.329128 2.254153 0
M  V30 15 C -0.467647 1.237319 3.267168 0
M  V30 16 C -1.914895 1.559551 3.173357 0
M  V30 17 C -2.479864 1.668207 4.427717 0
M  V30 18 C -3.842033 1.969749 4.533042 0
M  V30 19 C -4.634601 2.161087 3.421521 0
M  V30 20 C -4.082802 2.055681 2.142071 0
M  V30 21 C -2.721005 1.753764 2.069629 0
M  V30 22 C -2.325815 1.684473 0.664426 0
M  V30 23 O -3.018982 2.294104 -0.190374 0
M  V30 24 C 2.643205 -2.960235 -0.500759 0
M  V30 25 H 2.977705 -4.571810 1.881785 0
M  V30 26 H 3.249771 -5.913896 0.924547 0
M  V30 27 H 5.441483 -4.825979 -0.612691 0
M  V30 28 H 5.879124 -3.264612 -2.396817 0
M  V30 29 H 4.293893 -1.525415 -2.983163 0
M  V30 30 H 2.086288 -0.704183 -2.893193 0
M  V30 31 H -0.129924 0.190757 -2.980632 0
M  V30 32 H -1.928585 1.349364 -1.783388 0
M  V30 33 H 1.602090 -0.729242 0.807675 0
M  V30 34 H 0.140215 2.160708 3.116799 0
M  V30 35 H -0.248029 0.754519 4.239333 0
M  V30 36 H -1.884249 1.523979 5.296391 0
M  V30 37 H -4.269259 2.051173 5.536851 0
M  V30 38 H -5.668552 2.389659 3.522696 0
M  V30 39 H -4.658624 2.196259 1.223741 0
M  V30 40 H 1.733120 -2.941546 0.078629 0
M  V30 END ATOM
M  V30 BEGIN BOND
M  V30 1 1 1 2
M  V30 2 2 2 3
M  V30 3 1 3 4
M  V30 4 2 4 5
M  V30 5 1 5 6
M  V30 6 1 6 7
M  V30 7 1 7 8
M  V30 8 2 8 9
M  V30 9 1 9 10
M  V30 10 2 10 11
M  V30 11 1 11 12
M  V30 12 2 12 13
M  V30 13 1 12 14
M  V30 14 1 14 15
M  V30 15 1 15 16
M  V30 16 2 16 17
M  V30 17 1 17 18
M  V30 18 2 18 19
M  V30 19 1 19 20
M  V30 20 2 20 21
M  V30 21 1 21 22
M  V30 22 2 22 23
M  V30 23 2 6 24
M  V30 24 1 24 2
M  V30 25 1 13 8
M  V30 26 1 21 16
M  V30 27 1 22 11
M  V30 28 1 1 25
M  V30 29 1 1 26
M  V30 30 1 3 27
M  V30 31 1 4 28
M  V30 32 1 5 29
M  V30 33 1 7 30
M  V30 34 1 9 31
M  V30 35 1 10 32
M  V30 36 1 13 33
M  V30 37 1 15 34
M  V30 38 1 15 35
M  V30 39 1 17 36
M  V30 40 1 18 37
M  V30 41 1 19 38
M  V30 42 1 20 39
M  V30 43 1 24 40
M  V30 END BOND
M  V30 END CTAB
M  END
>  <Dataset>  (119) 
ChEMBL_Kinases

>  <Ligand_Instance>  (119) 
nan

>  <PDB_ID>  (119) 
nan

>  <Standardized_SMILES>  (119) 
Nc1cccc(Nc2ccc3c(c2)OCc2ccccc2C3=O)c1

>  <Name>  (119) 
nan

>  <Pocket>  (119) 
nan

>  <ATP_Site>  (119) 
nan

>  <Peripheral>  (119) 
nan

>  <Num_H_Atoms_ProtBoundConf>  (119) 
nan

>  <Num_Resolved_Atoms>  (119) 
nan

>  <Num_Not_Resolved_Atoms>  (119) 
nan

$$$$
CHEMBL511301
     RDKit          3D

  0  0  0  0  0  0  0  0  0  0999 V3000
M  V30 BEGIN CTAB
M  V30 COUNTS 56 58 0 0 0
M  V30 BEGIN ATOM
M  V30 1 C -0.133213 -1.341811 7.453287 0
M  V30 2 O -0.449119 -2.203173 6.376695 0
M  V30 3 C 0.205520 -2.161850 5.153756 0
M  V30 4 C 1.225324 -1.280244 4.867672 0
M  V30 5 C 1.824147 -1.300059 3.635556 0
M  V30 6 C 1.472871 -2.164255 2.623270 0
M  V30 7 C 2.049475 -2.251753 1.293092 0
M  V30 8 C 2.446602 -1.252413 0.548811 0
M  V30 9 C 2.410048 0.220019 0.869519 0
M  V30 10 C 2.416511 0.873420 -0.469915 0
M  V30 11 C 3.416608 2.062722 -0.330318 0
M  V30 12 O 2.840910 2.950321 0.565186 0
M  V30 13 C 1.172210 1.492405 -0.964558 0
M  V30 14 O 0.107280 0.723262 -1.341688 0
M  V30 15 C -0.724413 -0.140073 -0.717462 0
M  V30 16 O -0.642786 -0.412109 0.493917 0
M  V30 17 C -1.716616 -0.694930 -1.667448 0
M  V30 18 C -2.854656 0.096324 -1.708151 0
M  V30 19 C -3.084441 1.335038 -0.919940 0
M  V30 20 C -3.902718 -0.247659 -2.537113 0
M  V30 21 C -3.798526 -1.381198 -3.316646 0
M  V30 22 C -4.923873 -1.761478 -4.215936 0
M  V30 23 C -2.659411 -2.160750 -3.266686 0
M  V30 24 C -1.601828 -1.830370 -2.442402 0
M  V30 25 C -0.333668 -2.561015 -2.286276 0
M  V30 26 O 3.002804 -0.041878 -1.385319 0
M  V30 27 C 3.031088 -1.316159 -0.791998 0
M  V30 28 O 3.478783 -2.396236 -1.284518 0
M  V30 29 C 0.436804 -3.041581 2.950270 0
M  V30 30 C -0.202996 -3.062304 4.183934 0
M  V30 31 H -1.070646 -1.228397 8.048122 0
M  V30 32 H 0.121947 -0.344831 7.049326 0
M  V30 33 H 0.697062 -1.746524 8.085792 0
M  V30 34 H 1.552017 -0.572655 5.616583 0
M  V30 35 H 2.619797 -0.611813 3.422282 0
M  V30 36 H 2.162790 -3.247090 0.872402 0
M  V30 37 H 3.400889 0.396230 1.407042 0
M  V30 38 H 1.618018 0.501994 1.554097 0
M  V30 39 H 4.413200 1.718612 -0.060619 0
M  V30 40 H 3.394845 2.517681 -1.344357 0
M  V30 41 H 2.457341 3.756543 0.096405 0
M  V30 42 H 1.448124 2.122655 -1.867516 0
M  V30 43 H 0.897413 2.293780 -0.210736 0
M  V30 44 H -3.813567 1.083400 -0.094634 0
M  V30 45 H -2.167840 1.648339 -0.380937 0
M  V30 46 H -3.545759 2.146381 -1.501919 0
M  V30 47 H -4.823125 0.332945 -2.613573 0
M  V30 48 H -5.318943 -0.862934 -4.769317 0
M  V30 49 H -5.786750 -2.146701 -3.644600 0
M  V30 50 H -4.602611 -2.476938 -4.997943 0
M  V30 51 H -2.529752 -3.052470 -3.853884 0
M  V30 52 H -0.196194 -3.311471 -3.106207 0
M  V30 53 H -0.391037 -3.098674 -1.300668 0
M  V30 54 H 0.486636 -1.845470 -2.241173 0
M  V30 55 H 0.090727 -3.761795 2.213769 0
M  V30 56 H -0.999801 -3.766875 4.376519 0
M  V30 END ATOM
M  V30 BEGIN BOND
M  V30 1 1 1 2
M  V30 2 1 2 3
M  V30 3 2 3 4
M  V30 4 1 4 5
M  V30 5 2 5 6
M  V30 6 1 6 7
M  V30 7 2 7 8
M  V30 8 1 8 9
M  V30 9 1 9 10
M  V30 10 1 10 11
M  V30 11 1 11 12
M  V30 12 1 10 13
M  V30 13 1 13 14
M  V30 14 1 14 15
M  V30 15 2 15 16
M  V30 16 1 15 17
M  V30 17 2 17 18
M  V30 18 1 18 19
M  V30 19 1 18 20
M  V30 20 2 20 21
M  V30 21 1 21 22
M  V30 22 1 21 23
M  V30 23 2 23 24
M  V30 24 1 24 25
M  V30 25 1 10 26
M  V30 26 1 26 27
M  V30 27 2 27 28
M  V30 28 1 6 29
M  V30 29 2 29 30
M  V30 30 1 30 3
M  V30 31 1 27 8
M  V30 32 1 24 17
M  V30 33 1 1 31
M  V30 34 1 1 32
M  V30 35 1 1 33
M  V30 36 1 4 34
M  V30 37 1 5 35
M  V30 38 1 7 36
M  V30 39 1 9 37
M  V30 40 1 9 38
M  V30 41 1 11 39
M  V30 42 1 11 40
M  V30 43 1 12 41
M  V30 44 1 13 42
M  V30 45 1 13 43
M  V30 46 1 19 44
M  V30 47 1 19 45
M  V30 48 1 19 46
M  V30 49 1 20 47
M  V30 50 1 22 48
M  V30 51 1 22 49
M  V30 52 1 22 50
M  V30 53 1 23 51
M  V30 54 1 25 52
M  V30 55 1 25 53
M  V30 56 1 25 54
M  V30 57 1 29 55
M  V30 58 1 30 56
M  V30 END BOND
M  V30 END CTAB
M  END
>  <Dataset>  (120) 
ChEMBL_Kinases

>  <Ligand_Instance>  (120) 
nan

>  <PDB_ID>  (120) 
nan

>  <Standardized_SMILES>  (120) 
COc1ccc(/C=C2\CC(CO)(COC(=O)c3c(C)cc(C)cc3C)OC2=O)cc1

>  <Name>  (120) 
nan

>  <Pocket>  (120) 
nan

>  <ATP_Site>  (120) 
nan

>  <Peripheral>  (120) 
nan

>  <Num_H_Atoms_ProtBoundConf>  (120) 
nan

>  <Num_Resolved_Atoms>  (120) 
nan

>  <Num_Not_Resolved_Atoms>  (120) 
nan

$$$$
CHEMBL576233
     RDKit          3D

  0  0  0  0  0  0  0  0  0  0999 V3000
M  V30 BEGIN CTAB
M  V30 COUNTS 45 48 0 0 0
M  V30 BEGIN ATOM
M  V30 1 C 1.713750 -0.685951 3.084755 0
M  V30 2 N 1.077392 0.270769 2.164927 0
M  V30 3 C 1.497789 0.681253 0.843936 0
M  V30 4 C 0.740894 1.614310 0.124052 0
M  V30 5 C 1.248093 1.921810 -1.120756 0
M  V30 6 C 2.394318 1.403121 -1.686739 0
M  V30 7 N 2.997334 1.609600 -2.872402 0
M  V30 8 C 4.098459 0.835949 -2.906229 0
M  V30 9 C 4.191744 0.130468 -1.723902 0
M  V30 10 C 3.109531 0.483819 -0.936821 0
M  V30 11 C 2.654307 0.131369 0.322074 0
M  V30 12 C -0.090914 0.864245 2.704737 0
M  V30 13 C 0.194419 2.022648 3.393508 0
M  V30 14 C 1.496658 2.582679 3.560831 0
M  V30 15 N 2.546311 3.028871 3.676070 0
M  V30 16 C -0.858164 2.697165 3.967792 0
M  V30 17 N -2.086451 2.210115 3.835728 0
M  V30 18 C -2.334718 1.080980 3.160124 0
M  V30 19 C -1.344329 0.340716 2.553273 0
M  V30 20 C -1.701079 -0.860033 1.846931 0
M  V30 21 C -1.119272 -1.790848 1.176375 0
M  V30 22 C -1.657046 -2.948728 0.522998 0
M  V30 23 C -0.826183 -3.822183 -0.147027 0
M  V30 24 C -1.301032 -4.943601 -0.786796 0
M  V30 25 C -2.642733 -5.250539 -0.788628 0
M  V30 26 C -3.500644 -4.398234 -0.128059 0
M  V30 27 C -2.977362 -3.284986 0.499633 0
M  V30 28 H 2.398778 -0.200180 3.782343 0
M  V30 29 H 0.927117 -1.267369 3.605805 0
M  V30 30 H 2.314399 -1.366700 2.418810 0
M  V30 31 H -0.149179 2.034592 0.531404 0
M  V30 32 H 0.674408 2.641364 -1.689068 0
M  V30 33 H 2.616978 2.265701 -3.580993 0
M  V30 34 H 4.801401 0.778472 -3.736011 0
M  V30 35 H 4.965088 -0.572726 -1.451480 0
M  V30 36 H 3.273865 -0.578172 0.811935 0
M  V30 37 H -0.740909 3.610854 4.526237 0
M  V30 38 H -3.396769 0.788809 3.127262 0
M  V30 39 H -2.771135 -1.109588 1.842765 0
M  V30 40 H -0.057976 -1.626204 1.127933 0
M  V30 41 H 0.243833 -3.626662 -0.176679 0
M  V30 42 H -0.592855 -5.584292 -1.292412 0
M  V30 43 H -2.936178 -6.152521 -1.315958 0
M  V30 44 H -4.550223 -4.654346 -0.139605 0
M  V30 45 H -3.712882 -2.678818 0.987474 0
M  V30 END ATOM
M  V30 BEGIN BOND
M  V30 1 1 1 2
M  V30 2 1 2 3
M  V30 3 2 3 4
M  V30 4 1 4 5
M  V30 5 2 5 6
M  V30 6 1 6 7
M  V30 7 1 7 8
M  V30 8 2 8 9
M  V30 9 1 9 10
M  V30 10 2 10 11
M  V30 11 1 2 12
M  V30 12 2 12 13
M  V30 13 1 13 14
M  V30 14 3 14 15
M  V30 15 1 13 16
M  V30 16 2 16 17
M  V30 17 1 17 18
M  V30 18 2 18 19
M  V30 19 1 19 20
M  V30 20 2 20 21
M  V30 21 1 21 22
M  V30 22 2 22 23
M  V30 23 1 23 24
M  V30 24 2 24 25
M  V30 25 1 25 26
M  V30 26 2 26 27
M  V30 27 1 11 3
M  V30 28 1 19 12
M  V30 29 1 27 22
M  V30 30 1 10 6
M  V30 31 1 1 28
M  V30 32 1 1 29
M  V30 33 1 1 30
M  V30 34 1 4 31
M  V30 35 1 5 32
M  V30 36 1 7 33
M  V30 37 1 8 34
M  V30 38 1 9 35
M  V30 39 1 11 36
M  V30 40 1 16 37
M  V30 41 1 18 38
M  V30 42 1 20 39
M  V30 43 1 21 40
M  V30 44 1 23 41
M  V30 45 1 24 42
M  V30 46 1 25 43
M  V30 47 1 26 44
M  V30 48 1 27 45
M  V30 END BOND
M  V30 END CTAB
M  END
>  <Dataset>  (121) 
ChEMBL_Kinases

>  <Ligand_Instance>  (121) 
nan

>  <PDB_ID>  (121) 
nan

>  <Standardized_SMILES>  (121) 
CN(c1ccc2[nH]ccc2c1)c1c(C#N)cncc1/C=C/c1ccccc1

>  <Name>  (121) 
nan

>  <Pocket>  (121) 
nan

>  <ATP_Site>  (121) 
nan

>  <Peripheral>  (121) 
nan

>  <Num_H_Atoms_ProtBoundConf>  (121) 
nan

>  <Num_Resolved_Atoms>  (121) 
nan

>  <Num_Not_Resolved_Atoms>  (121) 
nan

$$$$
CHEMBL511308
     RDKit          3D

  0  0  0  0  0  0  0  0  0  0999 V3000
M  V30 BEGIN CTAB
M  V30 COUNTS 50 52 0 0 0
M  V30 BEGIN ATOM
M  V30 1 C 0.268490 -7.704281 3.021772 0
M  V30 2 O 1.134898 -7.609693 1.879652 0
M  V30 3 C 1.536181 -6.355858 1.376909 0
M  V30 4 C 2.370331 -6.394550 0.276588 0
M  V30 5 C 2.817932 -5.199178 -0.288271 0
M  V30 6 C 2.454458 -3.988828 0.216055 0
M  V30 7 C 2.865014 -2.669576 -0.250641 0
M  V30 8 C 2.048799 -1.618753 -0.465084 0
M  V30 9 C 2.268725 -0.246041 -0.917437 0
M  V30 10 C 1.149337 0.511380 -0.144705 0
M  V30 11 C 1.805161 0.976643 1.109503 0
M  V30 12 O 2.495790 -0.143303 1.635680 0
M  V30 13 C 0.524481 1.513597 -1.035909 0
M  V30 14 O -0.575932 2.224715 -0.600722 0
M  V30 15 C -0.616718 3.190659 0.364369 0
M  V30 16 O 0.376441 3.596407 1.007716 0
M  V30 17 C -1.947085 3.760790 0.627666 0
M  V30 18 C -2.068979 4.749106 1.596675 0
M  V30 19 C -3.228617 5.361704 1.943778 0
M  V30 20 C -4.402161 5.009594 1.314299 0
M  V30 21 C -4.320588 4.016348 0.331511 0
M  V30 22 C -3.125403 3.414710 0.003029 0
M  V30 23 C -3.063135 2.379278 -1.038004 0
M  V30 24 O 0.167170 -0.480111 0.122009 0
M  V30 25 C 0.609893 -1.713628 -0.287131 0
M  V30 26 O -0.056001 -2.769765 -0.488872 0
M  V30 27 C 1.607053 -3.958686 1.333713 0
M  V30 28 C 1.141788 -5.141269 1.922077 0
M  V30 29 H 0.843023 -7.647970 3.973550 0
M  V30 30 H -0.508239 -6.923128 3.032125 0
M  V30 31 H -0.240585 -8.673154 2.998798 0
M  V30 32 H 2.726397 -7.308729 -0.213966 0
M  V30 33 H 3.471565 -5.111725 -1.147849 0
M  V30 34 H 3.925682 -2.472498 -0.458326 0
M  V30 35 H 3.215656 0.216579 -0.657908 0
M  V30 36 H 2.061893 -0.128500 -2.018216 0
M  V30 37 H 1.055577 1.283044 1.904563 0
M  V30 38 H 2.525072 1.788684 1.017784 0
M  V30 39 H 2.594955 -0.034400 2.617610 0
M  V30 40 H 1.335304 2.289852 -1.237312 0
M  V30 41 H 0.286429 1.003013 -2.009455 0
M  V30 42 H -1.155300 5.050879 2.115836 0
M  V30 43 H -3.296898 6.131853 2.704740 0
M  V30 44 H -5.378347 5.418181 1.496164 0
M  V30 45 H -5.224661 3.708688 -0.190901 0
M  V30 46 H -2.748138 1.419184 -0.582811 0
M  V30 47 H -2.438663 2.652332 -1.913787 0
M  V30 48 H -4.094717 2.250806 -1.484881 0
M  V30 49 H 1.214849 -3.088526 1.880375 0
M  V30 50 H 0.493346 -5.177313 2.776905 0
M  V30 END ATOM
M  V30 BEGIN BOND
M  V30 1 1 1 2
M  V30 2 1 2 3
M  V30 3 2 3 4
M  V30 4 1 4 5
M  V30 5 2 5 6
M  V30 6 1 6 7
M  V30 7 2 7 8
M  V30 8 1 8 9
M  V30 9 1 9 10
M  V30 10 1 10 11
M  V30 11 1 11 12
M  V30 12 1 10 13
M  V30 13 1 13 14
M  V30 14 1 14 15
M  V30 15 2 15 16
M  V30 16 1 15 17
M  V30 17 2 17 18
M  V30 18 1 18 19
M  V30 19 2 19 20
M  V30 20 1 20 21
M  V30 21 2 21 22
M  V30 22 1 22 23
M  V30 23 1 10 24
M  V30 24 1 24 25
M  V30 25 2 25 26
M  V30 26 1 6 27
M  V30 27 2 27 28
M  V30 28 1 28 3
M  V30 29 1 25 8
M  V30 30 1 22 17
M  V30 31 1 1 29
M  V30 32 1 1 30
M  V30 33 1 1 31
M  V30 34 1 4 32
M  V30 35 1 5 33
M  V30 36 1 7 34
M  V30 37 1 9 35
M  V30 38 1 9 36
M  V30 39 1 11 37
M  V30 40 1 11 38
M  V30 41 1 12 39
M  V30 42 1 13 40
M  V30 43 1 13 41
M  V30 44 1 18 42
M  V30 45 1 19 43
M  V30 46 1 20 44
M  V30 47 1 21 45
M  V30 48 1 23 46
M  V30 49 1 23 47
M  V30 50 1 23 48
M  V30 51 1 27 49
M  V30 52 1 28 50
M  V30 END BOND
M  V30 END CTAB
M  END
>  <Dataset>  (122) 
ChEMBL_Kinases

>  <Ligand_Instance>  (122) 
nan

>  <PDB_ID>  (122) 
nan

>  <Standardized_SMILES>  (122) 
COc1ccc(/C=C2/CC(CO)(COC(=O)c3ccccc3C)OC2=O)cc1

>  <Name>  (122) 
nan

>  <Pocket>  (122) 
nan

>  <ATP_Site>  (122) 
nan

>  <Peripheral>  (122) 
nan

>  <Num_H_Atoms_ProtBoundConf>  (122) 
nan

>  <Num_Resolved_Atoms>  (122) 
nan

>  <Num_Not_Resolved_Atoms>  (122) 
nan

$$$$
CHEMBL373732
     RDKit          3D

  0  0  0  0  0  0  0  0  0  0999 V3000
M  V30 BEGIN CTAB
M  V30 COUNTS 54 56 0 0 0
M  V30 BEGIN ATOM
M  V30 1 N 6.109293 -0.699183 2.687033 0
M  V30 2 C 5.440161 -1.453215 2.148972 0
M  V30 3 C 4.586781 -2.379388 1.467650 0
M  V30 4 N 4.465037 -3.615056 1.978818 0
M  V30 5 C 3.668257 -4.492900 1.351070 0
M  V30 6 C 3.063261 -4.011203 0.246472 0
M  V30 7 N 3.155106 -2.778132 -0.306100 0
M  V30 8 C 3.958881 -1.920596 0.339984 0
M  V30 9 O 3.983807 -0.786615 -0.259250 0
M  V30 10 C 3.574039 0.319878 -0.864323 0
M  V30 11 C 2.770646 1.442163 -0.454451 0
M  V30 12 C 1.362382 1.467066 -0.080248 0
M  V30 13 C 0.853177 0.977869 1.209638 0
M  V30 14 C 0.955200 -0.461277 1.438034 0
M  V30 15 O 0.315028 -1.378739 0.704703 0
M  V30 16 C -0.927379 -1.805062 0.402256 0
M  V30 17 C -1.926991 -1.070630 1.005642 0
M  V30 18 C -3.288228 -1.265842 0.893756 0
M  V30 19 O -4.362867 -0.637504 1.417284 0
M  V30 20 C -4.437686 0.458279 2.251102 0
M  V30 21 C -3.910989 1.719754 1.664666 0
M  V30 22 C -4.662392 2.120866 0.397302 0
M  V30 23 N -4.072756 3.362882 -0.065662 0
M  V30 24 C -3.698085 -2.339575 0.069980 0
M  V30 25 Cl -5.387390 -2.735657 -0.188495 0
M  V30 26 C -2.696005 -3.102265 -0.553169 0
M  V30 27 C -1.351976 -2.838529 -0.388336 0
M  V30 28 N -0.606688 -3.831561 -1.156771 0
M  V30 29 C 0.740476 -4.264847 -1.012104 0
M  V30 30 O 0.586600 -3.414529 -0.154696 0
M  V30 31 N 2.094306 -4.539916 -0.694819 0
M  V30 32 H 3.290563 -5.489528 1.369161 0
M  V30 33 H 4.521534 0.765788 -1.460442 0
M  V30 34 H 3.056329 -0.085245 -1.864670 0
M  V30 35 H 3.367583 1.947735 0.422686 0
M  V30 36 H 2.937329 2.260607 -1.283490 0
M  V30 37 H 0.772310 0.951866 -0.942894 0
M  V30 38 H 0.921860 2.523814 -0.193508 0
M  V30 39 H -0.161860 1.398198 1.457299 0
M  V30 40 H 1.546623 1.465592 2.001249 0
M  V30 41 H 0.480914 -0.593922 2.517860 0
M  V30 42 H 2.016123 -0.688562 1.715296 0
M  V30 43 H -1.734629 -0.259133 1.672073 0
M  V30 44 H -3.810414 0.279816 3.189666 0
M  V30 45 H -5.478893 0.589780 2.667376 0
M  V30 46 H -2.862786 1.720799 1.408315 0
M  V30 47 H -4.146247 2.556536 2.392215 0
M  V30 48 H -4.528907 1.370061 -0.418335 0
M  V30 49 H -5.729122 2.271562 0.615200 0
M  V30 50 H -4.516906 3.707651 -0.935294 0
M  V30 51 H -3.040503 3.261262 -0.139413 0
M  V30 52 H -3.089267 -3.911711 -1.169234 0
M  V30 53 H -0.964585 -4.383814 -1.952217 0
M  V30 54 H 2.690902 -5.229141 -1.156140 0
M  V30 END ATOM
M  V30 BEGIN BOND
M  V30 1 3 1 2
M  V30 2 1 2 3
M  V30 3 2 3 4
M  V30 4 1 4 5
M  V30 5 2 5 6
M  V30 6 1 6 7
M  V30 7 2 7 8
M  V30 8 1 8 9
M  V30 9 1 9 10
M  V30 10 1 10 11
M  V30 11 1 11 12
M  V30 12 1 12 13
M  V30 13 1 13 14
M  V30 14 1 14 15
M  V30 15 1 15 16
M  V30 16 2 16 17
M  V30 17 1 17 18
M  V30 18 1 18 19
M  V30 19 1 19 20
M  V30 20 1 20 21
M  V30 21 1 21 22
M  V30 22 1 22 23
M  V30 23 2 18 24
M  V30 24 1 24 25
M  V30 25 1 24 26
M  V30 26 2 26 27
M  V30 27 1 27 28
M  V30 28 1 28 29
M  V30 29 2 29 30
M  V30 30 1 29 31
M  V30 31 1 8 3
M  V30 32 1 27 16
M  V30 33 1 31 6
M  V30 34 1 5 32
M  V30 35 1 10 33
M  V30 36 1 10 34
M  V30 37 1 11 35
M  V30 38 1 11 36
M  V30 39 1 12 37
M  V30 40 1 12 38
M  V30 41 1 13 39
M  V30 42 1 13 40
M  V30 43 1 14 41
M  V30 44 1 14 42
M  V30 45 1 17 43
M  V30 46 1 20 44
M  V30 47 1 20 45
M  V30 48 1 21 46
M  V30 49 1 21 47
M  V30 50 1 22 48
M  V30 51 1 22 49
M  V30 52 1 23 50
M  V30 53 1 23 51
M  V30 54 1 26 52
M  V30 55 1 28 53
M  V30 56 1 31 54
M  V30 END BOND
M  V30 END CTAB
M  END
>  <Dataset>  (123) 
ChEMBL_Kinases

>  <Ligand_Instance>  (123) 
nan

>  <PDB_ID>  (123) 
nan

>  <Standardized_SMILES>  (123) 
N#Cc1ncc2nc1OCCCCCOc1cc(OCCCN)c(Cl)cc1NC(=O)N2

>  <Name>  (123) 
nan

>  <Pocket>  (123) 
nan

>  <ATP_Site>  (123) 
nan

>  <Peripheral>  (123) 
nan

>  <Num_H_Atoms_ProtBoundConf>  (123) 
nan

>  <Num_Resolved_Atoms>  (123) 
nan

>  <Num_Not_Resolved_Atoms>  (123) 
nan

$$$$
CHEMBL3736476
     RDKit          3D

  0  0  0  0  0  0  0  0  0  0999 V3000
M  V30 BEGIN CTAB
M  V30 COUNTS 52 55 0 0 0
M  V30 BEGIN ATOM
M  V30 1 C -1.037465 -2.945035 5.235636 0
M  V30 2 O -0.329268 -1.856886 4.667964 0
M  V30 3 C 0.826184 -1.995114 3.939226 0
M  V30 4 O 1.296816 -3.153991 3.756123 0
M  V30 5 C 1.454513 -0.767025 3.408474 0
M  V30 6 C 1.015872 0.538309 3.557068 0
M  V30 7 O 1.851546 1.338088 2.935993 0
M  V30 8 C 2.818855 0.639182 2.384163 0
M  V30 9 C 3.887050 1.300738 1.627369 0
M  V30 10 N 3.681829 1.484792 0.246828 0
M  V30 11 C 2.591212 2.245295 -0.202555 0
M  V30 12 C 1.340182 1.476563 -0.501417 0
M  V30 13 C 1.598448 0.189230 -1.256470 0
M  V30 14 C 0.733163 0.082789 -2.435506 0
M  V30 15 N -0.668339 0.084338 -2.255206 0
M  V30 16 C -1.240457 -0.941534 -1.462442 0
M  V30 17 O -0.497258 -1.798528 -0.958385 0
M  V30 18 C -2.696317 -0.976237 -1.249517 0
M  V30 19 N -3.652932 -0.154054 -1.701114 0
M  V30 20 N -4.845705 -0.559507 -1.262693 0
M  V30 21 C -4.706186 -1.670816 -0.502812 0
M  V30 22 C -5.590771 -2.489447 0.184883 0
M  V30 23 C -5.103803 -3.571602 0.879298 0
M  V30 24 C -3.748067 -3.882432 0.921167 0
M  V30 25 Br -3.045766 -5.381197 1.879283 0
M  V30 26 C -2.933674 -3.022435 0.213624 0
M  V30 27 C -3.355360 -1.932207 -0.494893 0
M  V30 28 C 3.044435 0.078047 -1.695369 0
M  V30 29 C 4.023385 0.447885 -0.640083 0
M  V30 30 N 2.578198 -0.655935 2.672535 0
M  V30 31 H -1.680972 -2.626505 6.077672 0
M  V30 32 H -1.610990 -3.502641 4.480503 0
M  V30 33 H -0.256113 -3.598219 5.720554 0
M  V30 34 H 0.136974 0.867273 4.089928 0
M  V30 35 H 4.141282 2.304501 2.079574 0
M  V30 36 H 4.808412 0.703166 1.785437 0
M  V30 37 H 2.292405 3.034270 0.530121 0
M  V30 38 H 2.889609 2.782090 -1.128113 0
M  V30 39 H 0.734953 2.126088 -1.167089 0
M  V30 40 H 0.761510 1.364624 0.413555 0
M  V30 41 H 1.461737 -0.609651 -0.497082 0
M  V30 42 H 1.041048 -0.831779 -3.016326 0
M  V30 43 H 0.975988 0.917069 -3.128807 0
M  V30 44 H -1.335580 0.801543 -2.671327 0
M  V30 45 H -5.776213 -0.108873 -1.457511 0
M  V30 46 H -6.647937 -2.282454 0.177033 0
M  V30 47 H -5.765853 -4.231097 1.426752 0
M  V30 48 H -1.871679 -3.259432 0.241833 0
M  V30 49 H 3.228012 0.777528 -2.548466 0
M  V30 50 H 3.279218 -0.933323 -2.073863 0
M  V30 51 H 4.988359 0.744596 -1.147611 0
M  V30 52 H 4.279852 -0.486587 -0.094246 0
M  V30 END ATOM
M  V30 BEGIN BOND
M  V30 1 1 1 2
M  V30 2 1 2 3
M  V30 3 2 3 4
M  V30 4 1 3 5
M  V30 5 2 5 6
M  V30 6 1 6 7
M  V30 7 1 7 8
M  V30 8 1 8 9
M  V30 9 1 9 10
M  V30 10 1 10 11
M  V30 11 1 11 12
M  V30 12 1 12 13
M  V30 13 1 13 14
M  V30 14 1 14 15
M  V30 15 1 15 16
M  V30 16 2 16 17
M  V30 17 1 16 18
M  V30 18 2 18 19
M  V30 19 1 19 20
M  V30 20 1 20 21
M  V30 21 2 21 22
M  V30 22 1 22 23
M  V30 23 2 23 24
M  V30 24 1 24 25
M  V30 25 1 24 26
M  V30 26 2 26 27
M  V30 27 1 13 28
M  V30 28 1 28 29
M  V30 29 2 8 30
M  V30 30 1 30 5
M  V30 31 1 29 10
M  V30 32 1 27 18
M  V30 33 1 27 21
M  V30 34 1 1 31
M  V30 35 1 1 32
M  V30 36 1 1 33
M  V30 37 1 6 34
M  V30 38 1 9 35
M  V30 39 1 9 36
M  V30 40 1 11 37
M  V30 41 1 11 38
M  V30 42 1 12 39
M  V30 43 1 12 40
M  V30 44 1 13 41
M  V30 45 1 14 42
M  V30 46 1 14 43
M  V30 47 1 15 44
M  V30 48 1 20 45
M  V30 49 1 22 46
M  V30 50 1 23 47
M  V30 51 1 26 48
M  V30 52 1 28 49
M  V30 53 1 28 50
M  V30 54 1 29 51
M  V30 55 1 29 52
M  V30 END BOND
M  V30 END CTAB
M  END
>  <Dataset>  (124) 
ChEMBL_Kinases

>  <Ligand_Instance>  (124) 
nan

>  <PDB_ID>  (124) 
nan

>  <Standardized_SMILES>  (124) 
COC(=O)c1coc(CN2CCC(CNC(=O)c3n[nH]c4ccc(Br)cc34)CC2)n1

>  <Name>  (124) 
nan

>  <Pocket>  (124) 
nan

>  <ATP_Site>  (124) 
nan

>  <Peripheral>  (124) 
nan

>  <Num_H_Atoms_ProtBoundConf>  (124) 
nan

>  <Num_Resolved_Atoms>  (124) 
nan

>  <Num_Not_Resolved_Atoms>  (124) 
nan

$$$$
CHEMBL3736465
     RDKit          3D

  0  0  0  0  0  0  0  0  0  0999 V3000
M  V30 BEGIN CTAB
M  V30 COUNTS 67 71 0 0 0
M  V30 BEGIN ATOM
M  V30 1 O 2.061726 0.935899 -2.472689 0
M  V30 2 C 2.730362 0.922721 -1.383725 0
M  V30 3 N 2.181465 0.139597 -0.346699 0
M  V30 4 C 0.964908 -0.583690 -0.510612 0
M  V30 5 N 0.232542 -0.594905 -1.639978 0
M  V30 6 C -0.830064 -1.387668 -1.391900 0
M  V30 7 C -1.887508 -1.750961 -2.178860 0
M  V30 8 C -2.886319 -2.599703 -1.693684 0
M  V30 9 C -4.084225 -3.070540 -2.439190 0
M  V30 10 N -5.142008 -2.171681 -2.238612 0
M  V30 11 C -5.011718 -0.837403 -2.622974 0
M  V30 12 C -6.142014 -0.052913 -1.940702 0
M  V30 13 C -6.230052 -0.528155 -0.505978 0
M  V30 14 C -6.643894 -1.988473 -0.419526 0
M  V30 15 C -6.386113 -2.644035 -1.767232 0
M  V30 16 C -2.722505 -3.036190 -0.374575 0
M  V30 17 C -1.673696 -2.702649 0.471069 0
M  V30 18 C -0.730630 -1.856064 -0.096768 0
M  V30 19 N 0.393373 -1.346263 0.439629 0
M  V30 20 C 0.865220 -1.584306 1.763104 0
M  V30 21 C 0.162338 -0.938609 2.762813 0
M  V30 22 C 0.490838 -1.063641 4.098930 0
M  V30 23 C 1.574119 -1.874230 4.441333 0
M  V30 24 C 1.927165 -2.008596 5.878018 0
M  V30 25 C 2.923207 -0.953345 6.314916 0
M  V30 26 O 3.166545 -1.190822 7.670370 0
M  V30 27 C 2.286996 -2.526657 3.452364 0
M  V30 28 C 1.936028 -2.385108 2.106112 0
M  V30 29 C 3.968780 1.695630 -1.306021 0
M  V30 30 C 4.323970 2.392702 -2.442638 0
M  V30 31 C 5.496904 3.130851 -2.383645 0
M  V30 32 C 6.255617 3.150002 -1.228150 0
M  V30 33 C 5.864094 2.439174 -0.115592 0
M  V30 34 C 6.761982 2.546947 1.044117 0
M  V30 35 F 6.818367 3.891135 1.422520 0
M  V30 36 F 8.041519 2.179531 0.660625 0
M  V30 37 F 6.350331 1.773395 2.104765 0
M  V30 38 C 4.704760 1.703537 -0.159155 0
M  V30 39 H 2.710225 0.113603 0.552377 0
M  V30 40 H -2.023526 -1.420488 -3.197232 0
M  V30 41 H -3.776153 -3.222413 -3.492862 0
M  V30 42 H -4.350813 -4.064016 -2.045919 0
M  V30 43 H -5.230680 -0.720108 -3.720613 0
M  V30 44 H -4.027420 -0.425105 -2.332937 0
M  V30 45 H -7.103808 -0.244531 -2.421002 0
M  V30 46 H -5.917893 1.032476 -1.894480 0
M  V30 47 H -6.846832 0.132729 0.118958 0
M  V30 48 H -5.181113 -0.415035 -0.102835 0
M  V30 49 H -7.695488 -2.024925 -0.122480 0
M  V30 50 H -6.054484 -2.444392 0.400608 0
M  V30 51 H -6.407535 -3.731857 -1.744352 0
M  V30 52 H -7.223049 -2.309944 -2.436092 0
M  V30 53 H -3.477194 -3.696313 0.037577 0
M  V30 54 H -1.642341 -3.090755 1.463635 0
M  V30 55 H -0.677710 -0.303898 2.559660 0
M  V30 56 H -0.044349 -0.567365 4.907658 0
M  V30 57 H 2.427673 -2.985432 6.034080 0
M  V30 58 H 1.057618 -1.988271 6.546813 0
M  V30 59 H 3.888695 -1.059198 5.788731 0
M  V30 60 H 2.423698 0.010524 6.211947 0
M  V30 61 H 2.336972 -1.274395 8.187421 0
M  V30 62 H 3.128991 -3.157783 3.707636 0
M  V30 63 H 2.459658 -2.872673 1.294639 0
M  V30 64 H 3.747809 2.394016 -3.358722 0
M  V30 65 H 5.794734 3.683958 -3.260659 0
M  V30 66 H 7.156636 3.753124 -1.270954 0
M  V30 67 H 4.446028 1.173737 0.722394 0
M  V30 END ATOM
M  V30 BEGIN BOND
M  V30 1 2 1 2
M  V30 2 1 2 3
M  V30 3 1 3 4
M  V30 4 2 4 5
M  V30 5 1 5 6
M  V30 6 2 6 7
M  V30 7 1 7 8
M  V30 8 1 8 9
M  V30 9 1 9 10
M  V30 10 1 10 11
M  V30 11 1 11 12
M  V30 12 1 12 13
M  V30 13 1 13 14
M  V30 14 1 14 15
M  V30 15 2 8 16
M  V30 16 1 16 17
M  V30 17 2 17 18
M  V30 18 1 18 19
M  V30 19 1 19 20
M  V30 20 2 20 21
M  V30 21 1 21 22
M  V30 22 2 22 23
M  V30 23 1 23 24
M  V30 24 1 24 25
M  V30 25 1 25 26
M  V30 26 1 23 27
M  V30 27 2 27 28
M  V30 28 1 2 29
M  V30 29 2 29 30
M  V30 30 1 30 31
M  V30 31 2 31 32
M  V30 32 1 32 33
M  V30 33 1 33 34
M  V30 34 1 34 35
M  V30 35 1 34 36
M  V30 36 1 34 37
M  V30 37 2 33 38
M  V30 38 1 19 4
M  V30 39 1 28 20
M  V30 40 1 38 29
M  V30 41 1 18 6
M  V30 42 1 15 10
M  V30 43 1 3 39
M  V30 44 1 7 40
M  V30 45 1 9 41
M  V30 46 1 9 42
M  V30 47 1 11 43
M  V30 48 1 11 44
M  V30 49 1 12 45
M  V30 50 1 12 46
M  V30 51 1 13 47
M  V30 52 1 13 48
M  V30 53 1 14 49
M  V30 54 1 14 50
M  V30 55 1 15 51
M  V30 56 1 15 52
M  V30 57 1 16 53
M  V30 58 1 17 54
M  V30 59 1 21 55
M  V30 60 1 22 56
M  V30 61 1 24 57
M  V30 62 1 24 58
M  V30 63 1 25 59
M  V30 64 1 25 60
M  V30 65 1 26 61
M  V30 66 1 27 62
M  V30 67 1 28 63
M  V30 68 1 30 64
M  V30 69 1 31 65
M  V30 70 1 32 66
M  V30 71 1 38 67
M  V30 END BOND
M  V30 END CTAB
M  END
>  <Dataset>  (125) 
ChEMBL_Kinases

>  <Ligand_Instance>  (125) 
nan

>  <PDB_ID>  (125) 
nan

>  <Standardized_SMILES>  (125) 
O=C(Nc1nc2cc(CN3CCCCC3)ccc2n1-c1ccc(CCO)cc1)c1cccc(C(F)(F)F)c1

>  <Name>  (125) 
nan

>  <Pocket>  (125) 
nan

>  <ATP_Site>  (125) 
nan

>  <Peripheral>  (125) 
nan

>  <Num_H_Atoms_ProtBoundConf>  (125) 
nan

>  <Num_Resolved_Atoms>  (125) 
nan

>  <Num_Not_Resolved_Atoms>  (125) 
nan

$$$$
CHEMBL3735563
     RDKit          3D

  0  0  0  0  0  0  0  0  0  0999 V3000
M  V30 BEGIN CTAB
M  V30 COUNTS 63 68 0 0 0
M  V30 BEGIN ATOM
M  V30 1 C 6.484017 -0.920722 5.221951 0
M  V30 2 C 5.467082 -2.012570 5.218029 0
M  V30 3 O 4.721071 -2.110220 4.038748 0
M  V30 4 C 3.919107 -1.143135 3.502410 0
M  V30 5 C 3.269290 -1.452981 2.321294 0
M  V30 6 C 2.437903 -0.508354 1.726062 0
M  V30 7 C 2.216872 0.746374 2.253470 0
M  V30 8 C 1.388360 1.661209 1.640322 0
M  V30 9 C 0.700172 1.315881 0.393768 0
M  V30 10 N 0.841341 1.811557 -0.864323 0
M  V30 11 C -0.019826 1.165183 -1.687008 0
M  V30 12 C -0.251574 1.306664 -3.039904 0
M  V30 13 C -1.209994 0.485484 -3.595424 0
M  V30 14 C -1.901443 -0.431745 -2.832901 0
M  V30 15 N -2.909326 -1.333638 -3.285258 0
M  V30 16 C -3.571681 -2.280526 -2.410008 0
M  V30 17 C -5.077824 -2.150787 -2.484217 0
M  V30 18 N -5.536506 -2.389049 -3.837635 0
M  V30 19 C -5.279884 -3.736658 -4.241039 0
M  V30 20 C -4.932752 -1.380575 -4.682951 0
M  V30 21 C -3.401684 -1.434305 -4.640534 0
M  V30 22 N -1.602153 -0.491837 -1.524554 0
M  V30 23 N -0.692942 0.271317 -0.939919 0
M  V30 24 C -0.284556 0.322798 0.362899 0
M  V30 25 C -0.841829 -0.529798 1.405880 0
M  V30 26 C -0.779563 -1.911180 1.441054 0
M  V30 27 C -1.329365 -2.633176 2.458519 0
M  V30 28 N -1.952686 -1.982289 3.461117 0
M  V30 29 C -2.036591 -0.621538 3.465166 0
M  V30 30 C -1.483120 0.115716 2.439828 0
M  V30 31 C 1.228462 2.893625 2.239578 0
M  V30 32 C 1.881571 3.207823 3.427402 0
M  V30 33 C 2.712238 2.254855 4.018662 0
M  V30 34 C 2.877390 1.028933 3.431508 0
M  V30 35 C 3.720905 0.114056 4.065326 0
M  V30 36 H 6.314122 -0.252762 6.106678 0
M  V30 37 H 7.528937 -1.300318 5.324891 0
M  V30 38 H 6.478859 -0.257841 4.348538 0
M  V30 39 H 4.747469 -1.874126 6.067586 0
M  V30 40 H 6.001952 -2.964816 5.397990 0
M  V30 41 H 3.400924 -2.418591 1.858084 0
M  V30 42 H 1.962289 -0.811985 0.801955 0
M  V30 43 H 0.280791 2.020004 -3.651569 0
M  V30 44 H -1.456720 0.525314 -4.639123 0
M  V30 45 H -3.192207 -2.131650 -1.385279 0
M  V30 46 H -3.309400 -3.301037 -2.749706 0
M  V30 47 H -5.576942 -2.797027 -1.736127 0
M  V30 48 H -5.290713 -1.059175 -2.285308 0
M  V30 49 H -6.214612 -4.258681 -4.599366 0
M  V30 50 H -4.559037 -3.761988 -5.060823 0
M  V30 51 H -4.917838 -4.376209 -3.387991 0
M  V30 52 H -5.301553 -1.427146 -5.711756 0
M  V30 53 H -5.267224 -0.399562 -4.257346 0
M  V30 54 H -3.066881 -2.380503 -5.113619 0
M  V30 55 H -3.042166 -0.570777 -5.259880 0
M  V30 56 H -0.271249 -2.398581 0.618980 0
M  V30 57 H -1.289378 -3.717006 2.501947 0
M  V30 58 H -2.555706 -0.196578 4.311242 0
M  V30 59 H -1.567045 1.197303 2.472195 0
M  V30 60 H 0.571715 3.639856 1.766613 0
M  V30 61 H 1.747908 4.179386 3.888856 0
M  V30 62 H 3.182334 2.560365 4.927921 0
M  V30 63 H 4.235424 0.355170 4.997392 0
M  V30 END ATOM
M  V30 BEGIN BOND
M  V30 1 1 1 2
M  V30 2 1 2 3
M  V30 3 1 3 4
M  V30 4 2 4 5
M  V30 5 1 5 6
M  V30 6 2 6 7
M  V30 7 1 7 8
M  V30 8 1 8 9
M  V30 9 1 9 10
M  V30 10 2 10 11
M  V30 11 1 11 12
M  V30 12 2 12 13
M  V30 13 1 13 14
M  V30 14 1 14 15
M  V30 15 1 15 16
M  V30 16 1 16 17
M  V30 17 1 17 18
M  V30 18 1 18 19
M  V30 19 1 18 20
M  V30 20 1 20 21
M  V30 21 2 14 22
M  V30 22 1 22 23
M  V30 23 1 23 24
M  V30 24 1 24 25
M  V30 25 2 25 26
M  V30 26 1 26 27
M  V30 27 2 27 28
M  V30 28 1 28 29
M  V30 29 2 29 30
M  V30 30 2 8 31
M  V30 31 1 31 32
M  V30 32 2 32 33
M  V30 33 1 33 34
M  V30 34 2 34 35
M  V30 35 1 35 4
M  V30 36 1 34 7
M  V30 37 2 24 9
M  V30 38 1 30 25
M  V30 39 1 23 11
M  V30 40 1 21 15
M  V30 41 1 1 36
M  V30 42 1 1 37
M  V30 43 1 1 38
M  V30 44 1 2 39
M  V30 45 1 2 40
M  V30 46 1 5 41
M  V30 47 1 6 42
M  V30 48 1 12 43
M  V30 49 1 13 44
M  V30 50 1 16 45
M  V30 51 1 16 46
M  V30 52 1 17 47
M  V30 53 1 17 48
M  V30 54 1 19 49
M  V30 55 1 19 50
M  V30 56 1 19 51
M  V30 57 1 20 52
M  V30 58 1 20 53
M  V30 59 1 21 54
M  V30 60 1 21 55
M  V30 61 1 26 56
M  V30 62 1 27 57
M  V30 63 1 29 58
M  V30 64 1 30 59
M  V30 65 1 31 60
M  V30 66 1 32 61
M  V30 67 1 33 62
M  V30 68 1 35 63
M  V30 END BOND
M  V30 END CTAB
M  END
>  <Dataset>  (126) 
ChEMBL_Kinases

>  <Ligand_Instance>  (126) 
nan

>  <PDB_ID>  (126) 
nan

>  <Standardized_SMILES>  (126) 
CCOc1ccc2c(-c3nc4ccc(N5CCN(C)CC5)nn4c3-c3ccncc3)cccc2c1

>  <Name>  (126) 
nan

>  <Pocket>  (126) 
nan

>  <ATP_Site>  (126) 
nan

>  <Peripheral>  (126) 
nan

>  <Num_H_Atoms_ProtBoundConf>  (126) 
nan

>  <Num_Resolved_Atoms>  (126) 
nan

>  <Num_Not_Resolved_Atoms>  (126) 
nan

$$$$
CHEMBL3736458
     RDKit          3D

  0  0  0  0  0  0  0  0  0  0999 V3000
M  V30 BEGIN CTAB
M  V30 COUNTS 63 65 0 0 0
M  V30 BEGIN ATOM
M  V30 1 C 7.057846 -1.558929 3.291137 0
M  V30 2 C 5.978352 -1.990894 4.240693 0
M  V30 3 C 4.782581 -1.060086 4.199077 0
M  V30 4 C 4.190601 -1.021028 2.833226 0
M  V30 5 O 4.806729 -1.753822 2.020878 0
M  V30 6 N 3.052995 -0.214408 2.568973 0
M  V30 7 C 2.499324 -0.195299 1.233123 0
M  V30 8 C 3.493706 0.296415 0.191750 0
M  V30 9 C 2.783183 0.264261 -1.142625 0
M  V30 10 N 1.624971 1.095276 -1.147089 0
M  V30 11 C 0.976670 1.018029 -2.446350 0
M  V30 12 C -0.241426 1.912088 -2.485786 0
M  V30 13 C -0.628805 2.385039 -1.099621 0
M  V30 14 C -1.170032 1.254589 -0.251282 0
M  V30 15 N -2.355477 0.654526 -0.842023 0
M  V30 16 C -3.055824 -0.425322 -0.247967 0
M  V30 17 O -2.651884 -0.911705 0.850409 0
M  V30 18 C -4.229792 -0.916898 -0.964509 0
M  V30 19 N -4.766684 -0.481103 -2.132118 0
M  V30 20 N -5.835221 -1.213643 -2.425346 0
M  V30 21 C -6.040189 -2.154627 -1.465657 0
M  V30 22 C -6.991553 -3.138828 -1.307012 0
M  V30 23 C -6.961184 -3.977525 -0.209781 0
M  V30 24 C -5.954068 -3.799760 0.716574 0
M  V30 25 O -5.771349 -4.547204 1.871388 0
M  V30 26 C -6.691449 -5.589440 2.138111 0
M  V30 27 C -5.005906 -2.816984 0.556332 0
M  V30 28 C -5.017589 -1.965191 -0.535863 0
M  V30 29 C 0.494744 3.050732 -0.375854 0
M  V30 30 C 1.832701 2.477618 -0.863562 0
M  V30 31 H 8.065444 -1.622322 3.763567 0
M  V30 32 H 6.905420 -0.505172 2.993132 0
M  V30 33 H 7.117670 -2.255116 2.414385 0
M  V30 34 H 6.390745 -1.967798 5.267289 0
M  V30 35 H 5.628546 -3.021852 4.025701 0
M  V30 36 H 5.139159 -0.042456 4.445547 0
M  V30 37 H 4.042062 -1.357099 4.966795 0
M  V30 38 H 2.670318 0.336642 3.383961 0
M  V30 39 H 2.163450 -1.202279 0.916451 0
M  V30 40 H 1.629981 0.480689 1.269224 0
M  V30 41 H 3.957348 1.255514 0.437921 0
M  V30 42 H 4.292383 -0.486855 0.133701 0
M  V30 43 H 3.478475 0.449106 -1.987564 0
M  V30 44 H 2.432100 -0.795178 -1.267921 0
M  V30 45 H 1.704659 1.353166 -3.211666 0
M  V30 46 H 0.767996 -0.035286 -2.650126 0
M  V30 47 H -1.104906 1.466898 -2.975156 0
M  V30 48 H 0.028118 2.827611 -3.049832 0
M  V30 49 H -1.448190 3.124090 -1.231938 0
M  V30 50 H -0.412441 0.482007 -0.048142 0
M  V30 51 H -1.444901 1.693214 0.727328 0
M  V30 52 H -2.681904 1.060257 -1.748401 0
M  V30 53 H -6.454028 -1.120276 -3.251008 0
M  V30 54 H -7.779875 -3.276442 -2.033118 0
M  V30 55 H -7.670314 -4.767963 -0.018505 0
M  V30 56 H -6.802850 -6.167859 1.184281 0
M  V30 57 H -6.314460 -6.293790 2.906336 0
M  V30 58 H -7.695278 -5.199928 2.389765 0
M  V30 59 H -4.187746 -2.625981 1.250103 0
M  V30 60 H 0.515966 4.150761 -0.526752 0
M  V30 61 H 0.462024 2.814399 0.724787 0
M  V30 62 H 2.623858 2.655964 -0.140365 0
M  V30 63 H 2.119737 2.984889 -1.808713 0
M  V30 END ATOM
M  V30 BEGIN BOND
M  V30 1 1 1 2
M  V30 2 1 2 3
M  V30 3 1 3 4
M  V30 4 2 4 5
M  V30 5 1 4 6
M  V30 6 1 6 7
M  V30 7 1 7 8
M  V30 8 1 8 9
M  V30 9 1 9 10
M  V30 10 1 10 11
M  V30 11 1 11 12
M  V30 12 1 12 13
M  V30 13 1 13 14
M  V30 14 1 14 15
M  V30 15 1 15 16
M  V30 16 2 16 17
M  V30 17 1 16 18
M  V30 18 2 18 19
M  V30 19 1 19 20
M  V30 20 1 20 21
M  V30 21 2 21 22
M  V30 22 1 22 23
M  V30 23 2 23 24
M  V30 24 1 24 25
M  V30 25 1 25 26
M  V30 26 1 24 27
M  V30 27 2 27 28
M  V30 28 1 13 29
M  V30 29 1 29 30
M  V30 30 1 30 10
M  V30 31 1 28 18
M  V30 32 1 28 21
M  V30 33 1 1 31
M  V30 34 1 1 32
M  V30 35 1 1 33
M  V30 36 1 2 34
M  V30 37 1 2 35
M  V30 38 1 3 36
M  V30 39 1 3 37
M  V30 40 1 6 38
M  V30 41 1 7 39
M  V30 42 1 7 40
M  V30 43 1 8 41
M  V30 44 1 8 42
M  V30 45 1 9 43
M  V30 46 1 9 44
M  V30 47 1 11 45
M  V30 48 1 11 46
M  V30 49 1 12 47
M  V30 50 1 12 48
M  V30 51 1 13 49
M  V30 52 1 14 50
M  V30 53 1 14 51
M  V30 54 1 15 52
M  V30 55 1 20 53
M  V30 56 1 22 54
M  V30 57 1 23 55
M  V30 58 1 26 56
M  V30 59 1 26 57
M  V30 60 1 26 58
M  V30 61 1 27 59
M  V30 62 1 29 60
M  V30 63 1 29 61
M  V30 64 1 30 62
M  V30 65 1 30 63
M  V30 END BOND
M  V30 END CTAB
M  END
>  <Dataset>  (127) 
ChEMBL_Kinases

>  <Ligand_Instance>  (127) 
nan

>  <PDB_ID>  (127) 
nan

>  <Standardized_SMILES>  (127) 
CCCC(=O)NCCCN1CCC(CNC(=O)c2n[nH]c3ccc(OC)cc23)CC1

>  <Name>  (127) 
nan

>  <Pocket>  (127) 
nan

>  <ATP_Site>  (127) 
nan

>  <Peripheral>  (127) 
nan

>  <Num_H_Atoms_ProtBoundConf>  (127) 
nan

>  <Num_Resolved_Atoms>  (127) 
nan

>  <Num_Not_Resolved_Atoms>  (127) 
nan

$$$$
CHEMBL3736455
     RDKit          3D

  0  0  0  0  0  0  0  0  0  0999 V3000
M  V30 BEGIN CTAB
M  V30 COUNTS 56 59 0 0 0
M  V30 BEGIN ATOM
M  V30 1 C 3.626883 -2.894059 3.598513 0
M  V30 2 O 4.969564 -2.755664 3.152582 0
M  V30 3 C 5.420035 -1.630153 2.449684 0
M  V30 4 C 6.749693 -1.576121 2.051298 0
M  V30 5 N 7.176696 -0.498092 1.379063 0
M  V30 6 C 6.382715 0.542246 1.066554 0
M  V30 7 C 5.051688 0.542535 1.437486 0
M  V30 8 C 4.088089 1.618589 1.152450 0
M  V30 9 C 4.390627 2.961743 1.063805 0
M  V30 10 C 3.406881 3.888653 0.791476 0
M  V30 11 C 2.074776 3.501690 0.596763 0
M  V30 12 N 0.963376 4.218634 0.323967 0
M  V30 13 N -0.039073 3.348208 0.238699 0
M  V30 14 C 0.394737 2.111197 0.446539 0
M  V30 15 C -0.314491 0.818453 0.456783 0
M  V30 16 O 0.253344 -0.304942 0.675102 0
M  V30 17 N -1.703281 0.645594 0.229134 0
M  V30 18 C -1.999355 -0.747549 0.321808 0
M  V30 19 C -3.446287 -1.080441 0.101668 0
M  V30 20 C -3.936130 -0.654471 -1.260621 0
M  V30 21 C -5.342216 -1.162271 -1.480348 0
M  V30 22 N -5.443522 -2.598511 -1.313108 0
M  V30 23 C -4.652468 -3.297688 -2.302350 0
M  V30 24 C -4.760045 -4.759938 -2.243808 0
M  V30 25 O -5.560460 -5.315138 -1.421421 0
M  V30 26 O -4.804552 -6.136723 -2.248515 0
M  V30 27 C -5.089466 -2.919495 0.053343 0
M  V30 28 C -3.655782 -2.588652 0.273836 0
M  V30 29 C 1.755545 2.162249 0.682068 0
M  V30 30 C 2.767378 1.256210 0.957083 0
M  V30 31 C 4.600741 -0.576147 2.137260 0
M  V30 32 H 3.456920 -2.181725 4.453425 0
M  V30 33 H 3.521867 -3.910654 3.990565 0
M  V30 34 H 2.904356 -2.616751 2.808740 0
M  V30 35 H 7.410480 -2.408146 2.294651 0
M  V30 36 H 6.695117 1.427540 0.525915 0
M  V30 37 H 5.432508 3.222595 1.220419 0
M  V30 38 H 3.678800 4.953671 0.726900 0
M  V30 39 H 0.904764 5.261708 0.203143 0
M  V30 40 H -2.273493 1.523256 0.036627 0
M  V30 41 H -1.418043 -1.381414 -0.363485 0
M  V30 42 H -1.742906 -1.078225 1.358791 0
M  V30 43 H -4.099385 -0.598163 0.857539 0
M  V30 44 H -4.039779 0.469006 -1.176553 0
M  V30 45 H -3.255795 -0.921967 -2.083553 0
M  V30 46 H -5.978459 -0.703479 -0.688803 0
M  V30 47 H -5.741319 -0.840468 -2.449149 0
M  V30 48 H -3.627802 -2.924151 -2.297300 0
M  V30 49 H -5.087391 -3.001271 -3.300584 0
M  V30 50 H -4.177345 -6.690348 -2.856974 0
M  V30 51 H -5.690604 -2.208108 0.684332 0
M  V30 52 H -5.369874 -3.912128 0.370434 0
M  V30 53 H -3.337449 -2.821284 1.319538 0
M  V30 54 H -2.945029 -3.089818 -0.389688 0
M  V30 55 H 2.502151 0.209726 1.020827 0
M  V30 56 H 3.575573 -0.705213 2.490298 0
M  V30 END ATOM
M  V30 BEGIN BOND
M  V30 1 1 1 2
M  V30 2 1 2 3
M  V30 3 2 3 4
M  V30 4 1 4 5
M  V30 5 2 5 6
M  V30 6 1 6 7
M  V30 7 1 7 8
M  V30 8 2 8 9
M  V30 9 1 9 10
M  V30 10 2 10 11
M  V30 11 1 11 12
M  V30 12 1 12 13
M  V30 13 2 13 14
M  V30 14 1 14 15
M  V30 15 2 15 16
M  V30 16 1 15 17
M  V30 17 1 17 18
M  V30 18 1 18 19
M  V30 19 1 19 20
M  V30 20 1 20 21
M  V30 21 1 21 22
M  V30 22 1 22 23
M  V30 23 1 23 24
M  V30 24 2 24 25
M  V30 25 1 24 26
M  V30 26 1 22 27
M  V30 27 1 27 28
M  V30 28 1 14 29
M  V30 29 2 29 30
M  V30 30 2 7 31
M  V30 31 1 31 3
M  V30 32 1 30 8
M  V30 33 1 29 11
M  V30 34 1 28 19
M  V30 35 1 1 32
M  V30 36 1 1 33
M  V30 37 1 1 34
M  V30 38 1 4 35
M  V30 39 1 6 36
M  V30 40 1 9 37
M  V30 41 1 10 38
M  V30 42 1 12 39
M  V30 43 1 17 40
M  V30 44 1 18 41
M  V30 45 1 18 42
M  V30 46 1 19 43
M  V30 47 1 20 44
M  V30 48 1 20 45
M  V30 49 1 21 46
M  V30 50 1 21 47
M  V30 51 1 23 48
M  V30 52 1 23 49
M  V30 53 1 26 50
M  V30 54 1 27 51
M  V30 55 1 27 52
M  V30 56 1 28 53
M  V30 57 1 28 54
M  V30 58 1 30 55
M  V30 59 1 31 56
M  V30 END BOND
M  V30 END CTAB
M  END
>  <Dataset>  (128) 
ChEMBL_Kinases

>  <Ligand_Instance>  (128) 
nan

>  <PDB_ID>  (128) 
nan

>  <Standardized_SMILES>  (128) 
COc1cncc(-c2ccc3[nH]nc(C(=O)NCC4CCN(CC(=O)O)CC4)c3c2)c1

>  <Name>  (128) 
nan

>  <Pocket>  (128) 
nan

>  <ATP_Site>  (128) 
nan

>  <Peripheral>  (128) 
nan

>  <Num_H_Atoms_ProtBoundConf>  (128) 
nan

>  <Num_Resolved_Atoms>  (128) 
nan

>  <Num_Not_Resolved_Atoms>  (128) 
nan

$$$$
CHEMBL3736449
     RDKit          3D

  0  0  0  0  0  0  0  0  0  0999 V3000
M  V30 BEGIN CTAB
M  V30 COUNTS 65 69 0 0 0
M  V30 BEGIN ATOM
M  V30 1 C 3.885289 -3.590936 3.721603 0
M  V30 2 C 4.021285 -2.434203 2.800317 0
M  V30 3 C 5.154966 -2.190014 2.018922 0
M  V30 4 C 5.152035 -1.079511 1.205005 0
M  V30 5 C 4.078734 -0.210257 1.136867 0
M  V30 6 C 4.009845 0.982673 0.297794 0
M  V30 7 C 5.184543 1.692291 0.024950 0
M  V30 8 C 5.041479 2.806829 -0.773689 0
M  V30 9 C 3.848385 3.240506 -1.296388 0
M  V30 10 N 3.362419 4.219006 -2.062724 0
M  V30 11 N 2.037847 4.119164 -2.239200 0
M  V30 12 C 1.599428 3.025415 -1.564715 0
M  V30 13 C 0.186848 2.751739 -1.635454 0
M  V30 14 O -0.552069 3.562935 -2.298092 0
M  V30 15 N -0.677329 1.778228 -1.150834 0
M  V30 16 C -2.048826 2.028477 -1.554268 0
M  V30 17 C -2.879415 0.925643 -0.982608 0
M  V30 18 C -2.425587 -0.414425 -1.506399 0
M  V30 19 C -3.043464 -1.456491 -0.603681 0
M  V30 20 N -4.211572 -1.025477 0.020944 0
M  V30 21 C -4.356094 -1.064049 1.412329 0
M  V30 22 C -4.454073 -2.382979 2.092763 0
M  V30 23 C -3.326933 -3.297760 1.934883 0
M  V30 24 C -3.245451 -4.241527 0.926956 0
M  V30 25 C -2.208965 -5.146085 0.707630 0
M  V30 26 C -1.165824 -5.070067 1.606334 0
M  V30 27 C -1.175570 -4.158373 2.633312 0
M  V30 28 C -2.239885 -3.279727 2.801780 0
M  V30 29 C -5.079630 -0.108011 -0.602311 0
M  V30 30 C -4.341042 1.022537 -1.331516 0
M  V30 31 C 2.718384 2.504834 -0.997513 0
M  V30 32 C 2.796845 1.390059 -0.210649 0
M  V30 33 C 2.984915 -0.489522 1.922957 0
M  V30 34 N 2.966996 -1.575438 2.729750 0
M  V30 35 H 4.081011 -3.226929 4.740294 0
M  V30 36 H 4.710729 -4.309079 3.473203 0
M  V30 37 H 2.897785 -4.085885 3.626339 0
M  V30 38 H 5.971203 -2.868086 2.082910 0
M  V30 39 H 5.990876 -0.846556 0.588372 0
M  V30 40 H 6.147832 1.389199 0.413311 0
M  V30 41 H 5.920962 3.405333 -1.024690 0
M  V30 42 H 3.953105 4.968306 -2.471270 0
M  V30 43 H -0.201217 1.049511 -0.592381 0
M  V30 44 H -2.177281 2.069245 -2.643532 0
M  V30 45 H -2.348653 3.005018 -1.138130 0
M  V30 46 H -2.774183 0.982508 0.118289 0
M  V30 47 H -2.834351 -0.488740 -2.546789 0
M  V30 48 H -1.319337 -0.474370 -1.531944 0
M  V30 49 H -3.142425 -2.360865 -1.246809 0
M  V30 50 H -2.264808 -1.625222 0.195816 0
M  V30 51 H -5.314692 -0.516388 1.662698 0
M  V30 52 H -3.576333 -0.399648 1.893294 0
M  V30 53 H -5.366693 -2.943964 1.785091 0
M  V30 54 H -4.661709 -2.145778 3.181138 0
M  V30 55 H -4.100142 -4.266485 0.232199 0
M  V30 56 H -2.310893 -5.822688 -0.140784 0
M  V30 57 H -0.358381 -5.773691 1.436344 0
M  V30 58 H -0.322596 -4.167599 3.287032 0
M  V30 59 H -2.190704 -2.575976 3.639637 0
M  V30 60 H -5.653607 0.439135 0.203914 0
M  V30 61 H -5.876295 -0.557229 -1.226173 0
M  V30 62 H -4.770332 2.005399 -1.146079 0
M  V30 63 H -4.422140 0.756136 -2.405529 0
M  V30 64 H 1.944016 0.810002 0.031923 0
M  V30 65 H 2.089676 0.132093 1.942044 0
M  V30 END ATOM
M  V30 BEGIN BOND
M  V30 1 1 1 2
M  V30 2 2 2 3
M  V30 3 1 3 4
M  V30 4 2 4 5
M  V30 5 1 5 6
M  V30 6 2 6 7
M  V30 7 1 7 8
M  V30 8 2 8 9
M  V30 9 1 9 10
M  V30 10 1 10 11
M  V30 11 2 11 12
M  V30 12 1 12 13
M  V30 13 2 13 14
M  V30 14 1 13 15
M  V30 15 1 15 16
M  V30 16 1 16 17
M  V30 17 1 17 18
M  V30 18 1 18 19
M  V30 19 1 19 20
M  V30 20 1 20 21
M  V30 21 1 21 22
M  V30 22 1 22 23
M  V30 23 2 23 24
M  V30 24 1 24 25
M  V30 25 2 25 26
M  V30 26 1 26 27
M  V30 27 2 27 28
M  V30 28 1 20 29
M  V30 29 1 29 30
M  V30 30 1 12 31
M  V30 31 2 31 32
M  V30 32 1 5 33
M  V30 33 2 33 34
M  V30 34 1 34 2
M  V30 35 1 32 6
M  V30 36 1 31 9
M  V30 37 1 30 17
M  V30 38 1 28 23
M  V30 39 1 1 35
M  V30 40 1 1 36
M  V30 41 1 1 37
M  V30 42 1 3 38
M  V30 43 1 4 39
M  V30 44 1 7 40
M  V30 45 1 8 41
M  V30 46 1 10 42
M  V30 47 1 15 43
M  V30 48 1 16 44
M  V30 49 1 16 45
M  V30 50 1 17 46
M  V30 51 1 18 47
M  V30 52 1 18 48
M  V30 53 1 19 49
M  V30 54 1 19 50
M  V30 55 1 21 51
M  V30 56 1 21 52
M  V30 57 1 22 53
M  V30 58 1 22 54
M  V30 59 1 24 55
M  V30 60 1 25 56
M  V30 61 1 26 57
M  V30 62 1 27 58
M  V30 63 1 28 59
M  V30 64 1 29 60
M  V30 65 1 29 61
M  V30 66 1 30 62
M  V30 67 1 30 63
M  V30 68 1 32 64
M  V30 69 1 33 65
M  V30 END BOND
M  V30 END CTAB
M  END
>  <Dataset>  (129) 
ChEMBL_Kinases

>  <Ligand_Instance>  (129) 
nan

>  <PDB_ID>  (129) 
nan

>  <Standardized_SMILES>  (129) 
Cc1ccc(-c2ccc3[nH]nc(C(=O)NCC4CCN(CCc5ccccc5)CC4)c3c2)cn1

>  <Name>  (129) 
nan

>  <Pocket>  (129) 
nan

>  <ATP_Site>  (129) 
nan

>  <Peripheral>  (129) 
nan

>  <Num_H_Atoms_ProtBoundConf>  (129) 
nan

>  <Num_Resolved_Atoms>  (129) 
nan

>  <Num_Not_Resolved_Atoms>  (129) 
nan

$$$$
CHEMBL3736436
     RDKit          3D

  0  0  0  0  0  0  0  0  0  0999 V3000
M  V30 BEGIN CTAB
M  V30 COUNTS 33 35 0 0 0
M  V30 BEGIN ATOM
M  V30 1 C 1.782630 -2.767490 3.470108 0
M  V30 2 S 1.864262 -4.094669 2.325196 0
M  V30 3 O 0.521550 -4.800770 2.293928 0
M  V30 4 O 2.921769 -5.083039 2.776573 0
M  V30 5 N 2.230296 -3.601120 0.713811 0
M  V30 6 C 1.402945 -2.733067 -0.047059 0
M  V30 7 C 1.157359 -3.127966 -1.344457 0
M  V30 8 C 0.374441 -2.428542 -2.237699 0
M  V30 9 C -0.227673 -1.231184 -1.830234 0
M  V30 10 C 0.026327 -0.847046 -0.529571 0
M  V30 11 C 0.810027 -1.554550 0.350293 0
M  V30 12 C -0.680903 0.406098 -0.289518 0
M  V30 13 C -0.739476 1.194171 0.767729 0
M  V30 14 C -1.454922 2.437345 0.987716 0
M  V30 15 C -0.801065 3.540797 1.538960 0
M  V30 16 N -1.704306 4.549252 1.659293 0
M  V30 17 C -2.894938 4.120420 1.206502 0
M  V30 18 N -2.717194 2.863460 0.814594 0
M  V30 19 C -1.368510 0.753460 -1.506055 0
M  V30 20 O -2.084564 1.725889 -1.760545 0
M  V30 21 N -1.076566 -0.268369 -2.441994 0
M  V30 22 H 0.807672 -2.275464 3.506433 0
M  V30 23 H 1.985507 -3.131965 4.518328 0
M  V30 24 H 2.546974 -1.974467 3.249878 0
M  V30 25 H 3.108047 -3.943894 0.238906 0
M  V30 26 H 1.559534 -4.037297 -1.801642 0
M  V30 27 H 0.175453 -2.729617 -3.257307 0
M  V30 28 H 1.004859 -1.250042 1.358919 0
M  V30 29 H -0.137439 0.830422 1.620038 0
M  V30 30 H 0.212811 3.758893 1.872940 0
M  V30 31 H -3.760729 4.765238 1.211676 0
M  V30 32 H -3.476951 2.266037 0.427549 0
M  V30 33 H -1.426244 -0.312996 -3.428181 0
M  V30 END ATOM
M  V30 BEGIN BOND
M  V30 1 1 1 2
M  V30 2 2 2 3
M  V30 3 2 2 4
M  V30 4 1 2 5
M  V30 5 1 5 6
M  V30 6 2 6 7
M  V30 7 1 7 8
M  V30 8 2 8 9
M  V30 9 1 9 10
M  V30 10 2 10 11
M  V30 11 1 10 12
M  V30 12 2 12 13
M  V30 13 1 13 14
M  V30 14 2 14 15
M  V30 15 1 15 16
M  V30 16 2 16 17
M  V30 17 1 17 18
M  V30 18 1 12 19
M  V30 19 2 19 20
M  V30 20 1 19 21
M  V30 21 1 11 6
M  V30 22 1 18 14
M  V30 23 1 21 9
M  V30 24 1 1 22
M  V30 25 1 1 23
M  V30 26 1 1 24
M  V30 27 1 5 25
M  V30 28 1 7 26
M  V30 29 1 8 27
M  V30 30 1 11 28
M  V30 31 1 13 29
M  V30 32 1 15 30
M  V30 33 1 17 31
M  V30 34 1 18 32
M  V30 35 1 21 33
M  V30 END BOND
M  V30 END CTAB
M  END
>  <Dataset>  (130) 
ChEMBL_Kinases

>  <Ligand_Instance>  (130) 
nan

>  <PDB_ID>  (130) 
nan

>  <Standardized_SMILES>  (130) 
CS(=O)(=O)Nc1ccc2c(c1)/C(=C/c1cnc[nH]1)C(=O)N2

>  <Name>  (130) 
nan

>  <Pocket>  (130) 
nan

>  <ATP_Site>  (130) 
nan

>  <Peripheral>  (130) 
nan

>  <Num_H_Atoms_ProtBoundConf>  (130) 
nan

>  <Num_Resolved_Atoms>  (130) 
nan

>  <Num_Not_Resolved_Atoms>  (130) 
nan

$$$$
CHEMBL3736418
     RDKit          3D

  0  0  0  0  0  0  0  0  0  0999 V3000
M  V30 BEGIN CTAB
M  V30 COUNTS 64 67 0 0 0
M  V30 BEGIN ATOM
M  V30 1 C 5.599396 -2.362124 2.283211 0
M  V30 2 O 4.568596 -1.584887 1.708111 0
M  V30 3 C 4.165545 -0.435570 2.374156 0
M  V30 4 C 4.725753 -0.024332 3.564723 0
M  V30 5 C 4.285702 1.139904 4.196507 0
M  V30 6 C 3.275732 1.885215 3.616455 0
M  V30 7 N 2.638794 3.026365 3.957945 0
M  V30 8 N 1.718485 3.340575 3.045192 0
M  V30 9 C 1.717138 2.404351 2.056850 0
M  V30 10 C 0.856565 2.378323 0.867299 0
M  V30 11 O 1.002949 1.426182 0.057475 0
M  V30 12 N -0.089214 3.425485 0.698466 0
M  V30 13 C -0.936870 3.401699 -0.470564 0
M  V30 14 C -1.789024 2.166779 -0.544584 0
M  V30 15 C -2.722228 2.010872 0.645713 0
M  V30 16 C -3.238845 0.590350 0.574528 0
M  V30 17 N -3.149257 0.084056 -0.806506 0
M  V30 18 C -3.936351 -1.109484 -0.858549 0
M  V30 19 C -3.956909 -1.781685 -2.181044 0
M  V30 20 C -2.673026 -2.216418 -2.775390 0
M  V30 21 N -1.871371 -3.159231 -2.071061 0
M  V30 22 C -1.151327 -3.261593 -0.859445 0
M  V30 23 O -1.177950 -2.233783 -0.140300 0
M  V30 24 C -0.409758 -4.421896 -0.398627 0
M  V30 25 C -0.273074 -5.627502 -1.050639 0
M  V30 26 C 0.445739 -6.687190 -0.556486 0
M  V30 27 C 1.081664 -6.574270 0.660972 0
M  V30 28 C 0.960264 -5.390097 1.324405 0
M  V30 29 C 0.237478 -4.346047 0.811588 0
M  V30 30 C -3.715186 1.135586 -1.628761 0
M  V30 31 C -2.697419 2.277908 -1.751456 0
M  V30 32 C 2.690450 1.491732 2.410681 0
M  V30 33 C 3.156648 0.335291 1.822469 0
M  V30 34 H 6.590677 -1.864884 2.139330 0
M  V30 35 H 5.443439 -2.552287 3.369192 0
M  V30 36 H 5.628499 -3.369109 1.792773 0
M  V30 37 H 5.517139 -0.612493 4.014961 0
M  V30 38 H 4.737330 1.452739 5.136638 0
M  V30 39 H 2.821605 3.600045 4.809523 0
M  V30 40 H -0.132405 4.183198 1.441654 0
M  V30 41 H -0.357695 3.456097 -1.390570 0
M  V30 42 H -1.628873 4.273602 -0.387966 0
M  V30 43 H -1.202291 1.250010 -0.692120 0
M  V30 44 H -2.246695 2.187839 1.611197 0
M  V30 45 H -3.576397 2.736858 0.510477 0
M  V30 46 H -4.314643 0.586085 0.824728 0
M  V30 47 H -2.699375 -0.082556 1.270315 0
M  V30 48 H -3.765374 -1.845459 -0.059583 0
M  V30 49 H -5.007483 -0.742619 -0.651012 0
M  V30 50 H -4.631256 -2.702008 -2.165057 0
M  V30 51 H -4.501421 -1.129425 -2.936101 0
M  V30 52 H -2.801168 -2.600898 -3.828787 0
M  V30 53 H -2.000100 -1.306167 -2.915619 0
M  V30 54 H -1.749916 -4.099419 -2.575920 0
M  V30 55 H -0.755074 -5.747879 -1.999177 0
M  V30 56 H 0.497493 -7.610846 -1.150593 0
M  V30 57 H 1.652324 -7.394673 1.068635 0
M  V30 58 H 1.446727 -5.278388 2.274622 0
M  V30 59 H 0.188889 -3.428545 1.406774 0
M  V30 60 H -4.678408 1.502944 -1.180277 0
M  V30 61 H -3.850384 0.766054 -2.658781 0
M  V30 62 H -2.139940 2.233078 -2.700807 0
M  V30 63 H -3.316246 3.220780 -1.713219 0
M  V30 64 H 2.702400 0.028383 0.885150 0
M  V30 END ATOM
M  V30 BEGIN BOND
M  V30 1 1 1 2
M  V30 2 1 2 3
M  V30 3 2 3 4
M  V30 4 1 4 5
M  V30 5 2 5 6
M  V30 6 1 6 7
M  V30 7 1 7 8
M  V30 8 2 8 9
M  V30 9 1 9 10
M  V30 10 2 10 11
M  V30 11 1 10 12
M  V30 12 1 12 13
M  V30 13 1 13 14
M  V30 14 1 14 15
M  V30 15 1 15 16
M  V30 16 1 16 17
M  V30 17 1 17 18
M  V30 18 1 18 19
M  V30 19 1 19 20
M  V30 20 1 20 21
M  V30 21 1 21 22
M  V30 22 2 22 23
M  V30 23 1 22 24
M  V30 24 2 24 25
M  V30 25 1 25 26
M  V30 26 2 26 27
M  V30 27 1 27 28
M  V30 28 2 28 29
M  V30 29 1 17 30
M  V30 30 1 30 31
M  V30 31 1 9 32
M  V30 32 2 32 33
M  V30 33 1 33 3
M  V30 34 1 32 6
M  V30 35 1 31 14
M  V30 36 1 29 24
M  V30 37 1 1 34
M  V30 38 1 1 35
M  V30 39 1 1 36
M  V30 40 1 4 37
M  V30 41 1 5 38
M  V30 42 1 7 39
M  V30 43 1 12 40
M  V30 44 1 13 41
M  V30 45 1 13 42
M  V30 46 1 14 43
M  V30 47 1 15 44
M  V30 48 1 15 45
M  V30 49 1 16 46
M  V30 50 1 16 47
M  V30 51 1 18 48
M  V30 52 1 18 49
M  V30 53 1 19 50
M  V30 54 1 19 51
M  V30 55 1 20 52
M  V30 56 1 20 53
M  V30 57 1 21 54
M  V30 58 1 25 55
M  V30 59 1 26 56
M  V30 60 1 27 57
M  V30 61 1 28 58
M  V30 62 1 29 59
M  V30 63 1 30 60
M  V30 64 1 30 61
M  V30 65 1 31 62
M  V30 66 1 31 63
M  V30 67 1 33 64
M  V30 END BOND
M  V30 END CTAB
M  END
>  <Dataset>  (131) 
ChEMBL_Kinases

>  <Ligand_Instance>  (131) 
nan

>  <PDB_ID>  (131) 
nan

>  <Standardized_SMILES>  (131) 
COc1ccc2[nH]nc(C(=O)NCC3CCN(CCCNC(=O)c4ccccc4)CC3)c2c1

>  <Name>  (131) 
nan

>  <Pocket>  (131) 
nan

>  <ATP_Site>  (131) 
nan

>  <Peripheral>  (131) 
nan

>  <Num_H_Atoms_ProtBoundConf>  (131) 
nan

>  <Num_Resolved_Atoms>  (131) 
nan

>  <Num_Not_Resolved_Atoms>  (131) 
nan

$$$$
CHEMBL3736408
     RDKit          3D

  0  0  0  0  0  0  0  0  0  0999 V3000
M  V30 BEGIN CTAB
M  V30 COUNTS 60 65 0 0 0
M  V30 BEGIN ATOM
M  V30 1 C 4.713552 -4.256590 5.053922 0
M  V30 2 N 4.993221 -2.924978 4.556532 0
M  V30 3 C 4.994867 -2.873514 3.113046 0
M  V30 4 C 3.675406 -2.453529 2.539255 0
M  V30 5 N 3.390553 -1.097575 3.034205 0
M  V30 6 C 2.453256 -0.259016 2.386698 0
M  V30 7 C 2.086043 1.019737 2.778667 0
M  V30 8 C 1.154148 1.728392 2.045453 0
M  V30 9 C 0.552611 1.220259 0.914420 0
M  V30 10 N -0.357870 1.613270 -0.007035 0
M  V30 11 C -0.523269 0.602610 -0.911959 0
M  V30 12 C -1.456411 0.777403 -2.017841 0
M  V30 13 C -1.205108 0.862609 -3.372592 0
M  V30 14 C -2.246687 1.026166 -4.260044 0
M  V30 15 C -3.539099 1.104296 -3.790364 0
M  V30 16 C -3.827663 1.022513 -2.438186 0
M  V30 17 C -5.198777 1.111013 -2.020212 0
M  V30 18 C -5.499358 0.384036 -0.868236 0
M  V30 19 C -6.797835 0.392543 -0.366070 0
M  V30 20 C -7.772011 1.116823 -1.009758 0
M  V30 21 C -7.465597 1.832528 -2.147874 0
M  V30 22 C -6.187231 1.834336 -2.656432 0
M  V30 23 C -2.776849 0.859231 -1.564790 0
M  V30 24 C 0.295119 -0.429254 -0.546201 0
M  V30 25 C 0.411883 -1.673920 -1.240763 0
M  V30 26 C 0.868522 -1.980478 -2.505633 0
M  V30 27 C 0.876240 -3.267743 -2.939471 0
M  V30 28 N 0.452284 -4.299576 -2.189189 0
M  V30 29 C -0.006828 -4.050106 -0.936564 0
M  V30 30 C -0.032834 -2.739920 -0.448329 0
M  V30 31 N 0.955592 -0.038789 0.582562 0
M  V30 32 N 1.848394 -0.727211 1.278630 0
M  V30 33 C 4.144091 -0.719776 4.213507 0
M  V30 34 C 4.129079 -1.929206 5.146372 0
M  V30 35 H 5.589072 -4.545151 5.657429 0
M  V30 36 H 4.488817 -4.905075 4.205764 0
M  V30 37 H 3.806838 -4.180042 5.691756 0
M  V30 38 H 5.823918 -2.257708 2.711619 0
M  V30 39 H 5.195522 -3.917590 2.774827 0
M  V30 40 H 3.823516 -2.338746 1.442882 0
M  V30 41 H 2.881517 -3.155051 2.817817 0
M  V30 42 H 2.557206 1.405194 3.656450 0
M  V30 43 H 0.871034 2.719384 2.351674 0
M  V30 44 H -0.153909 0.788616 -3.616532 0
M  V30 45 H -1.966161 1.085125 -5.311837 0
M  V30 46 H -4.314157 1.233666 -4.543076 0
M  V30 47 H -4.838216 -0.222235 -0.268228 0
M  V30 48 H -7.113790 -0.148075 0.527057 0
M  V30 49 H -8.792924 1.130497 -0.625675 0
M  V30 50 H -8.228726 2.394802 -2.644104 0
M  V30 51 H -5.894171 2.384584 -3.553377 0
M  V30 52 H -3.090431 0.803730 -0.521022 0
M  V30 53 H 1.192172 -1.100792 -3.044077 0
M  V30 54 H 1.260486 -3.379160 -3.954614 0
M  V30 55 H -0.326617 -4.915957 -0.398354 0
M  V30 56 H -0.416746 -2.687671 0.549427 0
M  V30 57 H 5.221519 -0.526508 3.933616 0
M  V30 58 H 3.764066 0.165820 4.727839 0
M  V30 59 H 3.089623 -2.316735 5.124250 0
M  V30 60 H 4.425781 -1.646471 6.167632 0
M  V30 END ATOM
M  V30 BEGIN BOND
M  V30 1 1 1 2
M  V30 2 1 2 3
M  V30 3 1 3 4
M  V30 4 1 4 5
M  V30 5 1 5 6
M  V30 6 1 6 7
M  V30 7 2 7 8
M  V30 8 1 8 9
M  V30 9 2 9 10
M  V30 10 1 10 11
M  V30 11 1 11 12
M  V30 12 2 12 13
M  V30 13 1 13 14
M  V30 14 2 14 15
M  V30 15 1 15 16
M  V30 16 1 16 17
M  V30 17 2 17 18
M  V30 18 1 18 19
M  V30 19 2 19 20
M  V30 20 1 20 21
M  V30 21 2 21 22
M  V30 22 2 16 23
M  V30 23 2 11 24
M  V30 24 1 24 25
M  V30 25 2 25 26
M  V30 26 1 26 27
M  V30 27 2 27 28
M  V30 28 1 28 29
M  V30 29 2 29 30
M  V30 30 1 24 31
M  V30 31 1 31 32
M  V30 32 1 5 33
M  V30 33 1 33 34
M  V30 34 1 34 2
M  V30 35 2 32 6
M  V30 36 1 31 9
M  V30 37 1 23 12
M  V30 38 1 30 25
M  V30 39 1 22 17
M  V30 40 1 1 35
M  V30 41 1 1 36
M  V30 42 1 1 37
M  V30 43 1 3 38
M  V30 44 1 3 39
M  V30 45 1 4 40
M  V30 46 1 4 41
M  V30 47 1 7 42
M  V30 48 1 8 43
M  V30 49 1 13 44
M  V30 50 1 14 45
M  V30 51 1 15 46
M  V30 52 1 18 47
M  V30 53 1 19 48
M  V30 54 1 20 49
M  V30 55 1 21 50
M  V30 56 1 22 51
M  V30 57 1 23 52
M  V30 58 1 26 53
M  V30 59 1 27 54
M  V30 60 1 29 55
M  V30 61 1 30 56
M  V30 62 1 33 57
M  V30 63 1 33 58
M  V30 64 1 34 59
M  V30 65 1 34 60
M  V30 END BOND
M  V30 END CTAB
M  END
>  <Dataset>  (132) 
ChEMBL_Kinases

>  <Ligand_Instance>  (132) 
nan

>  <PDB_ID>  (132) 
nan

>  <Standardized_SMILES>  (132) 
CN1CCN(c2ccc3nc(-c4cccc(-c5ccccc5)c4)c(-c4ccncc4)n3n2)CC1

>  <Name>  (132) 
nan

>  <Pocket>  (132) 
nan

>  <ATP_Site>  (132) 
nan

>  <Peripheral>  (132) 
nan

>  <Num_H_Atoms_ProtBoundConf>  (132) 
nan

>  <Num_Resolved_Atoms>  (132) 
nan

>  <Num_Not_Resolved_Atoms>  (132) 
nan

$$$$
CHEMBL3736404
     RDKit          3D

  0  0  0  0  0  0  0  0  0  0999 V3000
M  V30 BEGIN CTAB
M  V30 COUNTS 47 49 0 0 0
M  V30 BEGIN ATOM
M  V30 1 C 1.093534 -5.633796 2.282767 0
M  V30 2 O 1.057626 -4.325623 1.813611 0
M  V30 3 C 1.884338 -3.815988 0.821830 0
M  V30 4 C 2.837986 -4.608070 0.209440 0
M  V30 5 C 3.660826 -4.088544 -0.782472 0
M  V30 6 C 3.494857 -2.766725 -1.132169 0
M  V30 7 N 4.047086 -1.901058 -1.996864 0
M  V30 8 N 3.492929 -0.691189 -1.929663 0
M  V30 9 C 2.522757 -0.700868 -0.992670 0
M  V30 10 C 1.816431 0.531151 -0.787686 0
M  V30 11 O 2.151624 1.546302 -1.490130 0
M  V30 12 N 0.769748 0.957983 0.045000 0
M  V30 13 C 0.471190 2.352618 -0.197280 0
M  V30 14 C -0.662819 2.831923 0.690849 0
M  V30 15 C -0.385102 2.714966 2.130787 0
M  V30 16 C -1.467261 2.257005 3.030967 0
M  V30 17 N -2.607627 1.633812 2.403313 0
M  V30 18 C -2.575674 0.220444 2.423067 0
M  V30 19 C -3.702186 -0.491869 1.819513 0
M  V30 20 O -4.790016 -0.219608 1.245650 0
M  V30 21 O -3.526363 -1.885153 1.899564 0
M  V30 22 C -3.046386 2.293798 1.243741 0
M  V30 23 C -1.950105 2.230520 0.212227 0
M  V30 24 C 2.543172 -1.986274 -0.517265 0
M  V30 25 C 1.728720 -2.496838 0.463222 0
M  V30 26 H 0.064601 -5.842955 2.698983 0
M  V30 27 H 1.307035 -6.327604 1.453813 0
M  V30 28 H 1.831225 -5.697737 3.107306 0
M  V30 29 H 2.967840 -5.647633 0.485054 0
M  V30 30 H 4.430974 -4.658292 -1.303997 0
M  V30 31 H 4.827581 -2.132792 -2.658465 0
M  V30 32 H 0.403361 0.220751 0.670127 0
M  V30 33 H 1.387708 2.984979 -0.018444 0
M  V30 34 H 0.187307 2.530939 -1.249255 0
M  V30 35 H -0.744308 3.930842 0.430473 0
M  V30 36 H 0.030625 3.676709 2.555662 0
M  V30 37 H 0.484541 2.006369 2.236879 0
M  V30 38 H -1.874578 3.067821 3.671862 0
M  V30 39 H -1.096600 1.481276 3.763518 0
M  V30 40 H -1.587549 -0.077253 1.974271 0
M  V30 41 H -2.495981 -0.162980 3.475349 0
M  V30 42 H -4.085923 -2.560455 1.412576 0
M  V30 43 H -3.971759 1.907350 0.844229 0
M  V30 44 H -3.200405 3.375956 1.505949 0
M  V30 45 H -2.347899 2.751655 -0.693135 0
M  V30 46 H -1.772459 1.180347 -0.103603 0
M  V30 47 H 0.985463 -1.910483 0.953093 0
M  V30 END ATOM
M  V30 BEGIN BOND
M  V30 1 1 1 2
M  V30 2 1 2 3
M  V30 3 2 3 4
M  V30 4 1 4 5
M  V30 5 2 5 6
M  V30 6 1 6 7
M  V30 7 1 7 8
M  V30 8 2 8 9
M  V30 9 1 9 10
M  V30 10 2 10 11
M  V30 11 1 10 12
M  V30 12 1 12 13
M  V30 13 1 13 14
M  V30 14 1 14 15
M  V30 15 1 15 16
M  V30 16 1 16 17
M  V30 17 1 17 18
M  V30 18 1 18 19
M  V30 19 2 19 20
M  V30 20 1 19 21
M  V30 21 1 17 22
M  V30 22 1 22 23
M  V30 23 1 9 24
M  V30 24 2 24 25
M  V30 25 1 25 3
M  V30 26 1 24 6
M  V30 27 1 23 14
M  V30 28 1 1 26
M  V30 29 1 1 27
M  V30 30 1 1 28
M  V30 31 1 4 29
M  V30 32 1 5 30
M  V30 33 1 7 31
M  V30 34 1 12 32
M  V30 35 1 13 33
M  V30 36 1 13 34
M  V30 37 1 14 35
M  V30 38 1 15 36
M  V30 39 1 15 37
M  V30 40 1 16 38
M  V30 41 1 16 39
M  V30 42 1 18 40
M  V30 43 1 18 41
M  V30 44 1 21 42
M  V30 45 1 22 43
M  V30 46 1 22 44
M  V30 47 1 23 45
M  V30 48 1 23 46
M  V30 49 1 25 47
M  V30 END BOND
M  V30 END CTAB
M  END
>  <Dataset>  (133) 
ChEMBL_Kinases

>  <Ligand_Instance>  (133) 
nan

>  <PDB_ID>  (133) 
nan

>  <Standardized_SMILES>  (133) 
COc1ccc2[nH]nc(C(=O)NCC3CCN(CC(=O)O)CC3)c2c1

>  <Name>  (133) 
nan

>  <Pocket>  (133) 
nan

>  <ATP_Site>  (133) 
nan

>  <Peripheral>  (133) 
nan

>  <Num_H_Atoms_ProtBoundConf>  (133) 
nan

>  <Num_Resolved_Atoms>  (133) 
nan

>  <Num_Not_Resolved_Atoms>  (133) 
nan

$$$$
CHEMBL3736399
     RDKit          3D

  0  0  0  0  0  0  0  0  0  0999 V3000
M  V30 BEGIN CTAB
M  V30 COUNTS 54 57 0 0 0
M  V30 BEGIN ATOM
M  V30 1 C 2.830834 -4.568688 0.108849 0
M  V30 2 O 4.042173 -4.290274 -0.548004 0
M  V30 3 C 4.489089 -3.022032 -0.823284 0
M  V30 4 C 5.712595 -2.982832 -1.479624 0
M  V30 5 C 6.277592 -1.777258 -1.816767 0
M  V30 6 C 5.589300 -0.633678 -1.480908 0
M  V30 7 N 5.786892 0.686168 -1.625338 0
M  V30 8 N 4.784838 1.413986 -1.110386 0
M  V30 9 C 3.863533 0.572886 -0.592324 0
M  V30 10 C 2.698895 1.168193 0.012562 0
M  V30 11 O 2.629426 2.448494 0.008365 0
M  V30 12 N 1.537932 0.729357 0.648862 0
M  V30 13 C 0.714362 1.831438 1.053118 0
M  V30 14 C -0.517809 1.262450 1.735868 0
M  V30 15 C -1.242044 0.386896 0.756535 0
M  V30 16 C -2.690133 0.744100 0.733311 0
M  V30 17 N -3.193076 0.753866 2.082197 0
M  V30 18 C -3.315506 -0.573618 2.577096 0
M  V30 19 C -4.268898 -1.321129 1.690571 0
M  V30 20 C -5.636969 -1.335029 1.937832 0
M  V30 21 C -6.260678 -2.099454 0.962879 0
M  V30 22 C -5.213731 -2.512639 0.165671 0
M  V30 23 C -5.355166 -3.353671 -1.012828 0
M  V30 24 O -6.458821 -3.787613 -1.418841 0
M  V30 25 O -4.263913 -3.736152 -1.775503 0
M  V30 26 O -4.070348 -2.048470 0.608222 0
M  V30 27 C -2.611341 1.717639 2.945449 0
M  V30 28 C -1.435227 2.336412 2.224947 0
M  V30 29 C 4.377521 -0.675767 -0.830985 0
M  V30 30 C 3.810411 -1.873085 -0.492698 0
M  V30 31 H 2.542640 -5.616751 -0.065433 0
M  V30 32 H 2.034431 -3.907845 -0.270486 0
M  V30 33 H 2.917569 -4.415583 1.208115 0
M  V30 34 H 6.283874 -3.877457 -1.759809 0
M  V30 35 H 7.222337 -1.628559 -2.326818 0
M  V30 36 H 6.611489 1.140716 -2.079861 0
M  V30 37 H 1.489041 -0.305189 0.709554 0
M  V30 38 H 1.237059 2.456432 1.809720 0
M  V30 39 H 0.437517 2.506691 0.217037 0
M  V30 40 H -0.132206 0.679506 2.605178 0
M  V30 41 H -0.750550 0.490667 -0.236399 0
M  V30 42 H -1.141559 -0.696208 0.997427 0
M  V30 43 H -3.291425 0.081867 0.068745 0
M  V30 44 H -2.872281 1.771674 0.307053 0
M  V30 45 H -3.644444 -0.624582 3.636487 0
M  V30 46 H -2.370748 -1.156751 2.543886 0
M  V30 47 H -6.176706 -0.843439 2.748154 0
M  V30 48 H -7.298360 -2.357039 0.796603 0
M  V30 49 H -4.265801 -4.564583 -2.355806 0
M  V30 50 H -2.327669 1.328474 3.945206 0
M  V30 51 H -3.377762 2.515051 3.166601 0
M  V30 52 H -1.808371 3.018792 1.462701 0
M  V30 53 H -0.906681 2.951619 3.022066 0
M  V30 54 H 2.867834 -1.931452 0.013936 0
M  V30 END ATOM
M  V30 BEGIN BOND
M  V30 1 1 1 2
M  V30 2 1 2 3
M  V30 3 2 3 4
M  V30 4 1 4 5
M  V30 5 2 5 6
M  V30 6 1 6 7
M  V30 7 1 7 8
M  V30 8 2 8 9
M  V30 9 1 9 10
M  V30 10 2 10 11
M  V30 11 1 10 12
M  V30 12 1 12 13
M  V30 13 1 13 14
M  V30 14 1 14 15
M  V30 15 1 15 16
M  V30 16 1 16 17
M  V30 17 1 17 18
M  V30 18 1 18 19
M  V30 19 2 19 20
M  V30 20 1 20 21
M  V30 21 2 21 22
M  V30 22 1 22 23
M  V30 23 2 23 24
M  V30 24 1 23 25
M  V30 25 1 22 26
M  V30 26 1 17 27
M  V30 27 1 27 28
M  V30 28 1 9 29
M  V30 29 2 29 30
M  V30 30 1 30 3
M  V30 31 1 29 6
M  V30 32 1 28 14
M  V30 33 1 26 19
M  V30 34 1 1 31
M  V30 35 1 1 32
M  V30 36 1 1 33
M  V30 37 1 4 34
M  V30 38 1 5 35
M  V30 39 1 7 36
M  V30 40 1 12 37
M  V30 41 1 13 38
M  V30 42 1 13 39
M  V30 43 1 14 40
M  V30 44 1 15 41
M  V30 45 1 15 42
M  V30 46 1 16 43
M  V30 47 1 16 44
M  V30 48 1 18 45
M  V30 49 1 18 46
M  V30 50 1 20 47
M  V30 51 1 21 48
M  V30 52 1 25 49
M  V30 53 1 27 50
M  V30 54 1 27 51
M  V30 55 1 28 52
M  V30 56 1 28 53
M  V30 57 1 30 54
M  V30 END BOND
M  V30 END CTAB
M  END
>  <Dataset>  (134) 
ChEMBL_Kinases

>  <Ligand_Instance>  (134) 
nan

>  <PDB_ID>  (134) 
nan

>  <Standardized_SMILES>  (134) 
COc1ccc2[nH]nc(C(=O)NCC3CCN(Cc4ccc(C(=O)O)o4)CC3)c2c1

>  <Name>  (134) 
nan

>  <Pocket>  (134) 
nan

>  <ATP_Site>  (134) 
nan

>  <Peripheral>  (134) 
nan

>  <Num_H_Atoms_ProtBoundConf>  (134) 
nan

>  <Num_Resolved_Atoms>  (134) 
nan

>  <Num_Not_Resolved_Atoms>  (134) 
nan

$$$$
CHEMBL3736396
     RDKit          3D

  0  0  0  0  0  0  0  0  0  0999 V3000
M  V30 BEGIN CTAB
M  V30 COUNTS 60 63 0 0 0
M  V30 BEGIN ATOM
M  V30 1 C 0.737812 -4.026986 3.424598 0
M  V30 2 O 1.547710 -3.646953 2.344705 0
M  V30 3 C 2.773797 -3.281004 2.850509 0
M  V30 4 C 3.759463 -2.842877 1.797029 0
M  V30 5 N 3.357544 -1.730512 1.032172 0
M  V30 6 C 3.290679 -0.499880 1.727746 0
M  V30 7 C 2.939615 0.705344 0.946234 0
M  V30 8 C 3.248703 0.694621 -0.506742 0
M  V30 9 C 2.459727 1.765851 -1.264114 0
M  V30 10 N 1.073904 1.470255 -1.069326 0
M  V30 11 C 0.137436 2.313507 -1.657573 0
M  V30 12 O 0.809713 3.213930 -2.274835 0
M  V30 13 C -1.300592 2.392841 -1.721260 0
M  V30 14 N -1.823945 3.427147 -2.411781 0
M  V30 15 N -3.161663 3.340188 -2.362540 0
M  V30 16 C -3.583895 2.278830 -1.660165 0
M  V30 17 C -4.743993 1.676797 -1.268610 0
M  V30 18 C -4.781529 0.524384 -0.505038 0
M  V30 19 C -3.557127 -0.038869 -0.124124 0
M  V30 20 C -3.634851 -1.268324 0.694294 0
M  V30 21 C -4.478106 -1.374549 1.803239 0
M  V30 22 C -4.554522 -2.502483 2.569347 0
M  V30 23 C -3.774061 -3.597634 2.253499 0
M  V30 24 C -2.929330 -3.504963 1.150823 0
M  V30 25 C -2.854190 -2.363653 0.377970 0
M  V30 26 C -1.923990 -2.365341 -0.785679 0
M  V30 27 C -2.377518 0.556675 -0.510592 0
M  V30 28 C -2.395346 1.700334 -1.268519 0
M  V30 29 C 3.108402 -0.646021 -1.148621 0
M  V30 30 C 3.845336 -1.652215 -0.310409 0
M  V30 31 H 0.634665 -3.153289 4.126984 0
M  V30 32 H -0.288036 -4.306219 3.113560 0
M  V30 33 H 1.160877 -4.863947 4.008711 0
M  V30 34 H 2.647044 -2.515947 3.651519 0
M  V30 35 H 3.210911 -4.170101 3.353401 0
M  V30 36 H 4.722352 -2.646158 2.302730 0
M  V30 37 H 3.920730 -3.722441 1.135698 0
M  V30 38 H 2.641160 -0.605376 2.628474 0
M  V30 39 H 4.316336 -0.320556 2.167695 0
M  V30 40 H 3.393840 1.628587 1.426704 0
M  V30 41 H 1.843176 0.880989 1.072504 0
M  V30 42 H 4.318318 1.013817 -0.619861 0
M  V30 43 H 2.740231 2.771915 -0.943589 0
M  V30 44 H 2.676003 1.712746 -2.351049 0
M  V30 45 H 0.657156 0.699133 -0.542260 0
M  V30 46 H -3.805506 4.019105 -2.817536 0
M  V30 47 H -5.657213 2.163432 -1.596713 0
M  V30 48 H -5.733271 0.070506 -0.211343 0
M  V30 49 H -5.103112 -0.513871 2.065953 0
M  V30 50 H -5.204316 -2.589374 3.426071 0
M  V30 51 H -3.808579 -4.518421 2.842794 0
M  V30 52 H -2.316914 -4.377430 0.910784 0
M  V30 53 H -1.979145 -3.405602 -1.223800 0
M  V30 54 H -2.302169 -1.669364 -1.587543 0
M  V30 55 H -0.873251 -2.196585 -0.521940 0
M  V30 56 H -1.470137 0.098420 -0.199436 0
M  V30 57 H 3.624613 -0.631939 -2.146927 0
M  V30 58 H 2.054000 -0.969737 -1.262028 0
M  V30 59 H 4.917704 -1.310272 -0.261490 0
M  V30 60 H 3.804023 -2.635423 -0.805434 0
M  V30 END ATOM
M  V30 BEGIN BOND
M  V30 1 1 1 2
M  V30 2 1 2 3
M  V30 3 1 3 4
M  V30 4 1 4 5
M  V30 5 1 5 6
M  V30 6 1 6 7
M  V30 7 1 7 8
M  V30 8 1 8 9
M  V30 9 1 9 10
M  V30 10 1 10 11
M  V30 11 2 11 12
M  V30 12 1 11 13
M  V30 13 2 13 14
M  V30 14 1 14 15
M  V30 15 1 15 16
M  V30 16 2 16 17
M  V30 17 1 17 18
M  V30 18 2 18 19
M  V30 19 1 19 20
M  V30 20 2 20 21
M  V30 21 1 21 22
M  V30 22 2 22 23
M  V30 23 1 23 24
M  V30 24 2 24 25
M  V30 25 1 25 26
M  V30 26 1 19 27
M  V30 27 2 27 28
M  V30 28 1 8 29
M  V30 29 1 29 30
M  V30 30 1 30 5
M  V30 31 1 28 13
M  V30 32 1 28 16
M  V30 33 1 25 20
M  V30 34 1 1 31
M  V30 35 1 1 32
M  V30 36 1 1 33
M  V30 37 1 3 34
M  V30 38 1 3 35
M  V30 39 1 4 36
M  V30 40 1 4 37
M  V30 41 1 6 38
M  V30 42 1 6 39
M  V30 43 1 7 40
M  V30 44 1 7 41
M  V30 45 1 8 42
M  V30 46 1 9 43
M  V30 47 1 9 44
M  V30 48 1 10 45
M  V30 49 1 15 46
M  V30 50 1 17 47
M  V30 51 1 18 48
M  V30 52 1 21 49
M  V30 53 1 22 50
M  V30 54 1 23 51
M  V30 55 1 24 52
M  V30 56 1 26 53
M  V30 57 1 26 54
M  V30 58 1 26 55
M  V30 59 1 27 56
M  V30 60 1 29 57
M  V30 61 1 29 58
M  V30 62 1 30 59
M  V30 63 1 30 60
M  V30 END BOND
M  V30 END CTAB
M  END
>  <Dataset>  (135) 
ChEMBL_Kinases

>  <Ligand_Instance>  (135) 
nan

>  <PDB_ID>  (135) 
nan

>  <Standardized_SMILES>  (135) 
COCCN1CCC(CNC(=O)c2n[nH]c3ccc(-c4ccccc4C)cc23)CC1

>  <Name>  (135) 
nan

>  <Pocket>  (135) 
nan

>  <ATP_Site>  (135) 
nan

>  <Peripheral>  (135) 
nan

>  <Num_H_Atoms_ProtBoundConf>  (135) 
nan

>  <Num_Resolved_Atoms>  (135) 
nan

>  <Num_Not_Resolved_Atoms>  (135) 
nan

$$$$
CHEMBL511410
     RDKit          3D

  0  0  0  0  0  0  0  0  0  0999 V3000
M  V30 BEGIN CTAB
M  V30 COUNTS 39 41 0 0 0
M  V30 BEGIN ATOM
M  V30 1 N -1.181069 -4.051804 0.614429 0
M  V30 2 C 0.128532 -3.674550 1.021461 0
M  V30 3 O 1.033159 -4.448351 1.484089 0
M  V30 4 C 0.454033 -2.210751 0.882281 0
M  V30 5 N 1.803961 -1.935032 1.321439 0
M  V30 6 C 2.353142 -0.635469 1.288007 0
M  V30 7 C 1.959740 0.620689 0.921018 0
M  V30 8 N 0.789862 1.230258 0.388238 0
M  V30 9 C 0.663549 1.307879 -1.047235 0
M  V30 10 C 1.695516 0.780436 -1.799591 0
M  V30 11 C 1.568165 0.858179 -3.178304 0
M  V30 12 N 0.499496 1.416202 -3.773822 0
M  V30 13 C -0.477465 1.914943 -2.994138 0
M  V30 14 C -0.452997 1.890400 -1.612391 0
M  V30 15 C 3.165074 1.180717 1.257437 0
M  V30 16 O 3.696634 2.309813 1.248127 0
M  V30 17 C 3.565836 -0.082928 1.628433 0
M  V30 18 O 4.630132 -0.596393 2.105637 0
M  V30 19 C -0.554935 -1.508819 1.741791 0
M  V30 20 C -1.637935 -0.824708 1.260382 0
M  V30 21 C -2.545857 -0.190849 2.083293 0
M  V30 22 C -2.365247 -0.241506 3.452620 0
M  V30 23 C -1.279077 -0.926192 3.964092 0
M  V30 24 O -1.216201 -0.899135 5.349380 0
M  V30 25 C -0.378838 -1.555604 3.129529 0
M  V30 26 H -2.014967 -3.814191 1.217890 0
M  V30 27 H -1.147018 -4.553398 -0.298275 0
M  V30 28 H 0.283164 -1.933504 -0.164718 0
M  V30 29 H 2.374312 -2.745568 1.672584 0
M  V30 30 H 0.036168 1.614759 1.006037 0
M  V30 31 H 2.564911 0.326877 -1.363032 0
M  V30 32 H 2.358284 0.454719 -3.797293 0
M  V30 33 H -1.364846 2.377943 -3.445343 0
M  V30 34 H -1.253991 2.299571 -1.007762 0
M  V30 35 H -1.693681 -0.841952 0.169217 0
M  V30 36 H -3.331478 0.294286 1.507783 0
M  V30 37 H -3.131731 0.286548 4.003700 0
M  V30 38 H -1.450704 -0.066907 5.886470 0
M  V30 39 H 0.441332 -2.067413 3.622652 0
M  V30 END ATOM
M  V30 BEGIN BOND
M  V30 1 1 1 2
M  V30 2 2 2 3
M  V30 3 1 2 4
M  V30 4 1 4 5
M  V30 5 1 5 6
M  V30 6 2 6 7
M  V30 7 1 7 8
M  V30 8 1 8 9
M  V30 9 2 9 10
M  V30 10 1 10 11
M  V30 11 2 11 12
M  V30 12 1 12 13
M  V30 13 2 13 14
M  V30 14 1 7 15
M  V30 15 2 15 16
M  V30 16 1 15 17
M  V30 17 2 17 18
M  V30 18 1 4 19
M  V30 19 2 19 20
M  V30 20 1 20 21
M  V30 21 2 21 22
M  V30 22 1 22 23
M  V30 23 1 23 24
M  V30 24 2 23 25
M  V30 25 1 17 6
M  V30 26 1 25 19
M  V30 27 1 14 9
M  V30 28 1 1 26
M  V30 29 1 1 27
M  V30 30 1 4 28
M  V30 31 1 5 29
M  V30 32 1 8 30
M  V30 33 1 10 31
M  V30 34 1 11 32
M  V30 35 1 13 33
M  V30 36 1 14 34
M  V30 37 1 20 35
M  V30 38 1 21 36
M  V30 39 1 22 37
M  V30 40 1 24 38
M  V30 41 1 25 39
M  V30 END BOND
M  V30 END CTAB
M  END
>  <Dataset>  (136) 
ChEMBL_Kinases

>  <Ligand_Instance>  (136) 
nan

>  <PDB_ID>  (136) 
nan

>  <Standardized_SMILES>  (136) 
NC(=O)C(Nc1c(Nc2ccncc2)c(=O)c1=O)c1cccc(O)c1

>  <Name>  (136) 
nan

>  <Pocket>  (136) 
nan

>  <ATP_Site>  (136) 
nan

>  <Peripheral>  (136) 
nan

>  <Num_H_Atoms_ProtBoundConf>  (136) 
nan

>  <Num_Resolved_Atoms>  (136) 
nan

>  <Num_Not_Resolved_Atoms>  (136) 
nan

$$$$
CHEMBL3736278
     RDKit          3D

  0  0  0  0  0  0  0  0  0  0999 V3000
M  V30 BEGIN CTAB
M  V30 COUNTS 60 64 0 0 0
M  V30 BEGIN ATOM
M  V30 1 O 1.885048 -5.051217 0.591756 0
M  V30 2 C 1.814580 -4.277508 -0.425800 0
M  V30 3 N 1.146292 -3.234857 0.133607 0
M  V30 4 C 0.471416 -2.240269 0.791891 0
M  V30 5 N 1.194124 -1.284249 1.459677 0
M  V30 6 C 0.375001 -0.441225 2.079166 0
M  V30 7 C 0.521267 0.665664 2.872231 0
M  V30 8 C -0.633399 1.262891 3.326720 0
M  V30 9 C -0.556069 2.442316 4.187611 0
M  V30 10 N -0.528470 3.711515 3.518090 0
M  V30 11 C 0.607774 3.785958 2.669386 0
M  V30 12 C 0.703501 5.054664 1.871101 0
M  V30 13 C -0.574066 5.204319 1.079164 0
M  V30 14 C -1.676060 5.355806 2.095967 0
M  V30 15 C -1.764773 4.131489 2.963983 0
M  V30 16 C -1.880032 0.767332 2.996732 0
M  V30 17 C -2.061106 -0.343606 2.201207 0
M  V30 18 C -0.892828 -0.934345 1.751523 0
M  V30 19 N -0.832360 -2.038212 0.960974 0
M  V30 20 C -1.842186 -2.823068 0.416896 0
M  V30 21 C -2.460189 -3.686774 1.310315 0
M  V30 22 C -3.479930 -4.503893 0.844126 0
M  V30 23 C -3.886604 -4.471296 -0.484721 0
M  V30 24 C -3.257472 -3.598390 -1.373411 0
M  V30 25 C -2.238594 -2.782660 -0.902548 0
M  V30 26 C 2.394051 -4.706596 -1.679773 0
M  V30 27 C 3.004499 -5.911199 -1.643534 0
M  V30 28 C 3.567178 -6.346689 -2.853301 0
M  V30 29 C 3.512571 -5.604493 -4.025006 0
M  V30 30 C 2.864675 -4.390997 -3.944005 0
M  V30 31 C 2.820370 -3.612410 -5.227564 0
M  V30 32 F 3.998394 -3.759444 -5.926821 0
M  V30 33 F 1.731488 -4.009763 -5.976700 0
M  V30 34 F 2.713418 -2.268655 -4.886912 0
M  V30 35 C 2.284061 -3.889562 -2.790532 0
M  V30 36 H 1.164268 -2.705977 -0.843714 0
M  V30 37 H 1.514963 1.011029 3.099782 0
M  V30 38 H 0.364397 2.295118 4.828911 0
M  V30 39 H -1.382481 2.468038 4.931887 0
M  V30 40 H 1.523976 3.722548 3.296084 0
M  V30 41 H 0.656720 2.944255 1.953060 0
M  V30 42 H 0.731311 5.928602 2.565236 0
M  V30 43 H 1.606284 4.976154 1.245407 0
M  V30 44 H -0.528388 6.065412 0.378549 0
M  V30 45 H -0.743262 4.253895 0.535120 0
M  V30 46 H -1.470590 6.230071 2.717120 0
M  V30 47 H -2.679596 5.445560 1.587042 0
M  V30 48 H -2.293563 3.360101 2.364737 0
M  V30 49 H -2.449921 4.386485 3.806499 0
M  V30 50 H -2.794161 1.242231 3.360370 0
M  V30 51 H -3.031371 -0.698934 1.966200 0
M  V30 52 H -2.245001 -3.815338 2.367222 0
M  V30 53 H -4.069276 -5.236817 1.397718 0
M  V30 54 H -4.659190 -5.058469 -0.937138 0
M  V30 55 H -3.513788 -3.508351 -2.427148 0
M  V30 56 H -1.692192 -2.066896 -1.538384 0
M  V30 57 H 3.087795 -6.542347 -0.776082 0
M  V30 58 H 4.064268 -7.306142 -2.863024 0
M  V30 59 H 3.957927 -5.970242 -4.937580 0
M  V30 60 H 1.791975 -2.935526 -2.794501 0
M  V30 END ATOM
M  V30 BEGIN BOND
M  V30 1 2 1 2
M  V30 2 1 2 3
M  V30 3 1 3 4
M  V30 4 2 4 5
M  V30 5 1 5 6
M  V30 6 2 6 7
M  V30 7 1 7 8
M  V30 8 1 8 9
M  V30 9 1 9 10
M  V30 10 1 10 11
M  V30 11 1 11 12
M  V30 12 1 12 13
M  V30 13 1 13 14
M  V30 14 1 14 15
M  V30 15 2 8 16
M  V30 16 1 16 17
M  V30 17 2 17 18
M  V30 18 1 18 19
M  V30 19 1 19 20
M  V30 20 2 20 21
M  V30 21 1 21 22
M  V30 22 2 22 23
M  V30 23 1 23 24
M  V30 24 2 24 25
M  V30 25 1 2 26
M  V30 26 2 26 27
M  V30 27 1 27 28
M  V30 28 2 28 29
M  V30 29 1 29 30
M  V30 30 1 30 31
M  V30 31 1 31 32
M  V30 32 1 31 33
M  V30 33 1 31 34
M  V30 34 2 30 35
M  V30 35 1 19 4
M  V30 36 1 25 20
M  V30 37 1 35 26
M  V30 38 1 18 6
M  V30 39 1 15 10
M  V30 40 1 3 36
M  V30 41 1 7 37
M  V30 42 1 9 38
M  V30 43 1 9 39
M  V30 44 1 11 40
M  V30 45 1 11 41
M  V30 46 1 12 42
M  V30 47 1 12 43
M  V30 48 1 13 44
M  V30 49 1 13 45
M  V30 50 1 14 46
M  V30 51 1 14 47
M  V30 52 1 15 48
M  V30 53 1 15 49
M  V30 54 1 16 50
M  V30 55 1 17 51
M  V30 56 1 21 52
M  V30 57 1 22 53
M  V30 58 1 23 54
M  V30 59 1 24 55
M  V30 60 1 25 56
M  V30 61 1 27 57
M  V30 62 1 28 58
M  V30 63 1 29 59
M  V30 64 1 35 60
M  V30 END BOND
M  V30 END CTAB
M  END
>  <Dataset>  (137) 
ChEMBL_Kinases

>  <Ligand_Instance>  (137) 
nan

>  <PDB_ID>  (137) 
nan

>  <Standardized_SMILES>  (137) 
O=C(Nc1nc2cc(CN3CCCCC3)ccc2n1-c1ccccc1)c1cccc(C(F)(F)F)c1

>  <Name>  (137) 
nan

>  <Pocket>  (137) 
nan

>  <ATP_Site>  (137) 
nan

>  <Peripheral>  (137) 
nan

>  <Num_H_Atoms_ProtBoundConf>  (137) 
nan

>  <Num_Resolved_Atoms>  (137) 
nan

>  <Num_Not_Resolved_Atoms>  (137) 
nan

$$$$
CHEMBL3736462
     RDKit          3D

  0  0  0  0  0  0  0  0  0  0999 V3000
M  V30 BEGIN CTAB
M  V30 COUNTS 68 72 0 0 0
M  V30 BEGIN ATOM
M  V30 1 C 4.963150 -1.693972 6.474185 0
M  V30 2 O 4.139546 -0.843148 5.716634 0
M  V30 3 C 4.174771 -1.035302 4.324893 0
M  V30 4 C 4.986147 -2.014761 3.784593 0
M  V30 5 C 5.035576 -2.222042 2.404306 0
M  V30 6 C 4.247068 -1.413776 1.618754 0
M  V30 7 N 3.999025 -1.276387 0.307670 0
M  V30 8 N 3.114742 -0.302266 0.048028 0
M  V30 9 C 2.737041 0.254375 1.216357 0
M  V30 10 C 1.782055 1.326805 1.127707 0
M  V30 11 O 1.366370 1.661809 -0.022045 0
M  V30 12 N 1.125712 2.178910 2.035648 0
M  V30 13 C 0.191013 3.190369 1.659800 0
M  V30 14 C -1.034852 2.688360 0.937845 0
M  V30 15 C -1.819915 1.709285 1.784345 0
M  V30 16 C -2.999385 1.225530 0.999311 0
M  V30 17 N -3.394041 2.072945 -0.031742 0
M  V30 18 C -4.189087 1.570849 -1.073729 0
M  V30 19 C -3.570253 0.447245 -1.831580 0
M  V30 20 C -3.853583 -0.809444 -1.339076 0
M  V30 21 C -3.330903 -1.918781 -1.964055 0
M  V30 22 C -2.523717 -1.851544 -3.075814 0
M  V30 23 O -1.881591 -2.734882 -3.882013 0
M  V30 24 C -1.794745 -4.106038 -3.881653 0
M  V30 25 C -1.201867 -4.729775 -2.674555 0
M  V30 26 C 0.196926 -4.788805 -2.741338 0
M  V30 27 C 0.989663 -5.331529 -1.753900 0
M  V30 28 C 0.372035 -5.851122 -0.626150 0
M  V30 29 C -1.002162 -5.801815 -0.543775 0
M  V30 30 C -1.778601 -5.254682 -1.542316 0
M  V30 31 C -2.246203 -0.562865 -3.562952 0
M  V30 32 C -2.767491 0.581293 -2.943273 0
M  V30 33 C -3.272422 3.470741 0.137649 0
M  V30 34 C -1.966547 3.894312 0.776201 0
M  V30 35 C 3.442179 -0.441066 2.165007 0
M  V30 36 C 3.394415 -0.238454 3.519131 0
M  V30 37 H 4.696597 -2.744248 6.233272 0
M  V30 38 H 4.826142 -1.570672 7.556134 0
M  V30 39 H 6.042078 -1.487387 6.279872 0
M  V30 40 H 5.606338 -2.650030 4.401158 0
M  V30 41 H 5.653519 -2.976455 1.918220 0
M  V30 42 H 4.430581 -1.849942 -0.459460 0
M  V30 43 H 1.393947 1.995783 3.021915 0
M  V30 44 H -0.184497 3.655877 2.599264 0
M  V30 45 H 0.689691 4.009179 1.111238 0
M  V30 46 H -0.857157 2.296553 -0.061398 0
M  V30 47 H -2.200061 2.203999 2.703495 0
M  V30 48 H -1.154091 0.875880 2.128106 0
M  V30 49 H -3.808779 0.963889 1.715207 0
M  V30 50 H -2.688307 0.232006 0.563421 0
M  V30 51 H -5.203365 1.261237 -0.728596 0
M  V30 52 H -4.388494 2.375854 -1.821737 0
M  V30 53 H -4.475193 -1.040972 -0.467236 0
M  V30 54 H -3.484651 -2.925043 -1.674781 0
M  V30 55 H -1.226661 -4.413843 -4.809460 0
M  V30 56 H -2.786729 -4.616364 -4.014321 0
M  V30 57 H 0.797373 -4.411709 -3.580709 0
M  V30 58 H 2.052107 -5.386051 -1.785022 0
M  V30 59 H 0.858097 -6.309523 0.231425 0
M  V30 60 H -1.599839 -6.176662 0.290646 0
M  V30 61 H -2.855495 -5.186458 -1.554899 0
M  V30 62 H -1.639274 -0.244098 -4.420805 0
M  V30 63 H -2.611432 1.601106 -3.241712 0
M  V30 64 H -3.312547 3.955621 -0.860130 0
M  V30 65 H -4.155458 3.848135 0.703199 0
M  V30 66 H -1.458217 4.718777 0.240861 0
M  V30 67 H -2.178239 4.251470 1.804617 0
M  V30 68 H 2.774724 0.512855 3.964889 0
M  V30 END ATOM
M  V30 BEGIN BOND
M  V30 1 1 1 2
M  V30 2 1 2 3
M  V30 3 2 3 4
M  V30 4 1 4 5
M  V30 5 2 5 6
M  V30 6 1 6 7
M  V30 7 1 7 8
M  V30 8 2 8 9
M  V30 9 1 9 10
M  V30 10 2 10 11
M  V30 11 1 10 12
M  V30 12 1 12 13
M  V30 13 1 13 14
M  V30 14 1 14 15
M  V30 15 1 15 16
M  V30 16 1 16 17
M  V30 17 1 17 18
M  V30 18 1 18 19
M  V30 19 2 19 20
M  V30 20 1 20 21
M  V30 21 2 21 22
M  V30 22 1 22 23
M  V30 23 1 23 24
M  V30 24 1 24 25
M  V30 25 2 25 26
M  V30 26 1 26 27
M  V30 27 2 27 28
M  V30 28 1 28 29
M  V30 29 2 29 30
M  V30 30 1 22 31
M  V30 31 2 31 32
M  V30 32 1 17 33
M  V30 33 1 33 34
M  V30 34 1 9 35
M  V30 35 2 35 36
M  V30 36 1 36 3
M  V30 37 1 35 6
M  V30 38 1 34 14
M  V30 39 1 32 19
M  V30 40 1 30 25
M  V30 41 1 1 37
M  V30 42 1 1 38
M  V30 43 1 1 39
M  V30 44 1 4 40
M  V30 45 1 5 41
M  V30 46 1 7 42
M  V30 47 1 12 43
M  V30 48 1 13 44
M  V30 49 1 13 45
M  V30 50 1 14 46
M  V30 51 1 15 47
M  V30 52 1 15 48
M  V30 53 1 16 49
M  V30 54 1 16 50
M  V30 55 1 18 51
M  V30 56 1 18 52
M  V30 57 1 20 53
M  V30 58 1 21 54
M  V30 59 1 24 55
M  V30 60 1 24 56
M  V30 61 1 26 57
M  V30 62 1 27 58
M  V30 63 1 28 59
M  V30 64 1 29 60
M  V30 65 1 30 61
M  V30 66 1 31 62
M  V30 67 1 32 63
M  V30 68 1 33 64
M  V30 69 1 33 65
M  V30 70 1 34 66
M  V30 71 1 34 67
M  V30 72 1 36 68
M  V30 END BOND
M  V30 END CTAB
M  END
>  <Dataset>  (138) 
ChEMBL_Kinases

>  <Ligand_Instance>  (138) 
nan

>  <PDB_ID>  (138) 
nan

>  <Standardized_SMILES>  (138) 
COc1ccc2[nH]nc(C(=O)NCC3CCN(Cc4ccc(OCc5ccccc5)cc4)CC3)c2c1

>  <Name>  (138) 
nan

>  <Pocket>  (138) 
nan

>  <ATP_Site>  (138) 
nan

>  <Peripheral>  (138) 
nan

>  <Num_H_Atoms_ProtBoundConf>  (138) 
nan

>  <Num_Resolved_Atoms>  (138) 
nan

>  <Num_Not_Resolved_Atoms>  (138) 
nan

$$$$
CHEMBL3741526
     RDKit          3D

  0  0  0  0  0  0  0  0  0  0999 V3000
M  V30 BEGIN CTAB
M  V30 COUNTS 61 65 0 0 0
M  V30 BEGIN ATOM
M  V30 1 C 0.534060 -1.489194 6.889503 0
M  V30 2 C 0.832207 -2.340011 5.659423 0
M  V30 3 O 0.453553 -1.630318 4.509682 0
M  V30 4 C 0.978021 -0.410343 4.147372 0
M  V30 5 O 1.852387 0.070895 4.920075 0
M  V30 6 C 0.604486 0.343196 2.966337 0
M  V30 7 N 1.147966 1.535820 2.650164 0
M  V30 8 N 0.649848 2.010486 1.545353 0
M  V30 9 C 0.879287 3.204063 0.797538 0
M  V30 10 C 1.924035 3.446734 -0.098078 0
M  V30 11 C 1.990809 4.661152 -0.737705 0
M  V30 12 C 1.050642 5.653780 -0.519908 0
M  V30 13 Cl 1.190367 7.180827 -1.365880 0
M  V30 14 C 0.014300 5.401016 0.374225 0
M  V30 15 C -0.070371 4.185248 1.027876 0
M  V30 16 C -0.254048 1.097175 1.119354 0
M  V30 17 C -0.318220 0.008917 1.999297 0
M  V30 18 C -1.158452 -1.170068 1.923393 0
M  V30 19 O -1.700478 -1.378084 3.041375 0
M  V30 20 C -1.445590 -2.076403 0.831210 0
M  V30 21 C -2.374538 -3.082880 0.975588 0
M  V30 22 C -3.230799 -3.467567 2.128990 0
M  V30 23 N -2.387010 -3.734947 -0.224775 0
M  V30 24 C -1.538326 -3.229031 -1.134927 0
M  V30 25 C -1.359682 -3.727740 -2.469803 0
M  V30 26 C -0.841870 -5.024072 -2.547717 0
M  V30 27 C -0.627460 -5.612570 -3.794425 0
M  V30 28 C -0.909924 -4.956780 -4.959409 0
M  V30 29 C -1.425620 -3.666858 -4.903204 0
M  V30 30 C -1.630558 -3.102340 -3.662138 0
M  V30 31 C -0.946425 -2.174284 -0.446891 0
M  V30 32 C 0.071822 -1.304112 -1.018704 0
M  V30 33 C 0.028427 -0.377614 -2.040126 0
M  V30 34 C 1.166013 0.306955 -2.384304 0
M  V30 35 C 2.376132 0.117313 -1.753830 0
M  V30 36 C 2.433702 -0.803482 -0.733488 0
M  V30 37 C 1.296870 -1.507602 -0.367637 0
M  V30 38 H -0.454372 -1.019864 6.781906 0
M  V30 39 H 0.556607 -2.160316 7.791127 0
M  V30 40 H 1.265932 -0.683344 7.050647 0
M  V30 41 H 1.908546 -2.584354 5.627773 0
M  V30 42 H 0.198158 -3.243639 5.779481 0
M  V30 43 H 2.617286 2.619297 -0.212273 0
M  V30 44 H 2.828343 4.808608 -1.432840 0
M  V30 45 H -0.719790 6.183418 0.540761 0
M  V30 46 H -0.920089 4.092225 1.705459 0
M  V30 47 H -0.873560 1.142177 0.235107 0
M  V30 48 H -2.757075 -4.148482 2.839268 0
M  V30 49 H -4.145358 -4.000934 1.735580 0
M  V30 50 H -3.675370 -2.547684 2.610451 0
M  V30 51 H -3.012401 -4.568036 -0.419295 0
M  V30 52 H -0.575071 -5.654175 -1.711109 0
M  V30 53 H -0.234920 -6.599794 -3.935536 0
M  V30 54 H -0.762534 -5.366839 -5.957085 0
M  V30 55 H -1.685670 -3.053414 -5.779625 0
M  V30 56 H -2.024934 -2.120096 -3.592190 0
M  V30 57 H -0.963427 -0.311625 -2.456813 0
M  V30 58 H 1.034898 1.013992 -3.198307 0
M  V30 59 H 3.209131 0.696576 -2.090363 0
M  V30 60 H 3.399592 -0.916255 -0.271750 0
M  V30 61 H 1.502702 -2.195337 0.451254 0
M  V30 END ATOM
M  V30 BEGIN BOND
M  V30 1 1 1 2
M  V30 2 1 2 3
M  V30 3 1 3 4
M  V30 4 2 4 5
M  V30 5 1 4 6
M  V30 6 2 6 7
M  V30 7 1 7 8
M  V30 8 1 8 9
M  V30 9 2 9 10
M  V30 10 1 10 11
M  V30 11 2 11 12
M  V30 12 1 12 13
M  V30 13 1 12 14
M  V30 14 2 14 15
M  V30 15 1 8 16
M  V30 16 2 16 17
M  V30 17 1 17 18
M  V30 18 2 18 19
M  V30 19 1 18 20
M  V30 20 2 20 21
M  V30 21 1 21 22
M  V30 22 1 21 23
M  V30 23 1 23 24
M  V30 24 1 24 25
M  V30 25 2 25 26
M  V30 26 1 26 27
M  V30 27 2 27 28
M  V30 28 1 28 29
M  V30 29 2 29 30
M  V30 30 2 24 31
M  V30 31 1 31 32
M  V30 32 2 32 33
M  V30 33 1 33 34
M  V30 34 2 34 35
M  V30 35 1 35 36
M  V30 36 2 36 37
M  V30 37 1 17 6
M  V30 38 1 31 20
M  V30 39 1 37 32
M  V30 40 1 15 9
M  V30 41 1 30 25
M  V30 42 1 1 38
M  V30 43 1 1 39
M  V30 44 1 1 40
M  V30 45 1 2 41
M  V30 46 1 2 42
M  V30 47 1 10 43
M  V30 48 1 11 44
M  V30 49 1 14 45
M  V30 50 1 15 46
M  V30 51 1 16 47
M  V30 52 1 22 48
M  V30 53 1 22 49
M  V30 54 1 22 50
M  V30 55 1 23 51
M  V30 56 1 26 52
M  V30 57 1 27 53
M  V30 58 1 28 54
M  V30 59 1 29 55
M  V30 60 1 30 56
M  V30 61 1 33 57
M  V30 62 1 34 58
M  V30 63 1 35 59
M  V30 64 1 36 60
M  V30 65 1 37 61
M  V30 END BOND
M  V30 END CTAB
M  END
>  <Dataset>  (139) 
ChEMBL_Kinases

>  <Ligand_Instance>  (139) 
nan

>  <PDB_ID>  (139) 
nan

>  <Standardized_SMILES>  (139) 
CCOC(=O)c1nn(-c2ccc(Cl)cc2)cc1C(=O)c1c(C)[nH]c(-c2ccccc2)c1-c1ccccc1

>  <Name>  (139) 
nan

>  <Pocket>  (139) 
nan

>  <ATP_Site>  (139) 
nan

>  <Peripheral>  (139) 
nan

>  <Num_H_Atoms_ProtBoundConf>  (139) 
nan

>  <Num_Resolved_Atoms>  (139) 
nan

>  <Num_Not_Resolved_Atoms>  (139) 
nan

$$$$
CHEMBL3741069
     RDKit          3D

  0  0  0  0  0  0  0  0  0  0999 V3000
M  V30 BEGIN CTAB
M  V30 COUNTS 62 67 0 0 0
M  V30 BEGIN ATOM
M  V30 1 C 0.386794 -2.375578 4.194492 0
M  V30 2 C 1.008956 -1.390148 3.229665 0
M  V30 3 N 2.267813 -0.890826 3.422077 0
M  V30 4 C 2.474205 -0.078172 2.377621 0
M  V30 5 C 3.805193 0.582151 2.383135 0
M  V30 6 C 3.655658 1.947619 2.475922 0
M  V30 7 C 4.786529 2.760879 2.495061 0
M  V30 8 C 6.034615 2.153859 2.418865 0
M  V30 9 C 6.145259 0.794691 2.327678 0
M  V30 10 C 5.039714 -0.026733 2.307220 0
M  V30 11 C 1.357199 -0.071277 1.545335 0
M  V30 12 C 1.570300 0.837344 0.454202 0
M  V30 13 C 2.536189 0.729972 -0.505640 0
M  V30 14 C 2.637653 1.748777 -1.436878 0
M  V30 15 C 1.838331 2.876967 -1.481589 0
M  V30 16 C 0.863358 2.951944 -0.489342 0
M  V30 17 C 0.749668 1.945264 0.445621 0
M  V30 18 C 0.414955 -0.893540 2.058389 0
M  V30 19 C -0.897959 -1.265538 1.703008 0
M  V30 20 O -1.541625 -1.181034 2.824044 0
M  V30 21 C -1.774500 -1.688026 0.670534 0
M  V30 22 C -2.603978 -2.801023 0.938923 0
M  V30 23 N -3.403862 -3.172623 -0.064933 0
M  V30 24 C -4.351264 -4.224936 -0.150501 0
M  V30 25 C -5.663991 -3.797422 -0.234503 0
M  V30 26 C -6.704508 -4.697156 -0.323903 0
M  V30 27 C -6.416098 -6.050130 -0.328565 0
M  V30 28 C -5.104266 -6.500636 -0.245048 0
M  V30 29 C -4.075160 -5.584481 -0.156215 0
M  V30 30 N -3.088287 -2.290964 -0.991700 0
M  V30 31 C -2.154911 -1.425435 -0.600663 0
M  V30 32 C -1.731599 -0.407610 -1.528206 0
M  V30 33 C -2.791095 0.358353 -2.046016 0
M  V30 34 C -2.642082 1.347654 -2.993713 0
M  V30 35 C -1.382163 1.633244 -3.491527 0
M  V30 36 C -0.367438 0.882322 -2.980028 0
M  V30 37 C -0.492678 -0.103338 -2.038523 0
M  V30 38 H 1.149782 -2.987402 4.680327 0
M  V30 39 H -0.299947 -3.004985 3.584672 0
M  V30 40 H -0.188870 -1.849908 4.982690 0
M  V30 41 H 2.845512 -1.171406 4.259350 0
M  V30 42 H 2.747395 2.510935 2.539226 0
M  V30 43 H 4.756639 3.846769 2.566001 0
M  V30 44 H 6.931634 2.780895 2.432875 0
M  V30 45 H 7.113330 0.275010 2.265353 0
M  V30 46 H 5.000690 -1.100118 2.238656 0
M  V30 47 H 3.175615 -0.139629 -0.496967 0
M  V30 48 H 3.426233 1.598469 -2.168335 0
M  V30 49 H 2.017762 3.592088 -2.250721 0
M  V30 50 H 0.225970 3.838174 -0.515438 0
M  V30 51 H -0.051685 2.107831 1.179448 0
M  V30 52 H -2.669701 -3.397282 1.866071 0
M  V30 53 H -5.950223 -2.738331 -0.235273 0
M  V30 54 H -7.722117 -4.352862 -0.388585 0
M  V30 55 H -7.188926 -6.816572 -0.396752 0
M  V30 56 H -4.842423 -7.541364 -0.245966 0
M  V30 57 H -3.016437 -5.815331 -0.086404 0
M  V30 58 H -3.827900 0.212471 -1.720395 0
M  V30 59 H -3.484923 1.913501 -3.364481 0
M  V30 60 H -1.249330 2.404913 -4.233614 0
M  V30 61 H 0.623886 1.089899 -3.372548 0
M  V30 62 H 0.291929 -0.712419 -1.619784 0
M  V30 END ATOM
M  V30 BEGIN BOND
M  V30 1 1 1 2
M  V30 2 1 2 3
M  V30 3 1 3 4
M  V30 4 1 4 5
M  V30 5 2 5 6
M  V30 6 1 6 7
M  V30 7 2 7 8
M  V30 8 1 8 9
M  V30 9 2 9 10
M  V30 10 2 4 11
M  V30 11 1 11 12
M  V30 12 2 12 13
M  V30 13 1 13 14
M  V30 14 2 14 15
M  V30 15 1 15 16
M  V30 16 2 16 17
M  V30 17 1 11 18
M  V30 18 1 18 19
M  V30 19 2 19 20
M  V30 20 1 19 21
M  V30 21 2 21 22
M  V30 22 1 22 23
M  V30 23 1 23 24
M  V30 24 2 24 25
M  V30 25 1 25 26
M  V30 26 2 26 27
M  V30 27 1 27 28
M  V30 28 2 28 29
M  V30 29 1 23 30
M  V30 30 2 30 31
M  V30 31 1 31 32
M  V30 32 2 32 33
M  V30 33 1 33 34
M  V30 34 2 34 35
M  V30 35 1 35 36
M  V30 36 2 36 37
M  V30 37 2 18 2
M  V30 38 1 31 21
M  V30 39 1 37 32
M  V30 40 1 10 5
M  V30 41 1 17 12
M  V30 42 1 29 24
M  V30 43 1 1 38
M  V30 44 1 1 39
M  V30 45 1 1 40
M  V30 46 1 3 41
M  V30 47 1 6 42
M  V30 48 1 7 43
M  V30 49 1 8 44
M  V30 50 1 9 45
M  V30 51 1 10 46
M  V30 52 1 13 47
M  V30 53 1 14 48
M  V30 54 1 15 49
M  V30 55 1 16 50
M  V30 56 1 17 51
M  V30 57 1 22 52
M  V30 58 1 25 53
M  V30 59 1 26 54
M  V30 60 1 27 55
M  V30 61 1 28 56
M  V30 62 1 29 57
M  V30 63 1 33 58
M  V30 64 1 34 59
M  V30 65 1 35 60
M  V30 66 1 36 61
M  V30 67 1 37 62
M  V30 END BOND
M  V30 END CTAB
M  END
>  <Dataset>  (140) 
ChEMBL_Kinases

>  <Ligand_Instance>  (140) 
nan

>  <PDB_ID>  (140) 
nan

>  <Standardized_SMILES>  (140) 
Cc1[nH]c(-c2ccccc2)c(-c2ccccc2)c1C(=O)c1cn(-c2ccccc2)nc1-c1ccccc1

>  <Name>  (140) 
nan

>  <Pocket>  (140) 
nan

>  <ATP_Site>  (140) 
nan

>  <Peripheral>  (140) 
nan

>  <Num_H_Atoms_ProtBoundConf>  (140) 
nan

>  <Num_Resolved_Atoms>  (140) 
nan

>  <Num_Not_Resolved_Atoms>  (140) 
nan

$$$$
CHEMBL3740930
     RDKit          3D

  0  0  0  0  0  0  0  0  0  0999 V3000
M  V30 BEGIN CTAB
M  V30 COUNTS 66 71 0 0 0
M  V30 BEGIN ATOM
M  V30 1 C 2.446563 3.133403 -0.244130 0
M  V30 2 C 2.170209 1.747864 -0.722569 0
M  V30 3 N 2.972489 1.069227 -1.596475 0
M  V30 4 C 2.471231 -0.174365 -1.853241 0
M  V30 5 C 3.115504 -1.124965 -2.751433 0
M  V30 6 C 3.601417 -2.348093 -2.334295 0
M  V30 7 C 4.213203 -3.262646 -3.163934 0
M  V30 8 C 4.346235 -2.925712 -4.505448 0
M  V30 9 C 3.863816 -1.706125 -4.931123 0
M  V30 10 C 3.248539 -0.790705 -4.087254 0
M  V30 11 C 1.316958 -0.261861 -1.107647 0
M  V30 12 C 0.551833 -1.474223 -1.161273 0
M  V30 13 C -0.037389 -1.725097 -2.406061 0
M  V30 14 C -0.796134 -2.843803 -2.639979 0
M  V30 15 C -0.991720 -3.757020 -1.625317 0
M  V30 16 C -0.420952 -3.533745 -0.385736 0
M  V30 17 C 0.342682 -2.412132 -0.142804 0
M  V30 18 C 1.126713 0.908851 -0.414898 0
M  V30 19 C 0.029811 1.220644 0.487937 0
M  V30 20 O 0.166840 2.349570 1.072135 0
M  V30 21 C -1.155948 0.456652 0.805991 0
M  V30 22 C -2.081740 -0.084140 -0.062413 0
M  V30 23 N -2.996027 -0.625110 0.758337 0
M  V30 24 C -4.148974 -1.300524 0.236738 0
M  V30 25 C -5.217638 -0.607420 -0.308950 0
M  V30 26 C -6.298416 -1.349282 -0.794019 0
M  V30 27 C -6.302099 -2.716424 -0.732467 0
M  V30 28 C -5.231009 -3.422147 -0.185029 0
M  V30 29 C -4.168662 -2.680751 0.291181 0
M  V30 30 N -2.678415 -0.444183 2.023984 0
M  V30 31 C -1.513078 0.239225 2.114173 0
M  V30 32 C -1.035520 0.451586 3.466659 0
M  V30 33 O -1.697320 0.310542 4.552902 0
M  V30 34 N 0.256377 0.853802 3.879708 0
M  V30 35 C 0.350708 0.963453 5.314301 0
M  V30 36 C 0.029938 2.226421 5.819603 0
M  V30 37 C 0.089771 2.437239 7.189843 0
M  V30 38 C 0.455574 1.441756 8.072739 0
M  V30 39 C 0.768936 0.194946 7.536609 0
M  V30 40 C 0.719390 -0.047967 6.177887 0
M  V30 41 H 2.366833 3.101177 0.874812 0
M  V30 42 H 1.700861 3.825842 -0.642397 0
M  V30 43 H 3.485248 3.429586 -0.537494 0
M  V30 44 H 3.849097 1.473381 -1.999844 0
M  V30 45 H 3.493844 -2.606887 -1.279439 0
M  V30 46 H 4.588008 -4.210283 -2.833992 0
M  V30 47 H 4.810985 -3.563490 -5.259661 0
M  V30 48 H 3.951747 -1.412216 -5.971538 0
M  V30 49 H 2.872011 0.166607 -4.432526 0
M  V30 50 H 0.064178 -1.069833 -3.244045 0
M  V30 51 H -1.259684 -3.057797 -3.590530 0
M  V30 52 H -1.584176 -4.668089 -1.743362 0
M  V30 53 H -0.530083 -4.208787 0.464852 0
M  V30 54 H 0.831400 -2.140874 0.779965 0
M  V30 55 H -2.018561 -0.041800 -1.136810 0
M  V30 56 H -5.203132 0.480264 -0.352427 0
M  V30 57 H -7.153223 -0.847728 -1.228236 0
M  V30 58 H -7.122612 -3.301705 -1.099794 0
M  V30 59 H -5.238115 -4.498120 -0.138465 0
M  V30 60 H -3.340962 -3.234919 0.714674 0
M  V30 61 H 1.005492 1.020152 3.175348 0
M  V30 62 H -0.263679 3.046283 5.177763 0
M  V30 63 H -0.162574 3.426260 7.572603 0
M  V30 64 H 0.508474 1.585701 9.145658 0
M  V30 65 H 1.067832 -0.654596 8.140128 0
M  V30 66 H 0.953876 -0.999170 5.717763 0
M  V30 END ATOM
M  V30 BEGIN BOND
M  V30 1 1 1 2
M  V30 2 1 2 3
M  V30 3 1 3 4
M  V30 4 1 4 5
M  V30 5 2 5 6
M  V30 6 1 6 7
M  V30 7 2 7 8
M  V30 8 1 8 9
M  V30 9 2 9 10
M  V30 10 2 4 11
M  V30 11 1 11 12
M  V30 12 2 12 13
M  V30 13 1 13 14
M  V30 14 2 14 15
M  V30 15 1 15 16
M  V30 16 2 16 17
M  V30 17 1 11 18
M  V30 18 1 18 19
M  V30 19 2 19 20
M  V30 20 1 19 21
M  V30 21 2 21 22
M  V30 22 1 22 23
M  V30 23 1 23 24
M  V30 24 2 24 25
M  V30 25 1 25 26
M  V30 26 2 26 27
M  V30 27 1 27 28
M  V30 28 2 28 29
M  V30 29 1 23 30
M  V30 30 2 30 31
M  V30 31 1 31 32
M  V30 32 2 32 33
M  V30 33 1 32 34
M  V30 34 1 34 35
M  V30 35 2 35 36
M  V30 36 1 36 37
M  V30 37 2 37 38
M  V30 38 1 38 39
M  V30 39 2 39 40
M  V30 40 2 18 2
M  V30 41 1 31 21
M  V30 42 1 40 35
M  V30 43 1 10 5
M  V30 44 1 17 12
M  V30 45 1 29 24
M  V30 46 1 1 41
M  V30 47 1 1 42
M  V30 48 1 1 43
M  V30 49 1 3 44
M  V30 50 1 6 45
M  V30 51 1 7 46
M  V30 52 1 8 47
M  V30 53 1 9 48
M  V30 54 1 10 49
M  V30 55 1 13 50
M  V30 56 1 14 51
M  V30 57 1 15 52
M  V30 58 1 16 53
M  V30 59 1 17 54
M  V30 60 1 22 55
M  V30 61 1 25 56
M  V30 62 1 26 57
M  V30 63 1 27 58
M  V30 64 1 28 59
M  V30 65 1 29 60
M  V30 66 1 34 61
M  V30 67 1 36 62
M  V30 68 1 37 63
M  V30 69 1 38 64
M  V30 70 1 39 65
M  V30 71 1 40 66
M  V30 END BOND
M  V30 END CTAB
M  END
>  <Dataset>  (141) 
ChEMBL_Kinases

>  <Ligand_Instance>  (141) 
nan

>  <PDB_ID>  (141) 
nan

>  <Standardized_SMILES>  (141) 
Cc1[nH]c(-c2ccccc2)c(-c2ccccc2)c1C(=O)c1cn(-c2ccccc2)nc1C(=O)Nc1ccccc1

>  <Name>  (141) 
nan

>  <Pocket>  (141) 
nan

>  <ATP_Site>  (141) 
nan

>  <Peripheral>  (141) 
nan

>  <Num_H_Atoms_ProtBoundConf>  (141) 
nan

>  <Num_Resolved_Atoms>  (141) 
nan

>  <Num_Not_Resolved_Atoms>  (141) 
nan

$$$$
CHEMBL3740923
     RDKit          3D

  0  0  0  0  0  0  0  0  0  0999 V3000
M  V30 BEGIN CTAB
M  V30 COUNTS 52 57 0 0 0
M  V30 BEGIN ATOM
M  V30 1 O -1.079822 -5.646097 3.441453 0
M  V30 2 C -0.443157 -4.443983 3.161220 0
M  V30 3 N 0.183752 -3.694642 4.096378 0
M  V30 4 N 0.785167 -2.562561 3.840267 0
M  V30 5 C 0.814794 -2.057327 2.572964 0
M  V30 6 C 1.467615 -0.814425 2.248258 0
M  V30 7 C 2.822366 -0.620316 2.404520 0
M  V30 8 N 3.157964 0.642910 2.019590 0
M  V30 9 C 2.031005 1.282545 1.610347 0
M  V30 10 C 2.019970 2.659218 1.127449 0
M  V30 11 C 1.744829 3.182180 -0.117940 0
M  V30 12 C 1.799275 4.545279 -0.319045 0
M  V30 13 C 2.127779 5.392758 0.717812 0
M  V30 14 C 2.409677 4.905997 1.978486 0
M  V30 15 C 2.352124 3.527114 2.172842 0
M  V30 16 C 0.995985 0.383747 1.752558 0
M  V30 17 C -0.401198 0.628872 1.436185 0
M  V30 18 C -1.000145 0.874065 0.218987 0
M  V30 19 C -2.346975 1.089172 0.117613 0
M  V30 20 C -3.171417 1.069092 1.245283 0
M  V30 21 C -2.572413 0.824543 2.456213 0
M  V30 22 C -1.208064 0.607274 2.553999 0
M  V30 23 C 0.184357 -2.799572 1.601167 0
M  V30 24 C 0.035601 -2.573024 0.250110 0
M  V30 25 N -0.663101 -3.584385 -0.300027 0
M  V30 26 C -1.110867 -3.884576 -1.623161 0
M  V30 27 C -0.506193 -5.008001 -2.150120 0
M  V30 28 C -0.844002 -5.418552 -3.426857 0
M  V30 29 C -1.776580 -4.713339 -4.169125 0
M  V30 30 C -2.367628 -3.588671 -3.613570 0
M  V30 31 C -2.044265 -3.155053 -2.329816 0
M  V30 32 N -0.936377 -4.409499 0.683963 0
M  V30 33 C -0.448241 -3.986485 1.859458 0
M  V30 34 H -1.909805 -5.611434 4.041676 0
M  V30 35 H 3.549332 -1.352599 2.780206 0
M  V30 36 H 4.145786 1.008364 2.055117 0
M  V30 37 H 1.508300 2.409653 -0.826518 0
M  V30 38 H 1.564434 4.847793 -1.332682 0
M  V30 39 H 2.150922 6.460819 0.481951 0
M  V30 40 H 2.658303 5.618833 2.739968 0
M  V30 41 H 2.593184 3.265365 3.205650 0
M  V30 42 H -0.303583 0.872839 -0.607412 0
M  V30 43 H -2.656335 1.265651 -0.905476 0
M  V30 44 H -4.214518 1.252882 1.035535 0
M  V30 45 H -3.289181 0.827198 3.278353 0
M  V30 46 H -0.931513 0.432859 3.597965 0
M  V30 47 H 0.380322 -1.752458 -0.376667 0
M  V30 48 H 0.224411 -5.612229 -1.648701 0
M  V30 49 H -0.417180 -6.297912 -3.928963 0
M  V30 50 H -2.118850 -4.938060 -5.173927 0
M  V30 51 H -3.114517 -2.956572 -4.106407 0
M  V30 52 H -2.466985 -2.291793 -1.843440 0
M  V30 END ATOM
M  V30 BEGIN BOND
M  V30 1 1 1 2
M  V30 2 2 2 3
M  V30 3 1 3 4
M  V30 4 2 4 5
M  V30 5 1 5 6
M  V30 6 2 6 7
M  V30 7 1 7 8
M  V30 8 1 8 9
M  V30 9 1 9 10
M  V30 10 2 10 11
M  V30 11 1 11 12
M  V30 12 2 12 13
M  V30 13 1 13 14
M  V30 14 2 14 15
M  V30 15 2 9 16
M  V30 16 1 16 17
M  V30 17 2 17 18
M  V30 18 1 18 19
M  V30 19 2 19 20
M  V30 20 1 20 21
M  V30 21 2 21 22
M  V30 22 1 5 23
M  V30 23 2 23 24
M  V30 24 1 24 25
M  V30 25 1 25 26
M  V30 26 2 26 27
M  V30 27 1 27 28
M  V30 28 2 28 29
M  V30 29 1 29 30
M  V30 30 2 30 31
M  V30 31 1 25 32
M  V30 32 2 32 33
M  V30 33 1 33 2
M  V30 34 1 16 6
M  V30 35 1 22 17
M  V30 36 1 33 23
M  V30 37 1 15 10
M  V30 38 1 31 26
M  V30 39 1 1 34
M  V30 40 1 7 35
M  V30 41 1 8 36
M  V30 42 1 11 37
M  V30 43 1 12 38
M  V30 44 1 13 39
M  V30 45 1 14 40
M  V30 46 1 15 41
M  V30 47 1 18 42
M  V30 48 1 19 43
M  V30 49 1 20 44
M  V30 50 1 21 45
M  V30 51 1 22 46
M  V30 52 1 24 47
M  V30 53 1 27 48
M  V30 54 1 28 49
M  V30 55 1 29 50
M  V30 56 1 30 51
M  V30 57 1 31 52
M  V30 END BOND
M  V30 END CTAB
M  END
>  <Dataset>  (142) 
ChEMBL_Kinases

>  <Ligand_Instance>  (142) 
nan

>  <PDB_ID>  (142) 
nan

>  <Standardized_SMILES>  (142) 
Oc1nnc(-c2c[nH]c(-c3ccccc3)c2-c2ccccc2)c2cn(-c3ccccc3)nc12

>  <Name>  (142) 
nan

>  <Pocket>  (142) 
nan

>  <ATP_Site>  (142) 
nan

>  <Peripheral>  (142) 
nan

>  <Num_H_Atoms_ProtBoundConf>  (142) 
nan

>  <Num_Resolved_Atoms>  (142) 
nan

>  <Num_Not_Resolved_Atoms>  (142) 
nan

$$$$
CHEMBL3740713
     RDKit          3D

  0  0  0  0  0  0  0  0  0  0999 V3000
M  V30 BEGIN CTAB
M  V30 COUNTS 69 74 0 0 0
M  V30 BEGIN ATOM
M  V30 1 C 2.316007 -7.085471 5.626640 0
M  V30 2 C 2.148072 -5.827681 4.852670 0
M  V30 3 C 0.943669 -5.503244 4.261578 0
M  V30 4 C 0.747011 -4.348490 3.536436 0
M  V30 5 C 1.830105 -3.478069 3.404868 0
M  V30 6 N 1.542626 -2.312099 2.641557 0
M  V30 7 C 2.186187 -2.043771 1.492248 0
M  V30 8 C 1.714642 -0.844545 0.944203 0
M  V30 9 C 2.164733 -0.281586 -0.314109 0
M  V30 10 O 3.428860 -0.195541 -0.316560 0
M  V30 11 C 1.446982 0.167862 -1.493022 0
M  V30 12 C 2.076001 0.883660 -2.487983 0
M  V30 13 C 3.446529 1.399216 -2.689894 0
M  V30 14 N 1.128204 1.103329 -3.428132 0
M  V30 15 C -0.059001 0.574890 -3.096856 0
M  V30 16 C -1.310568 0.599291 -3.843954 0
M  V30 17 C -1.993027 1.761018 -4.153376 0
M  V30 18 C -3.168681 1.830886 -4.853118 0
M  V30 19 C -3.676831 0.605633 -5.264053 0
M  V30 20 C -3.085639 -0.616507 -5.014968 0
M  V30 21 C -1.904429 -0.555916 -4.300509 0
M  V30 22 C 0.130241 -0.021493 -1.871089 0
M  V30 23 C -0.884472 -0.727177 -1.137343 0
M  V30 24 C -0.494702 -2.050050 -0.898474 0
M  V30 25 C -1.310588 -2.942371 -0.205192 0
M  V30 26 C -2.522769 -2.482770 0.242944 0
M  V30 27 C -2.938524 -1.189862 0.026697 0
M  V30 28 C -2.112516 -0.305810 -0.669088 0
M  V30 29 C 0.759322 -0.432808 1.846884 0
M  V30 30 C -0.015074 0.796500 1.745063 0
M  V30 31 O 0.075274 1.670940 0.854186 0
M  V30 32 N -1.009734 1.107718 2.740704 0
M  V30 33 C -1.609956 2.375450 2.387754 0
M  V30 34 C -2.716818 2.533321 1.585667 0
M  V30 35 C -3.212200 3.790270 1.308594 0
M  V30 36 C -2.549729 4.869935 1.869389 0
M  V30 37 C -1.437995 4.766330 2.678649 0
M  V30 38 C -0.981389 3.482400 2.925503 0
M  V30 39 N 0.678302 -1.312282 2.832175 0
M  V30 40 C 3.058522 -3.744783 3.971151 0
M  V30 41 C 3.183930 -4.930932 4.690215 0
M  V30 42 H 1.353319 -7.454176 6.032730 0
M  V30 43 H 2.753341 -7.854506 4.955780 0
M  V30 44 H 3.020805 -6.963682 6.472515 0
M  V30 45 H 0.109712 -6.187230 4.370991 0
M  V30 46 H -0.230817 -4.147281 3.091376 0
M  V30 47 H 2.969842 -2.646840 1.017920 0
M  V30 48 H 4.024197 0.666344 -3.289307 0
M  V30 49 H 3.440077 2.353685 -3.266505 0
M  V30 50 H 3.997224 1.542134 -1.741606 0
M  V30 51 H 1.219779 1.616650 -4.342088 0
M  V30 52 H -1.529582 2.687702 -3.793925 0
M  V30 53 H -3.670276 2.763484 -5.073930 0
M  V30 54 H -4.605486 0.595963 -5.823000 0
M  V30 55 H -3.515665 -1.547876 -5.354263 0
M  V30 56 H -1.380254 -1.492703 -4.066787 0
M  V30 57 H 0.446976 -2.524367 -1.208674 0
M  V30 58 H -1.086260 -3.956619 0.015271 0
M  V30 59 H -3.212517 -3.118985 0.790651 0
M  V30 60 H -3.871852 -0.746327 0.342217 0
M  V30 61 H -2.286200 0.733454 -0.922176 0
M  V30 62 H -1.127622 0.403164 3.510708 0
M  V30 63 H -3.171876 1.645153 1.189593 0
M  V30 64 H -4.084574 3.908050 0.675326 0
M  V30 65 H -2.912338 5.885579 1.673431 0
M  V30 66 H -0.968282 5.658403 3.085188 0
M  V30 67 H -0.096333 3.447000 3.573217 0
M  V30 68 H 3.861273 -3.034435 3.836030 0
M  V30 69 H 4.151647 -5.122911 5.125590 0
M  V30 END ATOM
M  V30 BEGIN BOND
M  V30 1 1 1 2
M  V30 2 2 2 3
M  V30 3 1 3 4
M  V30 4 2 4 5
M  V30 5 1 5 6
M  V30 6 1 6 7
M  V30 7 2 7 8
M  V30 8 1 8 9
M  V30 9 2 9 10
M  V30 10 1 9 11
M  V30 11 2 11 12
M  V30 12 1 12 13
M  V30 13 1 12 14
M  V30 14 1 14 15
M  V30 15 1 15 16
M  V30 16 2 16 17
M  V30 17 1 17 18
M  V30 18 2 18 19
M  V30 19 1 19 20
M  V30 20 2 20 21
M  V30 21 2 15 22
M  V30 22 1 22 23
M  V30 23 2 23 24
M  V30 24 1 24 25
M  V30 25 2 25 26
M  V30 26 1 26 27
M  V30 27 2 27 28
M  V30 28 1 8 29
M  V30 29 1 29 30
M  V30 30 2 30 31
M  V30 31 1 30 32
M  V30 32 1 32 33
M  V30 33 2 33 34
M  V30 34 1 34 35
M  V30 35 2 35 36
M  V30 36 1 36 37
M  V30 37 2 37 38
M  V30 38 2 29 39
M  V30 39 1 5 40
M  V30 40 2 40 41
M  V30 41 1 41 2
M  V30 42 1 39 6
M  V30 43 1 22 11
M  V30 44 1 28 23
M  V30 45 1 38 33
M  V30 46 1 21 16
M  V30 47 1 1 42
M  V30 48 1 1 43
M  V30 49 1 1 44
M  V30 50 1 3 45
M  V30 51 1 4 46
M  V30 52 1 7 47
M  V30 53 1 13 48
M  V30 54 1 13 49
M  V30 55 1 13 50
M  V30 56 1 14 51
M  V30 57 1 17 52
M  V30 58 1 18 53
M  V30 59 1 19 54
M  V30 60 1 20 55
M  V30 61 1 21 56
M  V30 62 1 24 57
M  V30 63 1 25 58
M  V30 64 1 26 59
M  V30 65 1 27 60
M  V30 66 1 28 61
M  V30 67 1 32 62
M  V30 68 1 34 63
M  V30 69 1 35 64
M  V30 70 1 36 65
M  V30 71 1 37 66
M  V30 72 1 38 67
M  V30 73 1 40 68
M  V30 74 1 41 69
M  V30 END BOND
M  V30 END CTAB
M  END
>  <Dataset>  (143) 
ChEMBL_Kinases

>  <Ligand_Instance>  (143) 
nan

>  <PDB_ID>  (143) 
nan

>  <Standardized_SMILES>  (143) 
Cc1ccc(-n2cc(C(=O)c3c(C)[nH]c(-c4ccccc4)c3-c3ccccc3)c(C(=O)Nc3ccccc3)n2)cc1

>  <Name>  (143) 
nan

>  <Pocket>  (143) 
nan

>  <ATP_Site>  (143) 
nan

>  <Peripheral>  (143) 
nan

>  <Num_H_Atoms_ProtBoundConf>  (143) 
nan

>  <Num_Resolved_Atoms>  (143) 
nan

>  <Num_Not_Resolved_Atoms>  (143) 
nan

$$$$
CHEMBL374071
     RDKit          3D

  0  0  0  0  0  0  0  0  0  0999 V3000
M  V30 BEGIN CTAB
M  V30 COUNTS 46 49 0 0 0
M  V30 BEGIN ATOM
M  V30 1 N -0.402373 -4.985466 4.088238 0
M  V30 2 C 0.156063 -4.589768 3.179887 0
M  V30 3 C 0.875875 -4.066910 2.037397 0
M  V30 4 C 1.801789 -4.813376 1.338925 0
M  V30 5 N 2.480812 -4.347379 0.275992 0
M  V30 6 C 2.249178 -3.097672 -0.126902 0
M  V30 7 C 2.945668 -2.626749 -1.213421 0
M  V30 8 C 2.762477 -1.361113 -1.682398 0
M  V30 9 C 1.858049 -0.482794 -1.080736 0
M  V30 10 N 1.647304 0.820620 -1.576069 0
M  V30 11 C 0.857546 1.938766 -1.162668 0
M  V30 12 C 1.430413 2.630258 0.050520 0
M  V30 13 C 0.644239 3.876060 0.368471 0
M  V30 14 C 0.672348 3.944404 1.855552 0
M  V30 15 C 1.219131 2.631942 2.276290 0
M  V30 16 O 1.561591 1.895917 1.173728 0
M  V30 17 C 1.189090 -1.009696 0.002446 0
M  V30 18 C 1.341174 -2.281344 0.512246 0
M  V30 19 C 0.646045 -2.760349 1.601455 0
M  V30 20 N -0.288142 -1.911967 2.254368 0
M  V30 21 C -1.653889 -1.868695 1.859531 0
M  V30 22 C -2.608641 -1.061956 2.459055 0
M  V30 23 C -3.911932 -1.078894 2.016609 0
M  V30 24 C -4.313368 -1.887599 0.974340 0
M  V30 25 F -5.602381 -1.916858 0.522653 0
M  V30 26 C -3.405969 -2.717409 0.333420 0
M  V30 27 Cl -3.796185 -3.785544 -0.997745 0
M  V30 28 C -2.116218 -2.656445 0.821110 0
M  V30 29 H 1.929965 -5.814259 1.729984 0
M  V30 30 H 3.663359 -3.246363 -1.732868 0
M  V30 31 H 3.331701 -1.013509 -2.550164 0
M  V30 32 H 2.191730 1.036302 -2.452111 0
M  V30 33 H 0.711322 2.687658 -1.948730 0
M  V30 34 H -0.176348 1.554961 -0.922990 0
M  V30 35 H 2.471801 2.943926 -0.265508 0
M  V30 36 H 1.121113 4.760321 -0.115866 0
M  V30 37 H -0.373597 3.725496 -0.011667 0
M  V30 38 H -0.322907 4.171135 2.284279 0
M  V30 39 H 1.341783 4.792097 2.179624 0
M  V30 40 H 0.477224 2.098292 2.909325 0
M  V30 41 H 2.135706 2.727194 2.916675 0
M  V30 42 H 0.452557 -0.439140 0.545872 0
M  V30 43 H -0.026600 -1.288916 3.041685 0
M  V30 44 H -2.252811 -0.440423 3.275469 0
M  V30 45 H -4.650135 -0.436935 2.500659 0
M  V30 46 H -1.377263 -3.294290 0.341938 0
M  V30 END ATOM
M  V30 BEGIN BOND
M  V30 1 3 1 2
M  V30 2 1 2 3
M  V30 3 2 3 4
M  V30 4 1 4 5
M  V30 5 2 5 6
M  V30 6 1 6 7
M  V30 7 2 7 8
M  V30 8 1 8 9
M  V30 9 1 9 10
M  V30 10 1 10 11
M  V30 11 1 11 12
M  V30 12 1 12 13
M  V30 13 1 13 14
M  V30 14 1 14 15
M  V30 15 1 15 16
M  V30 16 2 9 17
M  V30 17 1 17 18
M  V30 18 2 18 19
M  V30 19 1 19 20
M  V30 20 1 20 21
M  V30 21 2 21 22
M  V30 22 1 22 23
M  V30 23 2 23 24
M  V30 24 1 24 25
M  V30 25 1 24 26
M  V30 26 1 26 27
M  V30 27 2 26 28
M  V30 28 1 19 3
M  V30 29 1 28 21
M  V30 30 1 18 6
M  V30 31 1 16 12
M  V30 32 1 4 29
M  V30 33 1 7 30
M  V30 34 1 8 31
M  V30 35 1 10 32
M  V30 36 1 11 33
M  V30 37 1 11 34
M  V30 38 1 12 35
M  V30 39 1 13 36
M  V30 40 1 13 37
M  V30 41 1 14 38
M  V30 42 1 14 39
M  V30 43 1 15 40
M  V30 44 1 15 41
M  V30 45 1 17 42
M  V30 46 1 20 43
M  V30 47 1 22 44
M  V30 48 1 23 45
M  V30 49 1 28 46
M  V30 END BOND
M  V30 END CTAB
M  END
>  <Dataset>  (144) 
ChEMBL_Kinases

>  <Ligand_Instance>  (144) 
nan

>  <PDB_ID>  (144) 
nan

>  <Standardized_SMILES>  (144) 
N#Cc1cnc2ccc(NCC3CCCO3)cc2c1Nc1ccc(F)c(Cl)c1

>  <Name>  (144) 
nan

>  <Pocket>  (144) 
nan

>  <ATP_Site>  (144) 
nan

>  <Peripheral>  (144) 
nan

>  <Num_H_Atoms_ProtBoundConf>  (144) 
nan

>  <Num_Resolved_Atoms>  (144) 
nan

>  <Num_Not_Resolved_Atoms>  (144) 
nan

$$$$
CHEMBL3740582
     RDKit          3D

  0  0  0  0  0  0  0  0  0  0999 V3000
M  V30 BEGIN CTAB
M  V30 COUNTS 57 62 0 0 0
M  V30 BEGIN ATOM
M  V30 1 C 2.093501 -3.296572 2.781709 0
M  V30 2 C 1.880559 -1.895397 2.316087 0
M  V30 3 N 2.822072 -0.976529 2.106681 0
M  V30 4 C 2.208666 0.170441 1.687103 0
M  V30 5 C 2.942568 1.392232 1.363001 0
M  V30 6 C 3.765399 2.168502 2.153213 0
M  V30 7 C 4.347595 3.291839 1.604598 0
M  V30 8 C 4.147840 3.681440 0.296560 0
M  V30 9 C 3.324473 2.905404 -0.496172 0
M  V30 10 C 2.728495 1.771755 0.034421 0
M  V30 11 C 0.823986 -0.031332 1.629181 0
M  V30 12 C -0.062390 1.040337 1.220617 0
M  V30 13 C -0.052148 2.056242 2.184951 0
M  V30 14 C -0.820214 3.213193 2.036270 0
M  V30 15 C -1.609980 3.358031 0.908128 0
M  V30 16 C -1.622787 2.355567 -0.048051 0
M  V30 17 C -0.859634 1.220346 0.113369 0
M  V30 18 C 0.648636 -1.337159 2.029087 0
M  V30 19 C -0.662321 -1.968175 2.107255 0
M  V30 20 N -1.331341 -2.136628 3.276592 0
M  V30 21 N -2.521447 -2.701227 3.359942 0
M  V30 22 C -3.207262 -3.174482 2.293445 0
M  V30 23 C -4.546229 -3.804624 2.427711 0
M  V30 24 C -2.595224 -3.042046 1.060419 0
M  V30 25 N -2.962369 -3.389775 -0.192830 0
M  V30 26 N -2.010508 -3.046081 -1.051657 0
M  V30 27 C -1.918157 -3.193291 -2.460077 0
M  V30 28 C -3.007827 -3.108452 -3.309372 0
M  V30 29 C -2.838550 -3.261468 -4.661310 0
M  V30 30 C -1.615002 -3.500852 -5.236856 0
M  V30 31 C -0.515955 -3.589192 -4.409724 0
M  V30 32 C -0.702220 -3.432906 -3.050196 0
M  V30 33 C -1.032475 -2.474786 -0.327831 0
M  V30 34 C -1.351103 -2.446662 1.012745 0
M  V30 35 H 2.886965 -3.395288 3.522005 0
M  V30 36 H 2.300819 -3.923263 1.864938 0
M  V30 37 H 1.154667 -3.694993 3.205276 0
M  V30 38 H 3.839652 -1.120661 2.242038 0
M  V30 39 H 3.857968 1.787287 3.146744 0
M  V30 40 H 4.978124 3.862730 2.254167 0
M  V30 41 H 4.621200 4.568247 -0.100315 0
M  V30 42 H 3.183410 3.231879 -1.518603 0
M  V30 43 H 2.106053 1.250980 -0.688937 0
M  V30 44 H 0.516058 2.083007 3.118141 0
M  V30 45 H -0.846200 4.020159 2.748254 0
M  V30 46 H -2.224556 4.241041 0.748765 0
M  V30 47 H -2.212542 2.400514 -0.950070 0
M  V30 48 H -0.783802 0.377761 -0.558757 0
M  V30 49 H -4.943383 -3.967467 1.403742 0
M  V30 50 H -5.248984 -3.165349 3.000098 0
M  V30 51 H -4.400500 -4.799156 2.920270 0
M  V30 52 H -3.999469 -2.918137 -2.882118 0
M  V30 53 H -3.680076 -3.197966 -5.338584 0
M  V30 54 H -1.485652 -3.622443 -6.311667 0
M  V30 55 H 0.474976 -3.773209 -4.776273 0
M  V30 56 H 0.170438 -3.504918 -2.402889 0
M  V30 57 H -0.091798 -2.072200 -0.714142 0
M  V30 END ATOM
M  V30 BEGIN BOND
M  V30 1 1 1 2
M  V30 2 1 2 3
M  V30 3 1 3 4
M  V30 4 1 4 5
M  V30 5 2 5 6
M  V30 6 1 6 7
M  V30 7 2 7 8
M  V30 8 1 8 9
M  V30 9 2 9 10
M  V30 10 2 4 11
M  V30 11 1 11 12
M  V30 12 2 12 13
M  V30 13 1 13 14
M  V30 14 2 14 15
M  V30 15 1 15 16
M  V30 16 2 16 17
M  V30 17 1 11 18
M  V30 18 1 18 19
M  V30 19 2 19 20
M  V30 20 1 20 21
M  V30 21 2 21 22
M  V30 22 1 22 23
M  V30 23 1 22 24
M  V30 24 2 24 25
M  V30 25 1 25 26
M  V30 26 1 26 27
M  V30 27 2 27 28
M  V30 28 1 28 29
M  V30 29 2 29 30
M  V30 30 1 30 31
M  V30 31 2 31 32
M  V30 32 1 26 33
M  V30 33 2 33 34
M  V30 34 2 18 2
M  V30 35 1 34 19
M  V30 36 1 10 5
M  V30 37 1 17 12
M  V30 38 1 34 24
M  V30 39 1 32 27
M  V30 40 1 1 35
M  V30 41 1 1 36
M  V30 42 1 1 37
M  V30 43 1 3 38
M  V30 44 1 6 39
M  V30 45 1 7 40
M  V30 46 1 8 41
M  V30 47 1 9 42
M  V30 48 1 10 43
M  V30 49 1 13 44
M  V30 50 1 14 45
M  V30 51 1 15 46
M  V30 52 1 16 47
M  V30 53 1 17 48
M  V30 54 1 23 49
M  V30 55 1 23 50
M  V30 56 1 23 51
M  V30 57 1 28 52
M  V30 58 1 29 53
M  V30 59 1 30 54
M  V30 60 1 31 55
M  V30 61 1 32 56
M  V30 62 1 33 57
M  V30 END BOND
M  V30 END CTAB
M  END
>  <Dataset>  (145) 
ChEMBL_Kinases

>  <Ligand_Instance>  (145) 
nan

>  <PDB_ID>  (145) 
nan

>  <Standardized_SMILES>  (145) 
Cc1[nH]c(-c2ccccc2)c(-c2ccccc2)c1-c1nnc(C)c2nn(-c3ccccc3)cc12

>  <Name>  (145) 
nan

>  <Pocket>  (145) 
nan

>  <ATP_Site>  (145) 
nan

>  <Peripheral>  (145) 
nan

>  <Num_H_Atoms_ProtBoundConf>  (145) 
nan

>  <Num_Resolved_Atoms>  (145) 
nan

>  <Num_Not_Resolved_Atoms>  (145) 
nan

$$$$
CHEMBL3740492
     RDKit          3D

  0  0  0  0  0  0  0  0  0  0999 V3000
M  V30 BEGIN CTAB
M  V30 COUNTS 55 60 0 0 0
M  V30 BEGIN ATOM
M  V30 1 C 1.689929 -3.363893 -1.767255 0
M  V30 2 C 0.725640 -2.459123 -1.064677 0
M  V30 3 C 0.852887 -1.151117 -0.660413 0
M  V30 4 C 2.076294 -0.397161 -0.892734 0
M  V30 5 O 3.024660 -0.965443 -1.507188 0
M  V30 6 C 2.391244 0.971300 -0.510299 0
M  V30 7 C 2.980045 1.916851 -1.360102 0
M  V30 8 O 3.117159 3.041740 -0.699217 0
M  V30 9 C 2.682581 2.965290 0.518148 0
M  V30 10 C 2.217135 1.675724 0.675392 0
M  V30 11 C 1.687771 1.261593 1.855941 0
M  V30 12 C 1.628930 2.181253 2.905564 0
M  V30 13 O 1.102030 1.825738 4.134774 0
M  V30 14 C 2.092548 3.468161 2.750471 0
M  V30 15 C 2.043750 4.394059 3.775024 0
M  V30 16 C 2.520159 5.693857 3.593415 0
M  V30 17 C 3.041304 6.052340 2.384436 0
M  V30 18 C 3.116314 5.164494 1.318083 0
M  V30 19 C 2.633983 3.890329 1.541861 0
M  V30 20 N -0.294546 -0.777517 -0.070345 0
M  V30 21 C -1.196261 -1.779499 -0.057396 0
M  V30 22 C -2.554091 -1.813656 0.475151 0
M  V30 23 C -3.595074 -1.029450 0.067930 0
M  V30 24 C -4.833774 -1.168732 0.662357 0
M  V30 25 C -5.078689 -2.074694 1.663634 0
M  V30 26 C -4.039566 -2.890696 2.103516 0
M  V30 27 C -2.804370 -2.734096 1.492957 0
M  V30 28 C -0.565715 -2.836863 -0.678174 0
M  V30 29 C -1.167027 -4.143291 -0.891393 0
M  V30 30 C -0.746202 -5.371245 -0.406556 0
M  V30 31 C -1.458841 -6.510527 -0.723513 0
M  V30 32 C -2.591406 -6.458056 -1.518917 0
M  V30 33 C -3.008069 -5.236986 -1.999762 0
M  V30 34 C -2.306368 -4.082104 -1.692898 0
M  V30 35 H 1.112038 -4.204261 -2.246254 0
M  V30 36 H 2.211194 -2.862910 -2.597541 0
M  V30 37 H 2.330711 -3.836952 -1.018901 0
M  V30 38 H 3.289825 1.805024 -2.385685 0
M  V30 39 H 1.329342 0.266798 1.975985 0
M  V30 40 H 1.668082 2.056161 4.953023 0
M  V30 41 H 1.630658 4.084515 4.709375 0
M  V30 42 H 2.478633 6.419838 4.406575 0
M  V30 43 H 3.412968 7.076613 2.252383 0
M  V30 44 H 3.533631 5.471794 0.369002 0
M  V30 45 H -0.500461 0.159376 0.336470 0
M  V30 46 H -3.394536 -0.318088 -0.721443 0
M  V30 47 H -5.663224 -0.554227 0.348680 0
M  V30 48 H -6.028712 -2.220050 2.158237 0
M  V30 49 H -4.165514 -3.631791 2.895337 0
M  V30 50 H -2.010756 -3.377890 1.849647 0
M  V30 51 H 0.141576 -5.310073 0.200888 0
M  V30 52 H -1.061016 -7.445633 -0.300385 0
M  V30 53 H -3.125067 -7.375127 -1.746137 0
M  V30 54 H -3.905101 -5.217701 -2.626386 0
M  V30 55 H -2.723553 -3.184932 -2.123443 0
M  V30 END ATOM
M  V30 BEGIN BOND
M  V30 1 1 1 2
M  V30 2 2 2 3
M  V30 3 1 3 4
M  V30 4 2 4 5
M  V30 5 1 4 6
M  V30 6 2 6 7
M  V30 7 1 7 8
M  V30 8 1 8 9
M  V30 9 2 9 10
M  V30 10 1 10 11
M  V30 11 2 11 12
M  V30 12 1 12 13
M  V30 13 1 12 14
M  V30 14 2 14 15
M  V30 15 1 15 16
M  V30 16 2 16 17
M  V30 17 1 17 18
M  V30 18 2 18 19
M  V30 19 1 3 20
M  V30 20 1 20 21
M  V30 21 1 21 22
M  V30 22 2 22 23
M  V30 23 1 23 24
M  V30 24 2 24 25
M  V30 25 1 25 26
M  V30 26 2 26 27
M  V30 27 2 21 28
M  V30 28 1 28 29
M  V30 29 2 29 30
M  V30 30 1 30 31
M  V30 31 2 31 32
M  V30 32 1 32 33
M  V30 33 2 33 34
M  V30 34 1 28 2
M  V30 35 1 34 29
M  V30 36 1 10 6
M  V30 37 1 19 14
M  V30 38 1 27 22
M  V30 39 1 19 9
M  V30 40 1 1 35
M  V30 41 1 1 36
M  V30 42 1 1 37
M  V30 43 1 7 38
M  V30 44 1 11 39
M  V30 45 1 13 40
M  V30 46 1 15 41
M  V30 47 1 16 42
M  V30 48 1 17 43
M  V30 49 1 18 44
M  V30 50 1 20 45
M  V30 51 1 23 46
M  V30 52 1 24 47
M  V30 53 1 25 48
M  V30 54 1 26 49
M  V30 55 1 27 50
M  V30 56 1 30 51
M  V30 57 1 31 52
M  V30 58 1 32 53
M  V30 59 1 33 54
M  V30 60 1 34 55
M  V30 END BOND
M  V30 END CTAB
M  END
>  <Dataset>  (146) 
ChEMBL_Kinases

>  <Ligand_Instance>  (146) 
nan

>  <PDB_ID>  (146) 
nan

>  <Standardized_SMILES>  (146) 
Cc1c(C(=O)c2coc3c2cc(O)c2ccccc23)[nH]c(-c2ccccc2)c1-c1ccccc1

>  <Name>  (146) 
nan

>  <Pocket>  (146) 
nan

>  <ATP_Site>  (146) 
nan

>  <Peripheral>  (146) 
nan

>  <Num_H_Atoms_ProtBoundConf>  (146) 
nan

>  <Num_Resolved_Atoms>  (146) 
nan

>  <Num_Not_Resolved_Atoms>  (146) 
nan

$$$$
CHEMBL3740385
     RDKit          3D

  0  0  0  0  0  0  0  0  0  0999 V3000
M  V30 BEGIN CTAB
M  V30 COUNTS 66 71 0 0 0
M  V30 BEGIN ATOM
M  V30 1 C -5.152420 -0.325973 1.268532 0
M  V30 2 C -3.817578 -0.648405 1.873099 0
M  V30 3 N -3.573196 -0.966289 3.163794 0
M  V30 4 C -2.240296 -1.170696 3.272058 0
M  V30 5 C -1.721199 -1.530176 4.582962 0
M  V30 6 C -1.925855 -2.780481 5.185116 0
M  V30 7 C -1.388939 -3.016711 6.423035 0
M  V30 8 C -0.639897 -2.095876 7.146523 0
M  V30 9 C -0.454352 -0.867850 6.526406 0
M  V30 10 C -0.990505 -0.611606 5.274801 0
M  V30 11 C -1.686789 -0.966420 2.009254 0
M  V30 12 C -0.238448 -1.120916 1.973087 0
M  V30 13 C 0.407898 0.056123 1.577374 0
M  V30 14 C 1.772844 0.115201 1.502733 0
M  V30 15 C 2.541701 -1.007689 1.823257 0
M  V30 16 C 1.887711 -2.168965 2.214241 0
M  V30 17 C 0.496844 -2.243757 2.293415 0
M  V30 18 C -2.658631 -0.637348 1.105324 0
M  V30 19 C -2.418870 -0.332798 -0.296775 0
M  V30 20 O -3.415416 0.298276 -0.715655 0
M  V30 21 C -1.169871 -0.764816 -0.955761 0
M  V30 22 C -0.832880 -2.110605 -0.855734 0
M  V30 23 N 0.311013 -2.264298 -1.594313 0
M  V30 24 C 1.185591 -3.317654 -1.966184 0
M  V30 25 C 1.845189 -4.122275 -1.061999 0
M  V30 26 C 2.688957 -5.152548 -1.459646 0
M  V30 27 C 2.902318 -5.415486 -2.789916 0
M  V30 28 Cl 3.930926 -6.681763 -3.415345 0
M  V30 29 C 2.245613 -4.613881 -3.688813 0
M  V30 30 C 1.403698 -3.585982 -3.320830 0
M  V30 31 N 0.655805 -1.092767 -2.111431 0
M  V30 32 C -0.216782 -0.158632 -1.746483 0
M  V30 33 C -0.444924 1.249863 -1.929642 0
M  V30 34 O -0.761357 2.401575 -2.008346 0
M  V30 35 N 0.748772 1.696126 -2.678247 0
M  V30 36 C 0.872161 3.090180 -3.047591 0
M  V30 37 C 1.515381 3.736347 -1.984249 0
M  V30 38 C 1.799008 5.102620 -1.997436 0
M  V30 39 C 1.415857 5.832444 -3.130194 0
M  V30 40 C 0.785223 5.176907 -4.160375 0
M  V30 41 C 0.502440 3.835972 -4.154809 0
M  V30 42 H -5.191167 0.762559 1.086039 0
M  V30 43 H -5.211179 -0.905874 0.327510 0
M  V30 44 H -5.947371 -0.615767 1.951132 0
M  V30 45 H -4.350846 -1.017527 3.849961 0
M  V30 46 H -2.510095 -3.488795 4.618104 0
M  V30 47 H -1.554833 -4.004429 6.891906 0
M  V30 48 H -0.264092 -2.402024 8.114475 0
M  V30 49 H 0.136052 -0.154451 7.106006 0
M  V30 50 H -0.795796 0.374231 4.872321 0
M  V30 51 H -0.094156 0.992781 1.301229 0
M  V30 52 H 2.422575 0.930914 1.221438 0
M  V30 53 H 3.621222 -1.125156 1.813445 0
M  V30 54 H 2.355251 -3.126321 2.495171 0
M  V30 55 H -0.103970 -3.098260 2.587546 0
M  V30 56 H -1.213920 -3.010722 -0.378701 0
M  V30 57 H 1.724058 -3.974243 -0.000418 0
M  V30 58 H 3.198015 -5.773882 -0.731511 0
M  V30 59 H 2.365226 -4.757199 -4.765325 0
M  V30 60 H 0.898093 -2.977657 -4.044420 0
M  V30 61 H 1.675170 1.270659 -3.086024 0
M  V30 62 H 1.876941 3.330914 -1.040575 0
M  V30 63 H 2.290248 5.670683 -1.226795 0
M  V30 64 H 1.590912 6.892225 -3.237057 0
M  V30 65 H 0.442202 5.640738 -5.093667 0
M  V30 66 H 0.031501 3.173328 -4.859791 0
M  V30 END ATOM
M  V30 BEGIN BOND
M  V30 1 1 1 2
M  V30 2 1 2 3
M  V30 3 1 3 4
M  V30 4 1 4 5
M  V30 5 2 5 6
M  V30 6 1 6 7
M  V30 7 2 7 8
M  V30 8 1 8 9
M  V30 9 2 9 10
M  V30 10 2 4 11
M  V30 11 1 11 12
M  V30 12 2 12 13
M  V30 13 1 13 14
M  V30 14 2 14 15
M  V30 15 1 15 16
M  V30 16 2 16 17
M  V30 17 1 11 18
M  V30 18 1 18 19
M  V30 19 2 19 20
M  V30 20 1 19 21
M  V30 21 2 21 22
M  V30 22 1 22 23
M  V30 23 1 23 24
M  V30 24 2 24 25
M  V30 25 1 25 26
M  V30 26 2 26 27
M  V30 27 1 27 28
M  V30 28 1 27 29
M  V30 29 2 29 30
M  V30 30 1 23 31
M  V30 31 2 31 32
M  V30 32 1 32 33
M  V30 33 2 33 34
M  V30 34 1 33 35
M  V30 35 1 35 36
M  V30 36 2 36 37
M  V30 37 1 37 38
M  V30 38 2 38 39
M  V30 39 1 39 40
M  V30 40 2 40 41
M  V30 41 2 18 2
M  V30 42 1 32 21
M  V30 43 1 41 36
M  V30 44 1 10 5
M  V30 45 1 17 12
M  V30 46 1 30 24
M  V30 47 1 1 42
M  V30 48 1 1 43
M  V30 49 1 1 44
M  V30 50 1 3 45
M  V30 51 1 6 46
M  V30 52 1 7 47
M  V30 53 1 8 48
M  V30 54 1 9 49
M  V30 55 1 10 50
M  V30 56 1 13 51
M  V30 57 1 14 52
M  V30 58 1 15 53
M  V30 59 1 16 54
M  V30 60 1 17 55
M  V30 61 1 22 56
M  V30 62 1 25 57
M  V30 63 1 26 58
M  V30 64 1 29 59
M  V30 65 1 30 60
M  V30 66 1 35 61
M  V30 67 1 37 62
M  V30 68 1 38 63
M  V30 69 1 39 64
M  V30 70 1 40 65
M  V30 71 1 41 66
M  V30 END BOND
M  V30 END CTAB
M  END
>  <Dataset>  (147) 
ChEMBL_Kinases

>  <Ligand_Instance>  (147) 
nan

>  <PDB_ID>  (147) 
nan

>  <Standardized_SMILES>  (147) 
Cc1[nH]c(-c2ccccc2)c(-c2ccccc2)c1C(=O)c1cn(-c2ccc(Cl)cc2)nc1C(=O)Nc1ccccc1

>  <Name>  (147) 
nan

>  <Pocket>  (147) 
nan

>  <ATP_Site>  (147) 
nan

>  <Peripheral>  (147) 
nan

>  <Num_H_Atoms_ProtBoundConf>  (147) 
nan

>  <Num_Resolved_Atoms>  (147) 
nan

>  <Num_Not_Resolved_Atoms>  (147) 
nan

$$$$
CHEMBL3740247
     RDKit          3D

  0  0  0  0  0  0  0  0  0  0999 V3000
M  V30 BEGIN CTAB
M  V30 COUNTS 60 64 0 0 0
M  V30 BEGIN ATOM
M  V30 1 C 0.250761 -1.826305 3.613631 0
M  V30 2 C 1.153651 -0.919848 2.876148 0
M  V30 3 O 2.396759 -1.163412 3.051689 0
M  V30 4 C 0.880190 0.196101 1.994894 0
M  V30 5 N 1.840295 0.934782 1.459837 0
M  V30 6 N 1.314158 1.912514 0.708157 0
M  V30 7 C 2.181823 2.834060 0.032620 0
M  V30 8 C 3.128665 2.279183 -0.803931 0
M  V30 9 C 4.049836 3.038717 -1.534939 0
M  V30 10 C 3.980307 4.427486 -1.387126 0
M  V30 11 C 4.947412 5.260366 -2.151561 0
M  V30 12 C 3.022248 4.973215 -0.541759 0
M  V30 13 C 2.122107 4.205732 0.170656 0
M  V30 14 C -0.041346 1.851041 0.720789 0
M  V30 15 C -0.293820 0.752367 1.542832 0
M  V30 16 C -1.641879 0.274751 1.782172 0
M  V30 17 O -2.413081 1.187917 2.242155 0
M  V30 18 C -2.252898 -1.022940 1.592994 0
M  V30 19 C -3.481385 -1.393419 2.082153 0
M  V30 20 C -4.430901 -0.612278 2.915362 0
M  V30 21 N -3.662559 -2.670510 1.635639 0
M  V30 22 C -2.644223 -3.146363 0.897801 0
M  V30 23 C -2.647805 -4.481953 0.337112 0
M  V30 24 C -3.548782 -4.745915 -0.702717 0
M  V30 25 C -3.614439 -6.009089 -1.290448 0
M  V30 26 C -2.801932 -7.041381 -0.875145 0
M  V30 27 C -1.915072 -6.791507 0.144802 0
M  V30 28 C -1.868734 -5.548878 0.704248 0
M  V30 29 C -1.739975 -2.103790 0.863942 0
M  V30 30 C -0.479270 -2.175704 0.140325 0
M  V30 31 C -0.444047 -1.152042 -0.819088 0
M  V30 32 C 0.657118 -0.992773 -1.659185 0
M  V30 33 C 1.742211 -1.838094 -1.569120 0
M  V30 34 C 1.694047 -2.852696 -0.610148 0
M  V30 35 C 0.599626 -2.997701 0.212450 0
M  V30 36 H -0.001614 -2.733499 3.050558 0
M  V30 37 H 0.776237 -2.164248 4.563636 0
M  V30 38 H -0.680616 -1.287451 3.954414 0
M  V30 39 H 3.209512 1.199641 -0.941568 0
M  V30 40 H 4.781365 2.569953 -2.183213 0
M  V30 41 H 5.941779 5.252968 -1.687347 0
M  V30 42 H 4.985688 4.940131 -3.228590 0
M  V30 43 H 4.532280 6.303900 -2.182268 0
M  V30 44 H 2.997331 6.060729 -0.450921 0
M  V30 45 H 1.374463 4.618373 0.830009 0
M  V30 46 H -0.682961 2.521462 0.199366 0
M  V30 47 H -4.593558 0.413516 2.480001 0
M  V30 48 H -4.091187 -0.511106 3.967153 0
M  V30 49 H -5.426809 -1.122954 2.835376 0
M  V30 50 H -4.545096 -3.202050 1.874185 0
M  V30 51 H -4.208964 -3.974504 -1.069224 0
M  V30 52 H -4.326445 -6.168879 -2.092031 0
M  V30 53 H -2.861343 -8.014133 -1.336522 0
M  V30 54 H -1.239643 -7.575641 0.520400 0
M  V30 55 H -1.172124 -5.383090 1.498796 0
M  V30 56 H -1.198591 -0.399029 -1.033507 0
M  V30 57 H 0.754595 -0.238092 -2.412580 0
M  V30 58 H 2.632749 -1.785353 -2.178879 0
M  V30 59 H 2.481018 -3.555775 -0.462989 0
M  V30 60 H 0.479547 -3.751465 0.973373 0
M  V30 END ATOM
M  V30 BEGIN BOND
M  V30 1 1 1 2
M  V30 2 2 2 3
M  V30 3 1 2 4
M  V30 4 2 4 5
M  V30 5 1 5 6
M  V30 6 1 6 7
M  V30 7 2 7 8
M  V30 8 1 8 9
M  V30 9 2 9 10
M  V30 10 1 10 11
M  V30 11 1 10 12
M  V30 12 2 12 13
M  V30 13 1 6 14
M  V30 14 2 14 15
M  V30 15 1 15 16
M  V30 16 2 16 17
M  V30 17 1 16 18
M  V30 18 2 18 19
M  V30 19 1 19 20
M  V30 20 1 19 21
M  V30 21 1 21 22
M  V30 22 1 22 23
M  V30 23 2 23 24
M  V30 24 1 24 25
M  V30 25 2 25 26
M  V30 26 1 26 27
M  V30 27 2 27 28
M  V30 28 2 22 29
M  V30 29 1 29 30
M  V30 30 2 30 31
M  V30 31 1 31 32
M  V30 32 2 32 33
M  V30 33 1 33 34
M  V30 34 2 34 35
M  V30 35 1 15 4
M  V30 36 1 29 18
M  V30 37 1 35 30
M  V30 38 1 13 7
M  V30 39 1 28 23
M  V30 40 1 1 36
M  V30 41 1 1 37
M  V30 42 1 1 38
M  V30 43 1 8 39
M  V30 44 1 9 40
M  V30 45 1 11 41
M  V30 46 1 11 42
M  V30 47 1 11 43
M  V30 48 1 12 44
M  V30 49 1 13 45
M  V30 50 1 14 46
M  V30 51 1 20 47
M  V30 52 1 20 48
M  V30 53 1 20 49
M  V30 54 1 21 50
M  V30 55 1 24 51
M  V30 56 1 25 52
M  V30 57 1 26 53
M  V30 58 1 27 54
M  V30 59 1 28 55
M  V30 60 1 31 56
M  V30 61 1 32 57
M  V30 62 1 33 58
M  V30 63 1 34 59
M  V30 64 1 35 60
M  V30 END BOND
M  V30 END CTAB
M  END
>  <Dataset>  (148) 
ChEMBL_Kinases

>  <Ligand_Instance>  (148) 
nan

>  <PDB_ID>  (148) 
nan

>  <Standardized_SMILES>  (148) 
CC(=O)c1nn(-c2ccc(C)cc2)cc1C(=O)c1c(C)[nH]c(-c2ccccc2)c1-c1ccccc1

>  <Name>  (148) 
nan

>  <Pocket>  (148) 
nan

>  <ATP_Site>  (148) 
nan

>  <Peripheral>  (148) 
nan

>  <Num_H_Atoms_ProtBoundConf>  (148) 
nan

>  <Num_Resolved_Atoms>  (148) 
nan

>  <Num_Not_Resolved_Atoms>  (148) 
nan

$$$$
CHEMBL511280
     RDKit          3D

  0  0  0  0  0  0  0  0  0  0999 V3000
M  V30 BEGIN CTAB
M  V30 COUNTS 44 48 0 0 0
M  V30 BEGIN ATOM
M  V30 1 N 0.293376 -1.957756 6.689390 0
M  V30 2 C 0.324262 -1.292045 5.732757 0
M  V30 3 C 0.385527 -0.457609 4.530545 0
M  V30 4 C 1.410075 -0.993230 3.559838 0
M  V30 5 N 1.502607 -0.188485 2.345601 0
M  V30 6 C 2.313346 0.885439 2.109286 0
M  V30 7 C 3.233649 1.445771 2.987496 0
M  V30 8 C 3.989051 2.537610 2.608558 0
M  V30 9 C 3.800873 3.058238 1.323467 0
M  V30 10 O 4.556559 4.155372 0.935874 0
M  V30 11 C 2.871494 2.448418 0.513117 0
M  V30 12 C 2.104266 1.373372 0.839016 0
M  V30 13 C 1.145400 0.568233 0.309218 0
M  V30 14 C 0.559373 0.592360 -0.913026 0
M  V30 15 C -0.402004 -0.330936 -1.242289 0
M  V30 16 C -0.778960 -1.298111 -0.318169 0
M  V30 17 C -1.795962 -2.300160 -0.622478 0
M  V30 18 C -1.285641 -3.467627 -1.188334 0
M  V30 19 C -2.100904 -4.525062 -1.541610 0
M  V30 20 C -3.481773 -4.452501 -1.338255 0
M  V30 21 C -3.966228 -3.285229 -0.775709 0
M  V30 22 C -3.155014 -2.226951 -0.421568 0
M  V30 23 Cl -3.716899 -0.738211 0.288910 0
M  V30 24 C -0.182441 -1.322794 0.926178 0
M  V30 25 C 0.780034 -0.384529 1.231599 0
M  V30 26 C -0.932963 -0.166161 -2.598397 0
M  V30 27 O -1.805350 -0.848246 -3.168246 0
M  V30 28 N -0.198059 0.967428 -3.091236 0
M  V30 29 C 0.687795 1.413955 -2.084298 0
M  V30 30 O 1.383350 2.391026 -2.383986 0
M  V30 31 H -0.633858 -0.463211 4.095761 0
M  V30 32 H 0.621143 0.596570 4.807427 0
M  V30 33 H 2.388698 -1.026475 4.080598 0
M  V30 34 H 1.100457 -2.003212 3.257028 0
M  V30 35 H 3.364409 1.029295 3.975693 0
M  V30 36 H 4.701730 2.967351 3.295895 0
M  V30 37 H 5.480461 3.968800 0.516760 0
M  V30 38 H 2.789302 2.901823 -0.441528 0
M  V30 39 H -0.215504 -3.619626 -1.387122 0
M  V30 40 H -1.713674 -5.431423 -1.979795 0
M  V30 41 H -4.151195 -5.261115 -1.602662 0
M  V30 42 H -5.029940 -3.170006 -0.593542 0
M  V30 43 H -0.442934 -2.062734 1.689367 0
M  V30 44 H -0.400048 1.301562 -4.079541 0
M  V30 END ATOM
M  V30 BEGIN BOND
M  V30 1 3 1 2
M  V30 2 1 2 3
M  V30 3 1 3 4
M  V30 4 1 4 5
M  V30 5 1 5 6
M  V30 6 2 6 7
M  V30 7 1 7 8
M  V30 8 2 8 9
M  V30 9 1 9 10
M  V30 10 1 9 11
M  V30 11 2 11 12
M  V30 12 1 12 13
M  V30 13 2 13 14
M  V30 14 1 14 15
M  V30 15 2 15 16
M  V30 16 1 16 17
M  V30 17 2 17 18
M  V30 18 1 18 19
M  V30 19 2 19 20
M  V30 20 1 20 21
M  V30 21 2 21 22
M  V30 22 1 22 23
M  V30 23 1 16 24
M  V30 24 2 24 25
M  V30 25 1 15 26
M  V30 26 2 26 27
M  V30 27 1 26 28
M  V30 28 1 28 29
M  V30 29 2 29 30
M  V30 30 1 25 5
M  V30 31 1 12 6
M  V30 32 1 25 13
M  V30 33 1 29 14
M  V30 34 1 22 17
M  V30 35 1 3 31
M  V30 36 1 3 32
M  V30 37 1 4 33
M  V30 38 1 4 34
M  V30 39 1 7 35
M  V30 40 1 8 36
M  V30 41 1 10 37
M  V30 42 1 11 38
M  V30 43 1 18 39
M  V30 44 1 19 40
M  V30 45 1 20 41
M  V30 46 1 21 42
M  V30 47 1 24 43
M  V30 48 1 28 44
M  V30 END BOND
M  V30 END CTAB
M  END
>  <Dataset>  (149) 
ChEMBL_Kinases

>  <Ligand_Instance>  (149) 
nan

>  <PDB_ID>  (149) 
nan

>  <Standardized_SMILES>  (149) 
N#CCCn1c2ccc(O)cc2c2c3c(c(-c4ccccc4Cl)cc21)C(=O)NC3=O

>  <Name>  (149) 
nan

>  <Pocket>  (149) 
nan

>  <ATP_Site>  (149) 
nan

>  <Peripheral>  (149) 
nan

>  <Num_H_Atoms_ProtBoundConf>  (149) 
nan

>  <Num_Resolved_Atoms>  (149) 
nan

>  <Num_Not_Resolved_Atoms>  (149) 
nan

$$$$
CHEMBL3740003
     RDKit          3D

  0  0  0  0  0  0  0  0  0  0999 V3000
M  V30 BEGIN CTAB
M  V30 COUNTS 56 60 0 0 0
M  V30 BEGIN ATOM
M  V30 1 C 2.888810 -2.247278 0.529681 0
M  V30 2 C 2.443969 -0.967544 1.127902 0
M  V30 3 N 3.277570 -0.226190 1.847419 0
M  V30 4 C 2.662165 0.893565 2.293792 0
M  V30 5 C 3.120504 2.013961 3.107066 0
M  V30 6 C 2.682683 2.429790 4.350952 0
M  V30 7 C 3.268972 3.531603 4.940030 0
M  V30 8 C 4.283589 4.233948 4.322248 0
M  V30 9 C 4.727229 3.825099 3.078868 0
M  V30 10 C 4.142399 2.723985 2.488436 0
M  V30 11 C 1.365165 0.838276 1.818254 0
M  V30 12 C 0.208789 1.720339 1.940918 0
M  V30 13 C 0.471026 2.958793 1.358229 0
M  V30 14 C -0.491303 3.963330 1.355727 0
M  V30 15 C -1.714845 3.702512 1.945882 0
M  V30 16 C -1.967961 2.474111 2.521034 0
M  V30 17 C -1.018972 1.487005 2.522109 0
M  V30 18 C 1.205381 -0.332724 1.076965 0
M  V30 19 C 0.116986 -0.960914 0.336319 0
M  V30 20 C 0.343761 -1.145173 -1.012517 0
M  V30 21 C -0.609961 -1.730689 -1.828542 0
M  V30 22 C -1.807731 -2.125710 -1.230134 0
M  V30 23 N -2.800005 -2.727315 -2.041745 0
M  V30 24 C -2.597129 -4.138812 -2.053752 0
M  V30 25 O -1.622543 -4.524398 -1.369862 0
M  V30 26 C -3.407041 -5.123003 -2.773300 0
M  V30 27 C -3.006858 -6.433094 -2.624579 0
M  V30 28 C -3.739524 -7.425937 -3.287510 0
M  V30 29 C -4.825727 -7.052086 -4.057740 0
M  V30 30 C -5.220007 -5.730504 -4.200735 0
M  V30 31 C -4.488730 -4.737649 -3.538796 0
M  V30 32 C -1.975178 -1.909687 0.147263 0
M  V30 33 O -3.065236 -2.270474 0.685753 0
M  V30 34 O -1.019234 -1.342794 0.869822 0
M  V30 35 H 3.611566 -2.779270 1.196129 0
M  V30 36 H 3.424880 -2.111822 -0.432746 0
M  V30 37 H 2.016464 -2.936285 0.444739 0
M  V30 38 H 4.292492 -0.345137 2.124518 0
M  V30 39 H 1.889736 1.814952 4.744554 0
M  V30 40 H 2.855527 3.786344 5.926323 0
M  V30 41 H 4.703472 5.094753 4.841704 0
M  V30 42 H 5.511757 4.411126 2.659485 0
M  V30 43 H 4.577437 2.505164 1.517271 0
M  V30 44 H 1.395412 3.271301 0.867879 0
M  V30 45 H -0.333080 4.945491 0.913590 0
M  V30 46 H -2.489478 4.470647 1.959523 0
M  V30 47 H -2.914178 2.228836 2.994029 0
M  V30 48 H -1.088784 0.492197 2.933725 0
M  V30 49 H 1.247725 -0.852208 -1.488569 0
M  V30 50 H -0.436333 -1.875896 -2.880857 0
M  V30 51 H -3.622727 -2.374907 -2.615357 0
M  V30 52 H -2.167529 -6.757393 -2.033433 0
M  V30 53 H -3.444004 -8.468319 -3.186115 0
M  V30 54 H -5.379159 -7.833855 -4.562056 0
M  V30 55 H -6.077709 -5.434114 -4.808767 0
M  V30 56 H -4.780997 -3.701814 -3.638180 0
M  V30 END ATOM
M  V30 BEGIN BOND
M  V30 1 1 1 2
M  V30 2 1 2 3
M  V30 3 1 3 4
M  V30 4 1 4 5
M  V30 5 2 5 6
M  V30 6 1 6 7
M  V30 7 2 7 8
M  V30 8 1 8 9
M  V30 9 2 9 10
M  V30 10 2 4 11
M  V30 11 1 11 12
M  V30 12 2 12 13
M  V30 13 1 13 14
M  V30 14 2 14 15
M  V30 15 1 15 16
M  V30 16 2 16 17
M  V30 17 1 11 18
M  V30 18 1 18 19
M  V30 19 2 19 20
M  V30 20 1 20 21
M  V30 21 2 21 22
M  V30 22 1 22 23
M  V30 23 1 23 24
M  V30 24 2 24 25
M  V30 25 1 24 26
M  V30 26 2 26 27
M  V30 27 1 27 28
M  V30 28 2 28 29
M  V30 29 1 29 30
M  V30 30 2 30 31
M  V30 31 1 22 32
M  V30 32 2 32 33
M  V30 33 1 32 34
M  V30 34 2 18 2
M  V30 35 1 34 19
M  V30 36 1 10 5
M  V30 37 1 17 12
M  V30 38 1 31 26
M  V30 39 1 1 35
M  V30 40 1 1 36
M  V30 41 1 1 37
M  V30 42 1 3 38
M  V30 43 1 6 39
M  V30 44 1 7 40
M  V30 45 1 8 41
M  V30 46 1 9 42
M  V30 47 1 10 43
M  V30 48 1 13 44
M  V30 49 1 14 45
M  V30 50 1 15 46
M  V30 51 1 16 47
M  V30 52 1 17 48
M  V30 53 1 20 49
M  V30 54 1 21 50
M  V30 55 1 23 51
M  V30 56 1 27 52
M  V30 57 1 28 53
M  V30 58 1 29 54
M  V30 59 1 30 55
M  V30 60 1 31 56
M  V30 END BOND
M  V30 END CTAB
M  END
>  <Dataset>  (150) 
ChEMBL_Kinases

>  <Ligand_Instance>  (150) 
nan

>  <PDB_ID>  (150) 
nan

>  <Standardized_SMILES>  (150) 
Cc1[nH]c(-c2ccccc2)c(-c2ccccc2)c1-c1ccc(NC(=O)c2ccccc2)c(=O)o1

>  <Name>  (150) 
nan

>  <Pocket>  (150) 
nan

>  <ATP_Site>  (150) 
nan

>  <Peripheral>  (150) 
nan

>  <Num_H_Atoms_ProtBoundConf>  (150) 
nan

>  <Num_Resolved_Atoms>  (150) 
nan

>  <Num_Not_Resolved_Atoms>  (150) 
nan

$$$$
CHEMBL3739750
     RDKit          3D

  0  0  0  0  0  0  0  0  0  0999 V3000
M  V30 BEGIN CTAB
M  V30 COUNTS 57 61 0 0 0
M  V30 BEGIN ATOM
M  V30 1 C 3.026486 -1.787555 2.240172 0
M  V30 2 C 1.705488 -1.119197 2.194388 0
M  V30 3 O 0.847602 -1.783487 2.792246 0
M  V30 4 C 1.528133 0.152430 1.512816 0
M  V30 5 N 2.530787 0.818291 0.890578 0
M  V30 6 N 2.082826 1.941761 0.386444 0
M  V30 7 C 2.923592 2.844413 -0.322261 0
M  V30 8 C 2.645636 4.201633 -0.442085 0
M  V30 9 C 3.493566 5.040655 -1.139077 0
M  V30 10 C 4.649939 4.527089 -1.736134 0
M  V30 11 C 4.975099 3.189110 -1.649432 0
M  V30 12 C 4.079654 2.419686 -0.938046 0
M  V30 13 C 0.776504 2.018017 0.676991 0
M  V30 14 C 0.368944 0.889888 1.400837 0
M  V30 15 C -0.974133 0.590790 1.862599 0
M  V30 16 O -1.387523 1.600033 2.507874 0
M  V30 17 C -1.836992 -0.568844 1.715834 0
M  V30 18 C -2.990637 -0.686400 2.455684 0
M  V30 19 C -3.677235 0.108516 3.492834 0
M  V30 20 N -3.544373 -1.851202 2.047632 0
M  V30 21 C -2.823146 -2.485182 1.097872 0
M  V30 22 C -3.192310 -3.764278 0.486422 0
M  V30 23 C -2.589852 -4.998057 0.594460 0
M  V30 24 C -3.092196 -6.084093 -0.068423 0
M  V30 25 C -4.232804 -5.950988 -0.869196 0
M  V30 26 C -4.836146 -4.725062 -0.979616 0
M  V30 27 C -4.324448 -3.629078 -0.307437 0
M  V30 28 C -1.737894 -1.662601 0.891710 0
M  V30 29 C -0.678224 -1.925064 -0.071245 0
M  V30 30 C -0.636776 -0.893852 -1.024041 0
M  V30 31 C 0.283623 -0.898785 -2.063575 0
M  V30 32 C 1.191779 -1.936530 -2.181625 0
M  V30 33 C 1.136898 -2.938200 -1.238758 0
M  V30 34 C 0.233841 -2.944769 -0.209113 0
M  V30 35 H 3.520881 -1.456729 3.200211 0
M  V30 36 H 3.646910 -1.448890 1.364806 0
M  V30 37 H 2.994417 -2.875520 2.253561 0
M  V30 38 H 1.754840 4.587939 0.020222 0
M  V30 39 H 3.279875 6.081448 -1.229984 0
M  V30 40 H 5.329522 5.170017 -2.287837 0
M  V30 41 H 5.855198 2.771374 -2.097940 0
M  V30 42 H 4.287297 1.351645 -0.836579 0
M  V30 43 H 0.179056 2.847299 0.373654 0
M  V30 44 H -3.442777 -0.343308 4.491891 0
M  V30 45 H -3.443712 1.174391 3.420726 0
M  V30 46 H -4.799006 0.043520 3.383431 0
M  V30 47 H -4.447432 -2.281133 2.394633 0
M  V30 48 H -1.731248 -4.992095 1.230243 0
M  V30 49 H -2.564296 -7.018319 0.064674 0
M  V30 50 H -4.612201 -6.823635 -1.382461 0
M  V30 51 H -5.710592 -4.697392 -1.614121 0
M  V30 52 H -4.912047 -2.724567 -0.493265 0
M  V30 53 H -1.275046 -0.015476 -1.073304 0
M  V30 54 H 0.363562 -0.141719 -2.817933 0
M  V30 55 H 1.921852 -1.971963 -2.978092 0
M  V30 56 H 1.822079 -3.791234 -1.265035 0
M  V30 57 H 0.119175 -3.668490 0.562264 0
M  V30 END ATOM
M  V30 BEGIN BOND
M  V30 1 1 1 2
M  V30 2 2 2 3
M  V30 3 1 2 4
M  V30 4 2 4 5
M  V30 5 1 5 6
M  V30 6 1 6 7
M  V30 7 2 7 8
M  V30 8 1 8 9
M  V30 9 2 9 10
M  V30 10 1 10 11
M  V30 11 2 11 12
M  V30 12 1 6 13
M  V30 13 2 13 14
M  V30 14 1 14 15
M  V30 15 2 15 16
M  V30 16 1 15 17
M  V30 17 2 17 18
M  V30 18 1 18 19
M  V30 19 1 18 20
M  V30 20 1 20 21
M  V30 21 1 21 22
M  V30 22 2 22 23
M  V30 23 1 23 24
M  V30 24 2 24 25
M  V30 25 1 25 26
M  V30 26 2 26 27
M  V30 27 2 21 28
M  V30 28 1 28 29
M  V30 29 2 29 30
M  V30 30 1 30 31
M  V30 31 2 31 32
M  V30 32 1 32 33
M  V30 33 2 33 34
M  V30 34 1 14 4
M  V30 35 1 28 17
M  V30 36 1 34 29
M  V30 37 1 12 7
M  V30 38 1 27 22
M  V30 39 1 1 35
M  V30 40 1 1 36
M  V30 41 1 1 37
M  V30 42 1 8 38
M  V30 43 1 9 39
M  V30 44 1 10 40
M  V30 45 1 11 41
M  V30 46 1 12 42
M  V30 47 1 13 43
M  V30 48 1 19 44
M  V30 49 1 19 45
M  V30 50 1 19 46
M  V30 51 1 20 47
M  V30 52 1 23 48
M  V30 53 1 24 49
M  V30 54 1 25 50
M  V30 55 1 26 51
M  V30 56 1 27 52
M  V30 57 1 30 53
M  V30 58 1 31 54
M  V30 59 1 32 55
M  V30 60 1 33 56
M  V30 61 1 34 57
M  V30 END BOND
M  V30 END CTAB
M  END
>  <Dataset>  (151) 
ChEMBL_Kinases

>  <Ligand_Instance>  (151) 
nan

>  <PDB_ID>  (151) 
nan

>  <Standardized_SMILES>  (151) 
CC(=O)c1nn(-c2ccccc2)cc1C(=O)c1c(C)[nH]c(-c2ccccc2)c1-c1ccccc1

>  <Name>  (151) 
nan

>  <Pocket>  (151) 
nan

>  <ATP_Site>  (151) 
nan

>  <Peripheral>  (151) 
nan

>  <Num_H_Atoms_ProtBoundConf>  (151) 
nan

>  <Num_Resolved_Atoms>  (151) 
nan

>  <Num_Not_Resolved_Atoms>  (151) 
nan

$$$$
CHEMBL3739587
     RDKit          3D

  0  0  0  0  0  0  0  0  0  0999 V3000
M  V30 BEGIN CTAB
M  V30 COUNTS 57 61 0 0 0
M  V30 BEGIN ATOM
M  V30 1 C 2.510133 -1.440170 2.939799 0
M  V30 2 C 1.216051 -0.858160 2.520688 0
M  V30 3 O 0.326400 -1.612192 2.972890 0
M  V30 4 C 1.109225 0.352942 1.740752 0
M  V30 5 N 2.184409 1.049559 1.336681 0
M  V30 6 N 1.827518 2.112969 0.665903 0
M  V30 7 C 2.806503 3.002025 0.142424 0
M  V30 8 C 2.686244 4.385734 0.138896 0
M  V30 9 C 3.701769 5.165816 -0.397152 0
M  V30 10 C 4.859725 4.607132 -0.942773 0
M  V30 11 Cl 6.150979 5.565084 -1.623374 0
M  V30 12 C 5.019906 3.224039 -0.959063 0
M  V30 13 C 3.981342 2.493577 -0.413772 0
M  V30 14 C 0.484770 2.119654 0.624647 0
M  V30 15 C -0.015697 1.009588 1.300423 0
M  V30 16 C -1.403295 0.622655 1.471944 0
M  V30 17 O -2.033747 1.624991 1.910316 0
M  V30 18 C -2.127946 -0.615925 1.242749 0
M  V30 19 C -3.399181 -0.786807 1.734338 0
M  V30 20 C -4.259036 0.133416 2.562735 0
M  V30 21 N -3.781369 -2.010453 1.324319 0
M  V30 22 C -2.831649 -2.635655 0.598739 0
M  V30 23 C -3.023462 -3.969286 0.050606 0
M  V30 24 C -4.025627 -3.976986 -0.900072 0
M  V30 25 C -4.390294 -5.148251 -1.558686 0
M  V30 26 C -3.715430 -6.308978 -1.230686 0
M  V30 27 C -2.716132 -6.330310 -0.290150 0
M  V30 28 C -2.381531 -5.153202 0.341709 0
M  V30 29 C -1.776025 -1.752529 0.543321 0
M  V30 30 C -0.522345 -1.983674 -0.155227 0
M  V30 31 C -0.349767 -0.998357 -1.136878 0
M  V30 32 C 0.778420 -0.987286 -1.957249 0
M  V30 33 C 1.768260 -1.951129 -1.830206 0
M  V30 34 C 1.563440 -2.913184 -0.845969 0
M  V30 35 C 0.450502 -2.920756 -0.038854 0
M  V30 36 H 3.355429 -0.824041 2.568600 0
M  V30 37 H 2.626256 -1.466568 4.043819 0
M  V30 38 H 2.666552 -2.470818 2.583709 0
M  V30 39 H 1.790358 4.810016 0.562864 0
M  V30 40 H 3.595598 6.241791 -0.393013 0
M  V30 41 H 5.876096 2.694343 -1.357450 0
M  V30 42 H 4.079936 1.413497 -0.412484 0
M  V30 43 H -0.073757 2.880299 0.136625 0
M  V30 44 H -5.074441 -0.441739 3.051064 0
M  V30 45 H -3.674937 0.716737 3.270915 0
M  V30 46 H -4.728790 0.831536 1.837257 0
M  V30 47 H -4.729766 -2.413731 1.558970 0
M  V30 48 H -4.631899 -3.138574 -1.247130 0
M  V30 49 H -5.159569 -5.224266 -2.307316 0
M  V30 50 H -3.898849 -7.296556 -1.667610 0
M  V30 51 H -2.144118 -7.186703 0.021562 0
M  V30 52 H -1.625804 -5.052290 1.087777 0
M  V30 53 H -1.009620 -0.173078 -1.380961 0
M  V30 54 H 0.969951 -0.258445 -2.729064 0
M  V30 55 H 2.643202 -1.953810 -2.456891 0
M  V30 56 H 2.300734 -3.690645 -0.698488 0
M  V30 57 H 0.236393 -3.626600 0.734568 0
M  V30 END ATOM
M  V30 BEGIN BOND
M  V30 1 1 1 2
M  V30 2 2 2 3
M  V30 3 1 2 4
M  V30 4 2 4 5
M  V30 5 1 5 6
M  V30 6 1 6 7
M  V30 7 2 7 8
M  V30 8 1 8 9
M  V30 9 2 9 10
M  V30 10 1 10 11
M  V30 11 1 10 12
M  V30 12 2 12 13
M  V30 13 1 6 14
M  V30 14 2 14 15
M  V30 15 1 15 16
M  V30 16 2 16 17
M  V30 17 1 16 18
M  V30 18 2 18 19
M  V30 19 1 19 20
M  V30 20 1 19 21
M  V30 21 1 21 22
M  V30 22 1 22 23
M  V30 23 2 23 24
M  V30 24 1 24 25
M  V30 25 2 25 26
M  V30 26 1 26 27
M  V30 27 2 27 28
M  V30 28 2 22 29
M  V30 29 1 29 30
M  V30 30 2 30 31
M  V30 31 1 31 32
M  V30 32 2 32 33
M  V30 33 1 33 34
M  V30 34 2 34 35
M  V30 35 1 15 4
M  V30 36 1 29 18
M  V30 37 1 35 30
M  V30 38 1 13 7
M  V30 39 1 28 23
M  V30 40 1 1 36
M  V30 41 1 1 37
M  V30 42 1 1 38
M  V30 43 1 8 39
M  V30 44 1 9 40
M  V30 45 1 12 41
M  V30 46 1 13 42
M  V30 47 1 14 43
M  V30 48 1 20 44
M  V30 49 1 20 45
M  V30 50 1 20 46
M  V30 51 1 21 47
M  V30 52 1 24 48
M  V30 53 1 25 49
M  V30 54 1 26 50
M  V30 55 1 27 51
M  V30 56 1 28 52
M  V30 57 1 31 53
M  V30 58 1 32 54
M  V30 59 1 33 55
M  V30 60 1 34 56
M  V30 61 1 35 57
M  V30 END BOND
M  V30 END CTAB
M  END
>  <Dataset>  (152) 
ChEMBL_Kinases

>  <Ligand_Instance>  (152) 
nan

>  <PDB_ID>  (152) 
nan

>  <Standardized_SMILES>  (152) 
CC(=O)c1nn(-c2ccc(Cl)cc2)cc1C(=O)c1c(C)[nH]c(-c2ccccc2)c1-c1ccccc1

>  <Name>  (152) 
nan

>  <Pocket>  (152) 
nan

>  <ATP_Site>  (152) 
nan

>  <Peripheral>  (152) 
nan

>  <Num_H_Atoms_ProtBoundConf>  (152) 
nan

>  <Num_Resolved_Atoms>  (152) 
nan

>  <Num_Not_Resolved_Atoms>  (152) 
nan

$$$$
CHEMBL3739586
     RDKit          3D

  0  0  0  0  0  0  0  0  0  0999 V3000
M  V30 BEGIN CTAB
M  V30 COUNTS 55 60 0 0 0
M  V30 BEGIN ATOM
M  V30 1 C 3.977332 0.732306 7.033041 0
M  V30 2 C 3.631713 0.121473 5.730727 0
M  V30 3 C 2.597867 -0.769798 5.672229 0
M  V30 4 C 2.232228 -1.369961 4.482848 0
M  V30 5 C 2.978084 -1.008902 3.369099 0
M  V30 6 N 2.695036 -1.562680 2.081480 0
M  V30 7 C 1.865211 -1.000985 1.183020 0
M  V30 8 C 1.784701 -1.752984 0.031167 0
M  V30 9 C 1.133847 -1.699992 -1.186447 0
M  V30 10 C 0.279091 -0.509860 -1.301132 0
M  V30 11 C 0.721858 0.796471 -1.217115 0
M  V30 12 N -0.358561 1.598011 -1.368740 0
M  V30 13 C -1.461755 0.834763 -1.544729 0
M  V30 14 C -2.780166 1.434883 -1.735557 0
M  V30 15 C -3.456103 1.227343 -2.923232 0
M  V30 16 C -4.717688 1.798708 -3.108035 0
M  V30 17 C -5.273460 2.570156 -2.087993 0
M  V30 18 C -4.573556 2.758172 -0.915697 0
M  V30 19 C -3.345424 2.208731 -0.721593 0
M  V30 20 C -1.086985 -0.495983 -1.506263 0
M  V30 21 C -1.988349 -1.596262 -1.657395 0
M  V30 22 C -1.993873 -2.582362 -2.625613 0
M  V30 23 C -2.941623 -3.584929 -2.632427 0
M  V30 24 C -3.933111 -3.660059 -1.678098 0
M  V30 25 C -3.964845 -2.682071 -0.679445 0
M  V30 26 C -2.996223 -1.676916 -0.691559 0
M  V30 27 N 1.314174 -2.656046 -2.093797 0
M  V30 28 N 2.123785 -3.669456 -1.831901 0
M  V30 29 C 2.802588 -3.801431 -0.663190 0
M  V30 30 O 3.639622 -4.906424 -0.467605 0
M  V30 31 C 2.643803 -2.819103 0.321376 0
M  V30 32 N 3.176939 -2.690043 1.545615 0
M  V30 33 C 4.026838 -0.105739 3.424637 0
M  V30 34 C 4.368709 0.476061 4.621309 0
M  V30 35 H 4.457704 1.726154 6.908963 0
M  V30 36 H 4.669528 0.062419 7.600053 0
M  V30 37 H 3.044565 0.839073 7.623468 0
M  V30 38 H 2.003880 -1.065317 6.528731 0
M  V30 39 H 1.420605 -2.082906 4.380576 0
M  V30 40 H 1.308086 -0.063945 1.320589 0
M  V30 41 H 1.757293 1.125148 -1.056796 0
M  V30 42 H -0.271444 2.654684 -1.341512 0
M  V30 43 H -3.042991 0.625129 -3.742090 0
M  V30 44 H -5.262261 1.638652 -4.051390 0
M  V30 45 H -6.250155 2.974343 -2.310929 0
M  V30 46 H -5.064164 3.374311 -0.152926 0
M  V30 47 H -2.798076 2.359408 0.202707 0
M  V30 48 H -1.197485 -2.490481 -3.360648 0
M  V30 49 H -2.892167 -4.338128 -3.427155 0
M  V30 50 H -4.653768 -4.446604 -1.706829 0
M  V30 51 H -4.723007 -2.718113 0.070599 0
M  V30 52 H -3.088488 -0.945529 0.126396 0
M  V30 53 H 3.612148 -5.491441 0.359034 0
M  V30 54 H 4.616516 0.186179 2.570887 0
M  V30 55 H 5.177058 1.180936 4.706541 0
M  V30 END ATOM
M  V30 BEGIN BOND
M  V30 1 1 1 2
M  V30 2 2 2 3
M  V30 3 1 3 4
M  V30 4 2 4 5
M  V30 5 1 5 6
M  V30 6 1 6 7
M  V30 7 2 7 8
M  V30 8 1 8 9
M  V30 9 1 9 10
M  V30 10 2 10 11
M  V30 11 1 11 12
M  V30 12 1 12 13
M  V30 13 1 13 14
M  V30 14 2 14 15
M  V30 15 1 15 16
M  V30 16 2 16 17
M  V30 17 1 17 18
M  V30 18 2 18 19
M  V30 19 2 13 20
M  V30 20 1 20 21
M  V30 21 2 21 22
M  V30 22 1 22 23
M  V30 23 2 23 24
M  V30 24 1 24 25
M  V30 25 2 25 26
M  V30 26 2 9 27
M  V30 27 1 27 28
M  V30 28 2 28 29
M  V30 29 1 29 30
M  V30 30 1 29 31
M  V30 31 2 31 32
M  V30 32 1 5 33
M  V30 33 2 33 34
M  V30 34 1 34 2
M  V30 35 1 32 6
M  V30 36 1 31 8
M  V30 37 1 20 10
M  V30 38 1 26 21
M  V30 39 1 19 14
M  V30 40 1 1 35
M  V30 41 1 1 36
M  V30 42 1 1 37
M  V30 43 1 3 38
M  V30 44 1 4 39
M  V30 45 1 7 40
M  V30 46 1 11 41
M  V30 47 1 12 42
M  V30 48 1 15 43
M  V30 49 1 16 44
M  V30 50 1 17 45
M  V30 51 1 18 46
M  V30 52 1 19 47
M  V30 53 1 22 48
M  V30 54 1 23 49
M  V30 55 1 24 50
M  V30 56 1 25 51
M  V30 57 1 26 52
M  V30 58 1 30 53
M  V30 59 1 33 54
M  V30 60 1 34 55
M  V30 END BOND
M  V30 END CTAB
M  END
>  <Dataset>  (153) 
ChEMBL_Kinases

>  <Ligand_Instance>  (153) 
nan

>  <PDB_ID>  (153) 
nan

>  <Standardized_SMILES>  (153) 
Cc1ccc(-n2cc3c(-c4c[nH]c(-c5ccccc5)c4-c4ccccc4)nnc(O)c3n2)cc1

>  <Name>  (153) 
nan

>  <Pocket>  (153) 
nan

>  <ATP_Site>  (153) 
nan

>  <Peripheral>  (153) 
nan

>  <Num_H_Atoms_ProtBoundConf>  (153) 
nan

>  <Num_Resolved_Atoms>  (153) 
nan

>  <Num_Not_Resolved_Atoms>  (153) 
nan

$$$$
CHEMBL576278
     RDKit          3D

  0  0  0  0  0  0  0  0  0  0999 V3000
M  V30 BEGIN CTAB
M  V30 COUNTS 60 65 0 0 0
M  V30 BEGIN ATOM
M  V30 1 C 3.614418 0.398273 3.805089 0
M  V30 2 C 2.361476 -0.362914 3.800983 0
M  V30 3 C 2.036372 -1.333422 2.849616 0
M  V30 4 N 2.903215 -1.637552 1.790075 0
M  V30 5 C 3.667818 -1.135563 0.750938 0
M  V30 6 C 5.030638 -1.244645 1.103434 0
M  V30 7 C 5.536427 -1.862433 2.305366 0
M  V30 8 N 5.925300 -2.365883 3.279641 0
M  V30 9 C 6.071802 -0.778217 0.292884 0
M  V30 10 N 5.733801 -0.205439 -0.868902 0
M  V30 11 C 4.462429 -0.096932 -1.215444 0
M  V30 12 C 3.409347 -0.539922 -0.453262 0
M  V30 13 C 2.032686 -0.459790 -0.875519 0
M  V30 14 C 0.797887 -0.912334 -0.520636 0
M  V30 15 C -0.203681 -0.480408 -1.355567 0
M  V30 16 C -1.568666 -0.628252 -1.457035 0
M  V30 17 C -2.207414 0.009256 -2.499042 0
M  V30 18 C -3.660492 -0.152827 -2.597606 0
M  V30 19 N -4.114686 -1.261353 -3.371730 0
M  V30 20 C -5.584949 -1.231135 -3.337908 0
M  V30 21 C -6.108912 -1.258631 -1.945959 0
M  V30 22 O -5.389008 -1.973906 -1.040735 0
M  V30 23 C -4.464903 -2.853107 -1.512723 0
M  V30 24 C -3.792500 -2.544888 -2.794275 0
M  V30 25 C -1.483840 0.763085 -3.395852 0
M  V30 26 C -0.117535 0.924499 -3.313017 0
M  V30 27 C 0.510414 0.275543 -2.257264 0
M  V30 28 O 1.757973 0.249262 -1.936818 0
M  V30 29 C 0.796302 -1.903364 3.038689 0
M  V30 30 C -0.120497 -1.643168 4.008353 0
M  V30 31 C 0.252343 -0.680301 4.916723 0
M  V30 32 N -0.374730 -0.161417 5.995433 0
M  V30 33 C 0.350866 0.778202 6.623999 0
M  V30 34 C 1.510813 0.848501 5.883907 0
M  V30 35 C 1.465931 -0.043362 4.829140 0
M  V30 36 H 3.881260 0.770978 2.773832 0
M  V30 37 H 3.456540 1.352228 4.386660 0
M  V30 38 H 4.445248 -0.100503 4.308928 0
M  V30 39 H 2.983737 -2.699086 1.826748 0
M  V30 40 H 7.121178 -0.838594 0.519469 0
M  V30 41 H 4.261060 0.378634 -2.173238 0
M  V30 42 H 0.682400 -1.549422 0.321024 0
M  V30 43 H -2.013409 -1.245298 -0.689651 0
M  V30 44 H -4.030594 0.772862 -3.126923 0
M  V30 45 H -4.127487 -0.086566 -1.593815 0
M  V30 46 H -6.034223 -2.009735 -3.968796 0
M  V30 47 H -5.845181 -0.258660 -3.846785 0
M  V30 48 H -7.168294 -1.603893 -1.986519 0
M  V30 49 H -6.165781 -0.204583 -1.598040 0
M  V30 50 H -4.950944 -3.868444 -1.544541 0
M  V30 51 H -3.691022 -2.964100 -0.713792 0
M  V30 52 H -2.698158 -2.713553 -2.717683 0
M  V30 53 H -4.126596 -3.297311 -3.558825 0
M  V30 54 H -1.970743 1.274394 -4.224230 0
M  V30 55 H 0.488214 1.511358 -4.000786 0
M  V30 56 H 0.455202 -2.690315 2.344847 0
M  V30 57 H -1.065499 -2.115042 4.105406 0
M  V30 58 H -1.333182 -0.472467 6.298294 0
M  V30 59 H 0.030268 1.308231 7.498102 0
M  V30 60 H 2.336230 1.508466 6.100208 0
M  V30 END ATOM
M  V30 BEGIN BOND
M  V30 1 1 1 2
M  V30 2 2 2 3
M  V30 3 1 3 4
M  V30 4 1 4 5
M  V30 5 2 5 6
M  V30 6 1 6 7
M  V30 7 3 7 8
M  V30 8 1 6 9
M  V30 9 2 9 10
M  V30 10 1 10 11
M  V30 11 2 11 12
M  V30 12 1 12 13
M  V30 13 2 13 14
M  V30 14 1 14 15
M  V30 15 2 15 16
M  V30 16 1 16 17
M  V30 17 1 17 18
M  V30 18 1 18 19
M  V30 19 1 19 20
M  V30 20 1 20 21
M  V30 21 1 21 22
M  V30 22 1 22 23
M  V30 23 1 23 24
M  V30 24 2 17 25
M  V30 25 1 25 26
M  V30 26 2 26 27
M  V30 27 1 27 28
M  V30 28 1 3 29
M  V30 29 2 29 30
M  V30 30 1 30 31
M  V30 31 1 31 32
M  V30 32 1 32 33
M  V30 33 2 33 34
M  V30 34 1 34 35
M  V30 35 1 35 2
M  V30 36 1 12 5
M  V30 37 1 28 13
M  V30 38 2 35 31
M  V30 39 1 27 15
M  V30 40 1 24 19
M  V30 41 1 1 36
M  V30 42 1 1 37
M  V30 43 1 1 38
M  V30 44 1 4 39
M  V30 45 1 9 40
M  V30 46 1 11 41
M  V30 47 1 14 42
M  V30 48 1 16 43
M  V30 49 1 18 44
M  V30 50 1 18 45
M  V30 51 1 20 46
M  V30 52 1 20 47
M  V30 53 1 21 48
M  V30 54 1 21 49
M  V30 55 1 23 50
M  V30 56 1 23 51
M  V30 57 1 24 52
M  V30 58 1 24 53
M  V30 59 1 25 54
M  V30 60 1 26 55
M  V30 61 1 29 56
M  V30 62 1 30 57
M  V30 63 1 32 58
M  V30 64 1 33 59
M  V30 65 1 34 60
M  V30 END BOND
M  V30 END CTAB
M  END
>  <Dataset>  (154) 
ChEMBL_Kinases

>  <Ligand_Instance>  (154) 
nan

>  <PDB_ID>  (154) 
nan

>  <Standardized_SMILES>  (154) 
Cc1c(Nc2c(C#N)cncc2-c2cc3cc(CN4CCOCC4)ccc3o2)ccc2[nH]ccc12

>  <Name>  (154) 
nan

>  <Pocket>  (154) 
nan

>  <ATP_Site>  (154) 
nan

>  <Peripheral>  (154) 
nan

>  <Num_H_Atoms_ProtBoundConf>  (154) 
nan

>  <Num_Resolved_Atoms>  (154) 
nan

>  <Num_Not_Resolved_Atoms>  (154) 
nan

$$$$
CHEMBL510892
     RDKit          3D

  0  0  0  0  0  0  0  0  0  0999 V3000
M  V30 BEGIN CTAB
M  V30 COUNTS 45 46 0 0 0
M  V30 BEGIN ATOM
M  V30 1 C 0.625186 -2.899614 3.710858 0
M  V30 2 C 0.500848 -3.911305 2.589101 0
M  V30 3 C -0.858542 -3.750039 1.942003 0
M  V30 4 C 1.568233 -3.678624 1.572082 0
M  V30 5 O 2.447572 -4.536054 1.305109 0
M  V30 6 O 1.637111 -2.480554 0.862194 0
M  V30 7 C 2.684461 -2.353095 -0.080446 0
M  V30 8 C 2.602738 -1.001029 -0.781404 0
M  V30 9 C 3.757890 -0.880971 -1.756509 0
M  V30 10 O 3.764073 0.359092 -2.384834 0
M  V30 11 C 2.664145 0.065259 0.280742 0
M  V30 12 C 1.305790 0.645024 0.241187 0
M  V30 13 C 0.679551 1.486395 1.050556 0
M  V30 14 C -0.655092 2.044470 1.005225 0
M  V30 15 C -0.889604 3.418496 1.122646 0
M  V30 16 C -2.162642 3.940814 1.109763 0
M  V30 17 C -3.266665 3.126855 0.979970 0
M  V30 18 C -3.089253 1.755995 0.860340 0
M  V30 19 C -4.284158 0.882750 0.724598 0
M  V30 20 F -5.376493 1.382071 1.410901 0
M  V30 21 F -4.631159 0.892377 -0.619085 0
M  V30 22 F -4.001065 -0.417133 1.052391 0
M  V30 23 C -1.790620 1.290553 0.879596 0
M  V30 24 C 0.621323 0.190158 -0.959425 0
M  V30 25 O -0.433985 0.614237 -1.496140 0
M  V30 26 O 1.370661 -0.862851 -1.462724 0
M  V30 27 H 0.103682 -3.334070 4.596350 0
M  V30 28 H 1.709304 -2.742171 3.922770 0
M  V30 29 H 0.125116 -1.936865 3.486373 0
M  V30 30 H 0.629479 -4.929942 2.971594 0
M  V30 31 H -0.816379 -3.606973 0.854078 0
M  V30 32 H -1.428199 -4.681413 2.132562 0
M  V30 33 H -1.436901 -2.910618 2.415127 0
M  V30 34 H 3.624234 -2.371436 0.509240 0
M  V30 35 H 2.714415 -3.188481 -0.797025 0
M  V30 36 H 4.716398 -0.946090 -1.174442 0
M  V30 37 H 3.680538 -1.688692 -2.509095 0
M  V30 38 H 3.177178 0.392419 -3.173317 0
M  V30 39 H 2.932191 -0.328097 1.279571 0
M  V30 40 H 3.374977 0.847107 -0.073476 0
M  V30 41 H 1.266669 1.836874 1.919158 0
M  V30 42 H -0.051060 4.104460 1.227947 0
M  V30 43 H -2.277482 5.027952 1.205590 0
M  V30 44 H -4.257887 3.562534 0.972380 0
M  V30 45 H -1.747744 0.197224 0.796068 0
M  V30 END ATOM
M  V30 BEGIN BOND
M  V30 1 1 1 2
M  V30 2 1 2 3
M  V30 3 1 2 4
M  V30 4 2 4 5
M  V30 5 1 4 6
M  V30 6 1 6 7
M  V30 7 1 7 8
M  V30 8 1 8 9
M  V30 9 1 9 10
M  V30 10 1 8 11
M  V30 11 1 11 12
M  V30 12 2 12 13
M  V30 13 1 13 14
M  V30 14 2 14 15
M  V30 15 1 15 16
M  V30 16 2 16 17
M  V30 17 1 17 18
M  V30 18 1 18 19
M  V30 19 1 19 20
M  V30 20 1 19 21
M  V30 21 1 19 22
M  V30 22 2 18 23
M  V30 23 1 12 24
M  V30 24 2 24 25
M  V30 25 1 24 26
M  V30 26 1 26 8
M  V30 27 1 23 14
M  V30 28 1 1 27
M  V30 29 1 1 28
M  V30 30 1 1 29
M  V30 31 1 2 30
M  V30 32 1 3 31
M  V30 33 1 3 32
M  V30 34 1 3 33
M  V30 35 1 7 34
M  V30 36 1 7 35
M  V30 37 1 9 36
M  V30 38 1 9 37
M  V30 39 1 10 38
M  V30 40 1 11 39
M  V30 41 1 11 40
M  V30 42 1 13 41
M  V30 43 1 15 42
M  V30 44 1 16 43
M  V30 45 1 17 44
M  V30 46 1 23 45
M  V30 END BOND
M  V30 END CTAB
M  END
>  <Dataset>  (155) 
ChEMBL_Kinases

>  <Ligand_Instance>  (155) 
nan

>  <PDB_ID>  (155) 
nan

>  <Standardized_SMILES>  (155) 
CC(C)C(=O)OCC1(CO)C/C(=C/c2cccc(C(F)(F)F)c2)C(=O)O1

>  <Name>  (155) 
nan

>  <Pocket>  (155) 
nan

>  <ATP_Site>  (155) 
nan

>  <Peripheral>  (155) 
nan

>  <Num_H_Atoms_ProtBoundConf>  (155) 
nan

>  <Num_Resolved_Atoms>  (155) 
nan

>  <Num_Not_Resolved_Atoms>  (155) 
nan

$$$$
CHEMBL511094
     RDKit          3D

  0  0  0  0  0  0  0  0  0  0999 V3000
M  V30 BEGIN CTAB
M  V30 COUNTS 61 63 0 0 0
M  V30 BEGIN ATOM
M  V30 1 C 4.606929 0.919179 2.700668 0
M  V30 2 C 3.309321 0.988463 1.887114 0
M  V30 3 C 2.324768 0.061540 2.590910 0
M  V30 4 C 3.579879 0.543137 0.487122 0
M  V30 5 C 2.825825 2.430056 1.983783 0
M  V30 6 C 1.585722 2.548619 1.221868 0
M  V30 7 O 1.443741 1.388132 0.779355 0
M  V30 8 O 0.694277 3.546074 0.951130 0
M  V30 9 C -0.449202 3.442383 0.180587 0
M  V30 10 C -0.289751 3.083361 -1.254146 0
M  V30 11 C 0.269270 4.230695 -2.084977 0
M  V30 12 O 1.611050 4.440582 -1.864313 0
M  V30 13 C -1.730419 2.844330 -1.761305 0
M  V30 14 C -1.912417 1.406488 -1.354525 0
M  V30 15 C -2.894996 0.698825 -0.799912 0
M  V30 16 C -2.791993 -0.724743 -0.504377 0
M  V30 17 C -1.610560 -1.168031 0.101300 0
M  V30 18 C -1.438037 -2.512679 0.404724 0
M  V30 19 C -2.414359 -3.460942 0.125626 0
M  V30 20 C -2.181686 -4.857566 0.469405 0
M  V30 21 C -2.658644 -5.973237 -0.184158 0
M  V30 22 C -2.374872 -7.255357 0.235174 0
M  V30 23 C -1.591714 -7.454352 1.340201 0
M  V30 24 C -1.276439 -8.834708 1.808292 0
M  V30 25 F -2.230424 -9.738737 1.435183 0
M  V30 26 F -0.034258 -9.194005 1.339867 0
M  V30 27 F -1.194621 -8.795163 3.206420 0
M  V30 28 C -1.085684 -6.377468 2.035638 0
M  V30 29 C -1.384788 -5.098167 1.594718 0
M  V30 30 C -3.565282 -2.982263 -0.472026 0
M  V30 31 C -3.770592 -1.658722 -0.786837 0
M  V30 32 C -0.610515 0.846500 -1.780940 0
M  V30 33 O -0.518590 -0.330909 -2.268280 0
M  V30 34 O 0.332598 1.864132 -1.518248 0
M  V30 35 H 5.407708 1.427767 2.161540 0
M  V30 36 H 4.463619 1.328769 3.719958 0
M  V30 37 H 4.857345 -0.147981 2.807250 0
M  V30 38 H 1.453552 0.625748 3.014207 0
M  V30 39 H 2.788928 -0.508598 3.419249 0
M  V30 40 H 1.972755 -0.686800 1.834609 0
M  V30 41 H 4.608878 0.077116 0.437266 0
M  V30 42 H 3.607222 1.387958 -0.210595 0
M  V30 43 H 2.912612 -0.301738 0.142074 0
M  V30 44 H 2.729877 2.644976 3.077245 0
M  V30 45 H 3.644630 3.086588 1.625061 0
M  V30 46 H -1.218531 2.757326 0.595381 0
M  V30 47 H -0.945007 4.448617 0.198649 0
M  V30 48 H -0.307500 5.160090 -1.913274 0
M  V30 49 H 0.117527 3.990455 -3.163629 0
M  V30 50 H 2.150795 3.631897 -2.044399 0
M  V30 51 H -1.832522 3.011705 -2.830246 0
M  V30 52 H -2.456823 3.427833 -1.161902 0
M  V30 53 H -3.794358 1.301138 -0.588143 0
M  V30 54 H -0.754130 -0.544271 0.394861 0
M  V30 55 H -0.532027 -2.877260 0.870932 0
M  V30 56 H -3.271153 -5.748444 -1.050009 0
M  V30 57 H -2.778540 -8.089603 -0.319523 0
M  V30 58 H -0.474178 -6.587118 2.898595 0
M  V30 59 H -0.926823 -4.332983 2.229792 0
M  V30 60 H -4.352701 -3.702702 -0.704481 0
M  V30 61 H -4.672507 -1.306546 -1.250074 0
M  V30 END ATOM
M  V30 BEGIN BOND
M  V30 1 1 1 2
M  V30 2 1 2 3
M  V30 3 1 2 4
M  V30 4 1 2 5
M  V30 5 1 5 6
M  V30 6 2 6 7
M  V30 7 1 6 8
M  V30 8 1 8 9
M  V30 9 1 9 10
M  V30 10 1 10 11
M  V30 11 1 11 12
M  V30 12 1 10 13
M  V30 13 1 13 14
M  V30 14 2 14 15
M  V30 15 1 15 16
M  V30 16 2 16 17
M  V30 17 1 17 18
M  V30 18 2 18 19
M  V30 19 1 19 20
M  V30 20 2 20 21
M  V30 21 1 21 22
M  V30 22 2 22 23
M  V30 23 1 23 24
M  V30 24 1 24 25
M  V30 25 1 24 26
M  V30 26 1 24 27
M  V30 27 1 23 28
M  V30 28 2 28 29
M  V30 29 1 19 30
M  V30 30 2 30 31
M  V30 31 1 14 32
M  V30 32 2 32 33
M  V30 33 1 32 34
M  V30 34 1 34 10
M  V30 35 1 31 16
M  V30 36 1 29 20
M  V30 37 1 1 35
M  V30 38 1 1 36
M  V30 39 1 1 37
M  V30 40 1 3 38
M  V30 41 1 3 39
M  V30 42 1 3 40
M  V30 43 1 4 41
M  V30 44 1 4 42
M  V30 45 1 4 43
M  V30 46 1 5 44
M  V30 47 1 5 45
M  V30 48 1 9 46
M  V30 49 1 9 47
M  V30 50 1 11 48
M  V30 51 1 11 49
M  V30 52 1 12 50
M  V30 53 1 13 51
M  V30 54 1 13 52
M  V30 55 1 15 53
M  V30 56 1 17 54
M  V30 57 1 18 55
M  V30 58 1 21 56
M  V30 59 1 22 57
M  V30 60 1 28 58
M  V30 61 1 29 59
M  V30 62 1 30 60
M  V30 63 1 31 61
M  V30 END BOND
M  V30 END CTAB
M  END
>  <Dataset>  (156) 
ChEMBL_Kinases

>  <Ligand_Instance>  (156) 
nan

>  <PDB_ID>  (156) 
nan

>  <Standardized_SMILES>  (156) 
CC(C)(C)CC(=O)OCC1(CO)C/C(=C/c2ccc(-c3ccc(C(F)(F)F)cc3)cc2)C(=O)O1

>  <Name>  (156) 
nan

>  <Pocket>  (156) 
nan

>  <ATP_Site>  (156) 
nan

>  <Peripheral>  (156) 
nan

>  <Num_H_Atoms_ProtBoundConf>  (156) 
nan

>  <Num_Resolved_Atoms>  (156) 
nan

>  <Num_Not_Resolved_Atoms>  (156) 
nan

$$$$
CHEMBL373913
     RDKit          3D

  0  0  0  0  0  0  0  0  0  0999 V3000
M  V30 BEGIN CTAB
M  V30 COUNTS 61 64 0 0 0
M  V30 BEGIN ATOM
M  V30 1 C 3.786293 -2.724831 4.506651 0
M  V30 2 C 3.428581 -2.344993 3.108378 0
M  V30 3 O 3.039136 -3.309048 2.406768 0
M  V30 4 N 3.567124 -0.994840 2.757854 0
M  V30 5 C 3.241948 -0.583940 1.444972 0
M  V30 6 C 1.966810 -0.166622 1.080794 0
M  V30 7 C 1.636952 0.241490 -0.214111 0
M  V30 8 C 0.253239 0.649272 -0.401526 0
M  V30 9 C -0.223383 1.841140 0.096025 0
M  V30 10 C 0.361313 2.945817 0.845755 0
M  V30 11 C 0.894525 2.989654 2.116887 0
M  V30 12 C 1.395933 4.173108 2.611512 0
M  V30 13 C 1.394591 5.341500 1.892104 0
M  V30 14 F 1.927643 6.397215 2.541811 0
M  V30 15 C 0.862882 5.297989 0.624146 0
M  V30 16 C 0.353195 4.130503 0.099807 0
M  V30 17 N -1.541468 1.873173 -0.258641 0
M  V30 18 C -1.844107 0.741064 -0.944273 0
M  V30 19 S -3.493497 0.458020 -1.558900 0
M  V30 20 C -4.520173 -0.393119 -0.352081 0
M  V30 21 C -4.086799 -1.773310 -0.060756 0
M  V30 22 C -4.532540 -2.870368 -0.753516 0
M  V30 23 C -4.096043 -4.135078 -0.441419 0
M  V30 24 C -3.190665 -4.341318 0.584468 0
M  V30 25 S -2.728811 -6.005984 0.863294 0 CHG=1 VAL=3
M  V30 26 C -1.303613 -6.432264 -0.114872 0
M  V30 27 O -2.512353 -6.349008 2.483039 0 CHG=-1 VAL=1
M  V30 28 C -2.730997 -3.248279 1.292670 0
M  V30 29 C -3.175259 -1.971804 0.973135 0
M  V30 30 N -0.732822 -0.010857 -1.029693 0
M  V30 31 C -0.675851 -1.298519 -1.687785 0
M  V30 32 C -0.335117 -1.097246 -3.145029 0
M  V30 33 O -0.282962 -2.361335 -3.776989 0
M  V30 34 C 2.666386 0.206976 -1.129439 0
M  V30 35 C 3.932737 -0.205787 -0.775527 0
M  V30 36 N 4.210036 -0.593538 0.491908 0
M  V30 37 H 4.144401 -3.765801 4.585236 0
M  V30 38 H 2.826195 -2.706007 5.084276 0
M  V30 39 H 4.441371 -1.994949 5.000109 0
M  V30 40 H 3.905020 -0.287925 3.448285 0
M  V30 41 H 1.270815 -0.193704 1.887184 0
M  V30 42 H 0.855663 2.043716 2.607031 0
M  V30 43 H 1.778861 4.031310 3.631656 0
M  V30 44 H 0.885510 6.253732 0.091970 0
M  V30 45 H -0.026148 4.272914 -0.910794 0
M  V30 46 H -4.563677 0.163818 0.622401 0
M  V30 47 H -5.544020 -0.470747 -0.777813 0
M  V30 48 H -5.238678 -2.712194 -1.553416 0
M  V30 49 H -4.498875 -4.954208 -1.040552 0
M  V30 50 H -0.409690 -6.207485 0.508726 0
M  V30 51 H -1.226231 -5.765135 -1.011049 0
M  V30 52 H -1.275048 -7.500766 -0.397788 0
M  V30 53 H -2.021971 -3.470018 2.086291 0
M  V30 54 H -2.775842 -1.148046 1.569070 0
M  V30 55 H -1.681015 -1.798468 -1.668959 0
M  V30 56 H 0.100143 -1.958864 -1.244857 0
M  V30 57 H -1.157646 -0.548668 -3.674036 0
M  V30 58 H 0.624198 -0.561518 -3.279497 0
M  V30 59 H 0.592644 -2.792123 -3.608405 0
M  V30 60 H 2.390718 0.527291 -2.117098 0
M  V30 61 H 4.662622 -0.191599 -1.579961 0
M  V30 END ATOM
M  V30 BEGIN BOND
M  V30 1 1 1 2
M  V30 2 2 2 3
M  V30 3 1 2 4
M  V30 4 1 4 5
M  V30 5 2 5 6
M  V30 6 1 6 7
M  V30 7 1 7 8
M  V30 8 2 8 9
M  V30 9 1 9 10
M  V30 10 2 10 11
M  V30 11 1 11 12
M  V30 12 2 12 13
M  V30 13 1 13 14
M  V30 14 1 13 15
M  V30 15 2 15 16
M  V30 16 1 9 17
M  V30 17 2 17 18
M  V30 18 1 18 19
M  V30 19 1 19 20
M  V30 20 1 20 21
M  V30 21 2 21 22
M  V30 22 1 22 23
M  V30 23 2 23 24
M  V30 24 1 24 25
M  V30 25 1 25 26
M  V30 26 1 25 27
M  V30 27 1 24 28
M  V30 28 2 28 29
M  V30 29 1 18 30
M  V30 30 1 30 31
M  V30 31 1 31 32
M  V30 32 1 32 33
M  V30 33 2 7 34
M  V30 34 1 34 35
M  V30 35 2 35 36
M  V30 36 1 36 5
M  V30 37 1 30 8
M  V30 38 1 16 10
M  V30 39 1 29 21
M  V30 40 1 1 37
M  V30 41 1 1 38
M  V30 42 1 1 39
M  V30 43 1 4 40
M  V30 44 1 6 41
M  V30 45 1 11 42
M  V30 46 1 12 43
M  V30 47 1 15 44
M  V30 48 1 16 45
M  V30 49 1 20 46
M  V30 50 1 20 47
M  V30 51 1 22 48
M  V30 52 1 23 49
M  V30 53 1 26 50
M  V30 54 1 26 51
M  V30 55 1 26 52
M  V30 56 1 28 53
M  V30 57 1 29 54
M  V30 58 1 31 55
M  V30 59 1 31 56
M  V30 60 1 32 57
M  V30 61 1 32 58
M  V30 62 1 33 59
M  V30 63 1 34 60
M  V30 64 1 35 61
M  V30 END BOND
M  V30 END CTAB
M  END
>  <Dataset>  (157) 
ChEMBL_Kinases

>  <Ligand_Instance>  (157) 
nan

>  <PDB_ID>  (157) 
nan

>  <Standardized_SMILES>  (157) 
CC(=O)Nc1cc(-c2c(-c3ccc(F)cc3)nc(SCc3ccc([S+](C)[O-])cc3)n2CCO)ccn1

>  <Name>  (157) 
nan

>  <Pocket>  (157) 
nan

>  <ATP_Site>  (157) 
nan

>  <Peripheral>  (157) 
nan

>  <Num_H_Atoms_ProtBoundConf>  (157) 
nan

>  <Num_Resolved_Atoms>  (157) 
nan

>  <Num_Not_Resolved_Atoms>  (157) 
nan

$$$$
CHEMBL373897
     RDKit          3D

  0  0  0  0  0  0  0  0  0  0999 V3000
M  V30 BEGIN CTAB
M  V30 COUNTS 44 46 0 0 0
M  V30 BEGIN ATOM
M  V30 1 N 6.603558 -0.316929 2.717498 0
M  V30 2 C 5.649014 -0.964652 2.709973 0
M  V30 3 C 4.482066 -1.785394 2.708048 0
M  V30 4 N 4.295890 -3.076508 3.004514 0
M  V30 5 C 3.028098 -3.573877 2.901920 0
M  V30 6 C 1.931127 -2.853738 2.519445 0
M  V30 7 N 2.171809 -1.564577 2.232939 0
M  V30 8 C 3.402438 -1.037341 2.320613 0
M  V30 9 O 3.030262 0.230115 1.926033 0
M  V30 10 C 3.478127 0.865029 0.775994 0
M  V30 11 C 2.805875 2.204700 0.620614 0
M  V30 12 C 1.322871 2.109800 0.525807 0
M  V30 13 C 0.575331 1.718695 1.738094 0
M  V30 14 C -0.900604 1.481838 1.302444 0
M  V30 15 O -0.912745 0.438589 0.415834 0
M  V30 16 C -1.836703 -0.244523 -0.281057 0
M  V30 17 C -2.567324 0.374236 -1.266068 0
M  V30 18 C -3.511266 -0.331791 -1.978940 0
M  V30 19 N -4.218260 0.393348 -2.979476 0
M  V30 20 C -3.778911 -1.665759 -1.759399 0
M  V30 21 Cl -5.007586 -2.426528 -2.746656 0
M  V30 22 C -3.043491 -2.283484 -0.769227 0
M  V30 23 C -2.089579 -1.603995 -0.035911 0
M  V30 24 N -1.512449 -2.484368 0.907187 0
M  V30 25 C -0.286993 -2.723414 1.552556 0
M  V30 26 O 0.159728 -1.756862 0.896685 0
M  V30 27 N 0.609670 -3.367668 2.423721 0
M  V30 28 H 2.803541 -4.590909 3.118200 0
M  V30 29 H 3.347054 0.238777 -0.144057 0
M  V30 30 H 4.582162 1.081856 0.873182 0
M  V30 31 H 3.165711 2.625830 -0.346438 0
M  V30 32 H 3.158228 2.863542 1.442012 0
M  V30 33 H 0.939535 3.115174 0.211274 0
M  V30 34 H 1.092360 1.447104 -0.336004 0
M  V30 35 H 0.571495 2.559375 2.499550 0
M  V30 36 H 0.868104 0.834544 2.281282 0
M  V30 37 H -1.461858 1.201398 2.223993 0
M  V30 38 H -1.294325 2.381215 0.813712 0
M  V30 39 H -2.371353 1.420847 -1.452730 0
M  V30 40 H -5.157968 0.558560 -2.527073 0
M  V30 41 H -3.763949 0.624585 -3.892545 0
M  V30 42 H -3.332803 -3.340984 -0.674810 0
M  V30 43 H -2.007870 -3.260275 1.378901 0
M  V30 44 H 0.379871 -4.186399 3.025956 0
M  V30 END ATOM
M  V30 BEGIN BOND
M  V30 1 3 1 2
M  V30 2 1 2 3
M  V30 3 2 3 4
M  V30 4 1 4 5
M  V30 5 2 5 6
M  V30 6 1 6 7
M  V30 7 2 7 8
M  V30 8 1 8 9
M  V30 9 1 9 10
M  V30 10 1 10 11
M  V30 11 1 11 12
M  V30 12 1 12 13
M  V30 13 1 13 14
M  V30 14 1 14 15
M  V30 15 1 15 16
M  V30 16 2 16 17
M  V30 17 1 17 18
M  V30 18 1 18 19
M  V30 19 2 18 20
M  V30 20 1 20 21
M  V30 21 1 20 22
M  V30 22 2 22 23
M  V30 23 1 23 24
M  V30 24 1 24 25
M  V30 25 2 25 26
M  V30 26 1 25 27
M  V30 27 1 8 3
M  V30 28 1 23 16
M  V30 29 1 27 6
M  V30 30 1 5 28
M  V30 31 1 10 29
M  V30 32 1 10 30
M  V30 33 1 11 31
M  V30 34 1 11 32
M  V30 35 1 12 33
M  V30 36 1 12 34
M  V30 37 1 13 35
M  V30 38 1 13 36
M  V30 39 1 14 37
M  V30 40 1 14 38
M  V30 41 1 17 39
M  V30 42 1 19 40
M  V30 43 1 19 41
M  V30 44 1 22 42
M  V30 45 1 24 43
M  V30 46 1 27 44
M  V30 END BOND
M  V30 END CTAB
M  END
>  <Dataset>  (158) 
ChEMBL_Kinases

>  <Ligand_Instance>  (158) 
nan

>  <PDB_ID>  (158) 
nan

>  <Standardized_SMILES>  (158) 
N#Cc1ncc2nc1OCCCCCOc1cc(N)c(Cl)cc1NC(=O)N2

>  <Name>  (158) 
nan

>  <Pocket>  (158) 
nan

>  <ATP_Site>  (158) 
nan

>  <Peripheral>  (158) 
nan

>  <Num_H_Atoms_ProtBoundConf>  (158) 
nan

>  <Num_Resolved_Atoms>  (158) 
nan

>  <Num_Not_Resolved_Atoms>  (158) 
nan

$$$$
CHEMBL373882
     RDKit          3D

  0  0  0  0  0  0  0  0  0  0999 V3000
M  V30 BEGIN CTAB
M  V30 COUNTS 73 76 0 0 0
M  V30 BEGIN ATOM
M  V30 1 C 2.677617 -3.400197 3.180661 0
M  V30 2 N 2.784118 -2.522863 2.037053 0
M  V30 3 C 4.049809 -1.988409 1.702274 0
M  V30 4 N 5.093940 -2.328261 2.469312 0
M  V30 5 C 6.309731 -1.822753 2.158045 0
M  V30 6 N 6.429220 -1.003774 1.099672 0
M  V30 7 C 5.400244 -0.645893 0.313507 0
M  V30 8 C 5.625718 0.249783 -0.811095 0
M  V30 9 C 6.927005 0.693776 -0.997536 0
M  V30 10 C 7.257215 1.538586 -2.021582 0
M  V30 11 C 6.225606 1.913379 -2.842876 0
M  V30 12 N 4.978027 1.476327 -2.649055 0
M  V30 13 C 4.592748 0.649172 -1.666127 0
M  V30 14 O 3.386754 0.122200 -1.340372 0
M  V30 15 C 2.170984 0.312880 -1.969385 0
M  V30 16 C 1.977740 1.102920 -3.078157 0
M  V30 17 C 0.743620 1.260445 -3.667707 0
M  V30 18 C -0.298017 0.577741 -3.081962 0
M  V30 19 F -1.514018 0.704062 -3.628356 0
M  V30 20 C -0.195067 -0.231132 -1.976203 0
M  V30 21 C -1.239631 -0.971407 -1.295538 0
M  V30 22 O -1.007168 -1.743471 -0.312557 0
M  V30 23 N -2.628887 -0.973572 -1.578074 0
M  V30 24 C -3.681621 -1.651508 -0.964442 0
M  V30 25 C -3.764116 -2.953586 -1.413393 0
M  V30 26 C -4.756262 -3.798727 -0.948119 0
M  V30 27 C -4.888655 -5.215779 -1.400915 0
M  V30 28 F -3.661463 -5.658036 -1.845804 0
M  V30 29 F -5.273981 -6.024603 -0.361377 0
M  V30 30 F -5.797710 -5.308415 -2.447875 0
M  V30 31 C -5.641416 -3.284253 -0.031203 0
M  V30 32 C -5.560205 -1.992327 0.414475 0
M  V30 33 C -4.576668 -1.158808 -0.049025 0
M  V30 34 N -4.503846 0.172235 0.423985 0
M  V30 35 C -5.776450 0.722844 0.922656 0
M  V30 36 C -3.520850 1.213291 0.594317 0
M  V30 37 C -3.261604 1.524833 2.045276 0
M  V30 38 C -2.745162 0.355275 2.829202 0
M  V30 39 N -1.488042 -0.064760 2.246850 0
M  V30 40 C -0.451592 0.907682 2.440343 0
M  V30 41 C -1.107148 -1.303906 2.940809 0
M  V30 42 C 1.081063 -0.355958 -1.417055 0
M  V30 43 N 4.201785 -1.159958 0.641095 0
M  V30 44 H 1.662676 -3.554547 3.552436 0
M  V30 45 H 3.317714 -2.975069 3.987472 0
M  V30 46 H 3.119261 -4.389751 2.893314 0
M  V30 47 H 1.895381 -2.335668 1.518306 0
M  V30 48 H 7.195208 -2.068344 2.750149 0
M  V30 49 H 7.744711 0.389370 -0.337373 0
M  V30 50 H 8.272386 1.871470 -2.151588 0
M  V30 51 H 6.423947 2.581447 -3.670819 0
M  V30 52 H 2.805482 1.630649 -3.524361 0
M  V30 53 H 0.559681 1.871057 -4.535690 0
M  V30 54 H -2.964882 -0.389527 -2.360080 0
M  V30 55 H -3.098955 -3.440952 -2.142447 0
M  V30 56 H -6.421421 -3.975775 0.324269 0
M  V30 57 H -6.318245 -1.747280 1.135115 0
M  V30 58 H -5.663950 0.865220 2.011123 0
M  V30 59 H -6.649650 0.122607 0.616278 0
M  V30 60 H -5.880988 1.751601 0.476873 0
M  V30 61 H -2.560134 1.048544 0.114170 0
M  V30 62 H -3.909720 2.169707 0.140404 0
M  V30 63 H -4.101292 2.054888 2.542164 0
M  V30 64 H -2.427596 2.286687 2.033032 0
M  V30 65 H -2.611403 0.643087 3.903337 0
M  V30 66 H -3.468098 -0.496718 2.795961 0
M  V30 67 H -0.587320 1.569133 3.312860 0
M  V30 68 H 0.511339 0.344607 2.461512 0
M  V30 69 H -0.338471 1.603543 1.570062 0
M  V30 70 H -0.378867 -1.893512 2.356297 0
M  V30 71 H -0.688207 -1.064566 3.942489 0
M  V30 72 H -2.012699 -1.925910 3.115836 0
M  V30 73 H 1.241481 -0.986701 -0.531719 0
M  V30 END ATOM
M  V30 BEGIN BOND
M  V30 1 1 1 2
M  V30 2 1 2 3
M  V30 3 2 3 4
M  V30 4 1 4 5
M  V30 5 2 5 6
M  V30 6 1 6 7
M  V30 7 1 7 8
M  V30 8 2 8 9
M  V30 9 1 9 10
M  V30 10 2 10 11
M  V30 11 1 11 12
M  V30 12 2 12 13
M  V30 13 1 13 14
M  V30 14 1 14 15
M  V30 15 2 15 16
M  V30 16 1 16 17
M  V30 17 2 17 18
M  V30 18 1 18 19
M  V30 19 1 18 20
M  V30 20 1 20 21
M  V30 21 2 21 22
M  V30 22 1 21 23
M  V30 23 1 23 24
M  V30 24 2 24 25
M  V30 25 1 25 26
M  V30 26 1 26 27
M  V30 27 1 27 28
M  V30 28 1 27 29
M  V30 29 1 27 30
M  V30 30 2 26 31
M  V30 31 1 31 32
M  V30 32 2 32 33
M  V30 33 1 33 34
M  V30 34 1 34 35
M  V30 35 1 34 36
M  V30 36 1 36 37
M  V30 37 1 37 38
M  V30 38 1 38 39
M  V30 39 1 39 40
M  V30 40 1 39 41
M  V30 41 2 20 42
M  V30 42 2 7 43
M  V30 43 1 43 3
M  V30 44 1 13 8
M  V30 45 1 42 15
M  V30 46 1 33 24
M  V30 47 1 1 44
M  V30 48 1 1 45
M  V30 49 1 1 46
M  V30 50 1 2 47
M  V30 51 1 5 48
M  V30 52 1 9 49
M  V30 53 1 10 50
M  V30 54 1 11 51
M  V30 55 1 16 52
M  V30 56 1 17 53
M  V30 57 1 23 54
M  V30 58 1 25 55
M  V30 59 1 31 56
M  V30 60 1 32 57
M  V30 61 1 35 58
M  V30 62 1 35 59
M  V30 63 1 35 60
M  V30 64 1 36 61
M  V30 65 1 36 62
M  V30 66 1 37 63
M  V30 67 1 37 64
M  V30 68 1 38 65
M  V30 69 1 38 66
M  V30 70 1 40 67
M  V30 71 1 40 68
M  V30 72 1 40 69
M  V30 73 1 41 70
M  V30 74 1 41 71
M  V30 75 1 41 72
M  V30 76 1 42 73
M  V30 END BOND
M  V30 END CTAB
M  END
>  <Dataset>  (159) 
ChEMBL_Kinases

>  <Ligand_Instance>  (159) 
nan

>  <PDB_ID>  (159) 
nan

>  <Standardized_SMILES>  (159) 
CNc1ncnc(-c2cccnc2Oc2ccc(F)c(C(=O)Nc3cc(C(F)(F)F)ccc3N(C)CCCN(C)C)c2)n1

>  <Name>  (159) 
nan

>  <Pocket>  (159) 
nan

>  <ATP_Site>  (159) 
nan

>  <Peripheral>  (159) 
nan

>  <Num_H_Atoms_ProtBoundConf>  (159) 
nan

>  <Num_Resolved_Atoms>  (159) 
nan

>  <Num_Not_Resolved_Atoms>  (159) 
nan

$$$$
CHEMBL373837
     RDKit          3D

  0  0  0  0  0  0  0  0  0  0999 V3000
M  V30 BEGIN CTAB
M  V30 COUNTS 56 59 0 0 0
M  V30 BEGIN ATOM
M  V30 1 N 5.463846 -1.994525 4.902821 0
M  V30 2 C 5.168123 -1.913190 3.790849 0
M  V30 3 C 4.805068 -1.837247 2.413077 0
M  V30 4 N 4.834075 -2.918518 1.614634 0
M  V30 5 C 4.477702 -2.768259 0.325186 0
M  V30 6 C 4.104418 -1.509092 -0.090022 0
M  V30 7 N 4.058762 -0.393980 0.670891 0
M  V30 8 C 4.429693 -0.595775 1.970236 0
M  V30 9 O 4.344336 0.602578 2.630857 0
M  V30 10 C 3.201520 1.421024 2.559968 0
M  V30 11 C 1.981712 0.725640 3.114612 0
M  V30 12 C 0.746566 1.592279 2.991321 0
M  V30 13 C 0.381180 1.896797 1.556802 0
M  V30 14 C 0.037795 0.629551 0.795240 0
M  V30 15 O -0.258931 0.957693 -0.527522 0
M  V30 16 C -0.642421 0.041936 -1.490744 0
M  V30 17 C -1.989270 -0.255219 -1.395571 0
M  V30 18 C -2.704414 -1.133895 -2.203685 0
M  V30 19 N -4.095045 -1.353255 -2.019943 0
M  V30 20 C -5.111733 -0.895562 -1.117656 0
M  V30 21 C -4.861230 -1.466642 0.227277 0
M  V30 22 C -4.254435 -1.061848 1.371357 0
M  V30 23 C -4.188187 -1.896351 2.462141 0
M  V30 24 C -4.707776 -3.166085 2.498793 0
M  V30 25 N -5.314952 -3.578421 1.363727 0
M  V30 26 C -5.388339 -2.766482 0.278288 0
M  V30 27 C -1.986782 -1.768750 -3.200887 0
M  V30 28 Cl -2.844430 -2.898727 -4.262357 0
M  V30 29 C -0.652444 -1.481736 -3.304209 0
M  V30 30 C 0.030482 -0.608622 -2.490504 0
M  V30 31 N 1.396136 -0.581606 -2.892429 0
M  V30 32 C 2.641441 -0.831132 -2.280554 0
M  V30 33 O 1.687576 -0.983139 -1.476262 0
M  V30 34 N 3.695172 -1.141722 -1.393527 0
M  V30 35 H 4.403287 -3.397339 -0.538074 0
M  V30 36 H 2.989533 1.716104 1.492168 0
M  V30 37 H 3.327533 2.341367 3.175519 0
M  V30 38 H 1.874339 -0.252099 2.655460 0
M  V30 39 H 2.162459 0.589633 4.224313 0
M  V30 40 H 1.001453 2.565277 3.464269 0
M  V30 41 H -0.095639 1.190932 3.564780 0
M  V30 42 H 1.181331 2.483372 1.077987 0
M  V30 43 H -0.502889 2.577171 1.614752 0
M  V30 44 H -0.827244 0.122979 1.309079 0
M  V30 45 H 0.880876 -0.062283 0.927046 0
M  V30 46 H -2.622473 0.210696 -0.646239 0
M  V30 47 H -4.502006 -2.038927 -2.732800 0
M  V30 48 H -5.003386 0.230009 -1.036454 0
M  V30 49 H -6.115559 -1.129599 -1.493154 0
M  V30 50 H -3.880418 -0.060547 1.282521 0
M  V30 51 H -3.671807 -1.444612 3.316374 0
M  V30 52 H -4.595729 -3.729103 3.410865 0
M  V30 53 H -5.920415 -3.316144 -0.509119 0
M  V30 54 H -0.203585 -2.050277 -4.134366 0
M  V30 55 H 1.611996 -0.318138 -3.890604 0
M  V30 56 H 4.646630 -1.102055 -1.803685 0
M  V30 END ATOM
M  V30 BEGIN BOND
M  V30 1 3 1 2
M  V30 2 1 2 3
M  V30 3 2 3 4
M  V30 4 1 4 5
M  V30 5 2 5 6
M  V30 6 1 6 7
M  V30 7 2 7 8
M  V30 8 1 8 9
M  V30 9 1 9 10
M  V30 10 1 10 11
M  V30 11 1 11 12
M  V30 12 1 12 13
M  V30 13 1 13 14
M  V30 14 1 14 15
M  V30 15 1 15 16
M  V30 16 2 16 17
M  V30 17 1 17 18
M  V30 18 1 18 19
M  V30 19 1 19 20
M  V30 20 1 20 21
M  V30 21 2 21 22
M  V30 22 1 22 23
M  V30 23 2 23 24
M  V30 24 1 24 25
M  V30 25 2 25 26
M  V30 26 2 18 27
M  V30 27 1 27 28
M  V30 28 1 27 29
M  V30 29 2 29 30
M  V30 30 1 30 31
M  V30 31 1 31 32
M  V30 32 2 32 33
M  V30 33 1 32 34
M  V30 34 1 8 3
M  V30 35 1 30 16
M  V30 36 1 34 6
M  V30 37 1 26 21
M  V30 38 1 5 35
M  V30 39 1 10 36
M  V30 40 1 10 37
M  V30 41 1 11 38
M  V30 42 1 11 39
M  V30 43 1 12 40
M  V30 44 1 12 41
M  V30 45 1 13 42
M  V30 46 1 13 43
M  V30 47 1 14 44
M  V30 48 1 14 45
M  V30 49 1 17 46
M  V30 50 1 19 47
M  V30 51 1 20 48
M  V30 52 1 20 49
M  V30 53 1 22 50
M  V30 54 1 23 51
M  V30 55 1 24 52
M  V30 56 1 26 53
M  V30 57 1 29 54
M  V30 58 1 31 55
M  V30 59 1 34 56
M  V30 END BOND
M  V30 END CTAB
M  END
>  <Dataset>  (160) 
ChEMBL_Kinases

>  <Ligand_Instance>  (160) 
nan

>  <PDB_ID>  (160) 
nan

>  <Standardized_SMILES>  (160) 
N#Cc1ncc2nc1OCCCCCOc1cc(NCc3cccnc3)c(Cl)cc1NC(=O)N2

>  <Name>  (160) 
nan

>  <Pocket>  (160) 
nan

>  <ATP_Site>  (160) 
nan

>  <Peripheral>  (160) 
nan

>  <Num_H_Atoms_ProtBoundConf>  (160) 
nan

>  <Num_Resolved_Atoms>  (160) 
nan

>  <Num_Not_Resolved_Atoms>  (160) 
nan

$$$$
CHEMBL3740131
     RDKit          3D

  0  0  0  0  0  0  0  0  0  0999 V3000
M  V30 BEGIN CTAB
M  V30 COUNTS 61 65 0 0 0
M  V30 BEGIN ATOM
M  V30 1 C 0.301511 -0.137053 6.939007 0
M  V30 2 C 0.489299 -1.251968 5.933947 0
M  V30 3 O 0.231878 -0.776898 4.626027 0
M  V30 4 C 0.920860 0.237936 4.026395 0
M  V30 5 O 1.843674 0.786800 4.675060 0
M  V30 6 C 0.689541 0.757428 2.685807 0
M  V30 7 N 1.381063 1.749363 2.125314 0
M  V30 8 N 0.928722 1.990282 0.893942 0
M  V30 9 C 1.333003 2.938208 -0.092927 0
M  V30 10 C 2.312034 2.853072 -1.060153 0
M  V30 11 C 2.512487 3.919840 -1.908790 0
M  V30 12 C 1.764421 5.086090 -1.830385 0
M  V30 13 C 0.778855 5.166239 -0.853288 0
M  V30 14 C 0.559384 4.097969 0.016050 0
M  V30 15 C -0.088187 1.100112 0.697179 0
M  V30 16 C -0.272380 0.297832 1.812637 0
M  V30 17 C -1.268191 -0.729717 1.938979 0
M  V30 18 O -1.852401 -0.590513 3.045745 0
M  V30 19 C -1.666764 -1.802863 1.067234 0
M  V30 20 C -2.744085 -2.612983 1.338918 0
M  V30 21 C -3.679343 -2.561856 2.517451 0
M  V30 22 N -2.839681 -3.505593 0.338154 0
M  V30 23 C -1.889368 -3.345150 -0.592467 0
M  V30 24 C -1.596445 -4.057451 -1.828563 0
M  V30 25 C -2.271656 -3.742782 -3.010469 0
M  V30 26 C -1.966326 -4.437730 -4.161241 0
M  V30 27 C -0.995605 -5.442470 -4.145817 0
M  V30 28 C -0.335508 -5.743393 -2.969982 0
M  V30 29 C -0.626110 -5.055946 -1.795286 0
M  V30 30 C -1.144181 -2.258089 -0.121867 0
M  V30 31 C 0.017161 -1.714694 -0.812319 0
M  V30 32 C 0.108985 -1.062259 -2.032522 0
M  V30 33 C 1.340330 -0.648138 -2.482024 0
M  V30 34 C 2.479535 -0.865102 -1.752230 0
M  V30 35 C 2.419503 -1.519330 -0.519773 0
M  V30 36 C 1.165551 -1.932924 -0.077519 0
M  V30 37 H -0.732133 -0.190850 7.363162 0
M  V30 38 H 0.967870 -0.303263 7.816293 0
M  V30 39 H 0.407584 0.867909 6.525265 0
M  V30 40 H -0.275471 -2.027214 6.146186 0
M  V30 41 H 1.508703 -1.673522 5.961607 0
M  V30 42 H 2.827131 1.921327 -1.036376 0
M  V30 43 H 3.300569 3.750859 -2.626757 0
M  V30 44 H 1.997801 5.866984 -2.542706 0
M  V30 45 H 0.212311 6.096411 -0.822269 0
M  V30 46 H -0.231602 4.296925 0.718968 0
M  V30 47 H -0.669527 1.034369 -0.205190 0
M  V30 48 H -4.402808 -3.372636 2.469359 0
M  V30 49 H -4.167180 -1.563630 2.555352 0
M  V30 50 H -3.026446 -2.616872 3.420953 0
M  V30 51 H -3.546458 -4.270335 0.224103 0
M  V30 52 H -3.014856 -2.952282 -2.954803 0
M  V30 53 H -2.518112 -4.153243 -5.045261 0
M  V30 54 H -0.776410 -5.973855 -5.067910 0
M  V30 55 H 0.409749 -6.528191 -3.002485 0
M  V30 56 H -0.080053 -5.331617 -0.903447 0
M  V30 57 H -0.864983 -0.958952 -2.499717 0
M  V30 58 H 1.286583 -0.152085 -3.443939 0
M  V30 59 H 3.418664 -0.518184 -2.154772 0
M  V30 60 H 3.347074 -1.664726 0.014887 0
M  V30 61 H 1.252617 -2.430211 0.894706 0
M  V30 END ATOM
M  V30 BEGIN BOND
M  V30 1 1 1 2
M  V30 2 1 2 3
M  V30 3 1 3 4
M  V30 4 2 4 5
M  V30 5 1 4 6
M  V30 6 2 6 7
M  V30 7 1 7 8
M  V30 8 1 8 9
M  V30 9 2 9 10
M  V30 10 1 10 11
M  V30 11 2 11 12
M  V30 12 1 12 13
M  V30 13 2 13 14
M  V30 14 1 8 15
M  V30 15 2 15 16
M  V30 16 1 16 17
M  V30 17 2 17 18
M  V30 18 1 17 19
M  V30 19 2 19 20
M  V30 20 1 20 21
M  V30 21 1 20 22
M  V30 22 1 22 23
M  V30 23 1 23 24
M  V30 24 2 24 25
M  V30 25 1 25 26
M  V30 26 2 26 27
M  V30 27 1 27 28
M  V30 28 2 28 29
M  V30 29 2 23 30
M  V30 30 1 30 31
M  V30 31 2 31 32
M  V30 32 1 32 33
M  V30 33 2 33 34
M  V30 34 1 34 35
M  V30 35 2 35 36
M  V30 36 1 16 6
M  V30 37 1 30 19
M  V30 38 1 36 31
M  V30 39 1 14 9
M  V30 40 1 29 24
M  V30 41 1 1 37
M  V30 42 1 1 38
M  V30 43 1 1 39
M  V30 44 1 2 40
M  V30 45 1 2 41
M  V30 46 1 10 42
M  V30 47 1 11 43
M  V30 48 1 12 44
M  V30 49 1 13 45
M  V30 50 1 14 46
M  V30 51 1 15 47
M  V30 52 1 21 48
M  V30 53 1 21 49
M  V30 54 1 21 50
M  V30 55 1 22 51
M  V30 56 1 25 52
M  V30 57 1 26 53
M  V30 58 1 27 54
M  V30 59 1 28 55
M  V30 60 1 29 56
M  V30 61 1 32 57
M  V30 62 1 33 58
M  V30 63 1 34 59
M  V30 64 1 35 60
M  V30 65 1 36 61
M  V30 END BOND
M  V30 END CTAB
M  END
>  <Dataset>  (161) 
ChEMBL_Kinases

>  <Ligand_Instance>  (161) 
nan

>  <PDB_ID>  (161) 
nan

>  <Standardized_SMILES>  (161) 
CCOC(=O)c1nn(-c2ccccc2)cc1C(=O)c1c(C)[nH]c(-c2ccccc2)c1-c1ccccc1

>  <Name>  (161) 
nan

>  <Pocket>  (161) 
nan

>  <ATP_Site>  (161) 
nan

>  <Peripheral>  (161) 
nan

>  <Num_H_Atoms_ProtBoundConf>  (161) 
nan

>  <Num_Resolved_Atoms>  (161) 
nan

>  <Num_Not_Resolved_Atoms>  (161) 
nan

$$$$
CHEMBL3735835
     RDKit          3D

  0  0  0  0  0  0  0  0  0  0999 V3000
M  V30 BEGIN CTAB
M  V30 COUNTS 53 56 0 0 0
M  V30 BEGIN ATOM
M  V30 1 O 0.680538 -5.257771 4.427577 0
M  V30 2 C 1.154207 -6.008505 3.526583 0
M  V30 3 O 0.931744 -7.363566 3.842262 0
M  V30 4 C 1.876729 -5.797596 2.237356 0
M  V30 5 N 2.104183 -4.437519 1.899907 0
M  V30 6 C 3.023480 -3.730256 2.731705 0
M  V30 7 C 3.498929 -2.523546 1.952674 0
M  V30 8 C 2.380920 -1.652842 1.487565 0
M  V30 9 C 2.833485 -0.714687 0.377031 0
M  V30 10 N 1.741705 0.120513 -0.065279 0
M  V30 11 C 1.953521 1.048621 -1.079369 0
M  V30 12 O 3.168056 0.953730 -1.426567 0
M  V30 13 C 1.089592 2.000124 -1.724460 0
M  V30 14 N 1.677943 2.758042 -2.679122 0
M  V30 15 N 0.764472 3.587908 -3.188145 0
M  V30 16 C -0.440147 3.433298 -2.620065 0
M  V30 17 C -1.722074 3.935280 -2.677173 0
M  V30 18 C -2.734076 3.470209 -1.867746 0
M  V30 19 C -2.461522 2.452043 -0.951349 0
M  V30 20 C -3.560028 1.986925 -0.113943 0
M  V30 21 C -4.496997 2.738168 0.566668 0
M  V30 22 C -5.476431 2.100185 1.318487 0
M  V30 23 C -5.510145 0.706849 1.383284 0
M  V30 24 C -4.563389 -0.053979 0.695606 0
M  V30 25 C -3.597244 0.590530 -0.046409 0
M  V30 26 F -2.752443 -0.267452 -0.654859 0
M  V30 27 C -1.193774 1.951684 -0.890780 0
M  V30 28 C -0.213326 2.423692 -1.696118 0
M  V30 29 C 1.091675 -2.316040 1.199531 0
M  V30 30 C 0.902182 -3.674156 1.804924 0
M  V30 31 H 0.110825 -7.663041 4.389311 0
M  V30 32 H 1.302588 -6.291051 1.411275 0
M  V30 33 H 2.876479 -6.322740 2.245824 0
M  V30 34 H 3.921358 -4.325500 3.001925 0
M  V30 35 H 2.500134 -3.411989 3.671930 0
M  V30 36 H 4.282859 -1.960100 2.513320 0
M  V30 37 H 3.992573 -2.934399 1.041708 0
M  V30 38 H 2.179496 -0.956020 2.356912 0
M  V30 39 H 3.131903 -1.335328 -0.491729 0
M  V30 40 H 3.684670 -0.100017 0.666352 0
M  V30 41 H 0.811142 0.058499 0.338928 0
M  V30 42 H 0.921801 4.291151 -3.939710 0
M  V30 43 H -1.836738 4.729053 -3.425882 0
M  V30 44 H -3.709422 3.948184 -2.006728 0
M  V30 45 H -4.381616 3.792500 0.450526 0
M  V30 46 H -6.193966 2.723311 1.837906 0
M  V30 47 H -6.286225 0.208933 1.979070 0
M  V30 48 H -4.671714 -1.124781 0.807071 0
M  V30 49 H -1.038009 1.185825 -0.185254 0
M  V30 50 H 0.209842 -1.682261 1.481386 0
M  V30 51 H 0.999654 -2.457750 0.087755 0
M  V30 52 H 0.154384 -4.273871 1.242694 0
M  V30 53 H 0.472283 -3.572483 2.823238 0
M  V30 END ATOM
M  V30 BEGIN BOND
M  V30 1 2 1 2
M  V30 2 1 2 3
M  V30 3 1 2 4
M  V30 4 1 4 5
M  V30 5 1 5 6
M  V30 6 1 6 7
M  V30 7 1 7 8
M  V30 8 1 8 9
M  V30 9 1 9 10
M  V30 10 1 10 11
M  V30 11 2 11 12
M  V30 12 1 11 13
M  V30 13 2 13 14
M  V30 14 1 14 15
M  V30 15 1 15 16
M  V30 16 2 16 17
M  V30 17 1 17 18
M  V30 18 2 18 19
M  V30 19 1 19 20
M  V30 20 2 20 21
M  V30 21 1 21 22
M  V30 22 2 22 23
M  V30 23 1 23 24
M  V30 24 2 24 25
M  V30 25 1 25 26
M  V30 26 1 19 27
M  V30 27 2 27 28
M  V30 28 1 8 29
M  V30 29 1 29 30
M  V30 30 1 30 5
M  V30 31 1 28 13
M  V30 32 1 28 16
M  V30 33 1 25 20
M  V30 34 1 3 31
M  V30 35 1 4 32
M  V30 36 1 4 33
M  V30 37 1 6 34
M  V30 38 1 6 35
M  V30 39 1 7 36
M  V30 40 1 7 37
M  V30 41 1 8 38
M  V30 42 1 9 39
M  V30 43 1 9 40
M  V30 44 1 10 41
M  V30 45 1 15 42
M  V30 46 1 17 43
M  V30 47 1 18 44
M  V30 48 1 21 45
M  V30 49 1 22 46
M  V30 50 1 23 47
M  V30 51 1 24 48
M  V30 52 1 27 49
M  V30 53 1 29 50
M  V30 54 1 29 51
M  V30 55 1 30 52
M  V30 56 1 30 53
M  V30 END BOND
M  V30 END CTAB
M  END
>  <Dataset>  (162) 
ChEMBL_Kinases

>  <Ligand_Instance>  (162) 
nan

>  <PDB_ID>  (162) 
nan

>  <Standardized_SMILES>  (162) 
O=C(O)CN1CCC(CNC(=O)c2n[nH]c3ccc(-c4ccccc4F)cc23)CC1

>  <Name>  (162) 
nan

>  <Pocket>  (162) 
nan

>  <ATP_Site>  (162) 
nan

>  <Peripheral>  (162) 
nan

>  <Num_H_Atoms_ProtBoundConf>  (162) 
nan

>  <Num_Resolved_Atoms>  (162) 
nan

>  <Num_Not_Resolved_Atoms>  (162) 
nan

$$$$
CHEMBL3735817
     RDKit          3D

  0  0  0  0  0  0  0  0  0  0999 V3000
M  V30 BEGIN CTAB
M  V30 COUNTS 57 62 0 0 0
M  V30 BEGIN ATOM
M  V30 1 C 5.102388 -5.467729 1.771430 0
M  V30 2 N 4.057800 -5.495253 0.783109 0
M  V30 3 C 2.909126 -4.779747 1.287373 0
M  V30 4 C 3.259126 -3.310688 1.404206 0
M  V30 5 N 3.476816 -2.715532 0.098908 0
M  V30 6 C 2.724519 -1.679637 -0.516818 0
M  V30 7 C 2.876685 -1.122741 -1.766901 0
M  V30 8 C 2.039323 -0.119623 -2.203947 0
M  V30 9 C 1.025146 0.322014 -1.341254 0
M  V30 10 N 0.062514 1.255423 -1.461972 0
M  V30 11 C -0.678240 1.299117 -0.335557 0
M  V30 12 C -1.836817 2.182662 -0.051796 0
M  V30 13 C -1.882400 3.294767 0.763879 0
M  V30 14 C -3.088911 3.952494 0.885587 0
M  V30 15 C -4.217317 3.539031 0.231951 0
M  V30 16 C -4.165334 2.422553 -0.584800 0
M  V30 17 C -5.364371 1.946896 -1.299240 0
M  V30 18 C -6.599593 2.457090 -1.287304 0
M  V30 19 C -7.567556 1.849346 -2.029418 0
M  V30 20 C -7.225237 0.725650 -2.765336 0
M  V30 21 S -5.400438 0.543648 -2.356501 0
M  V30 22 C -2.974544 1.730384 -0.737282 0
M  V30 23 C -0.134723 0.336579 0.518941 0
M  V30 24 C -0.612628 0.024723 1.863452 0
M  V30 25 C -1.062551 -1.280530 1.968561 0
M  V30 26 C -1.551356 -1.719046 3.202165 0
M  V30 27 N -1.588966 -0.900309 4.272075 0
M  V30 28 C -1.144728 0.383755 4.165003 0
M  V30 29 C -0.652986 0.857721 2.960910 0
M  V30 30 N 0.913843 -0.249749 -0.129009 0
M  V30 31 N 1.726689 -1.226685 0.299878 0
M  V30 32 C 4.608253 -3.406547 -0.423980 0
M  V30 33 C 4.424294 -4.905262 -0.471317 0
M  V30 34 H 4.740885 -5.013815 2.718948 0
M  V30 35 H 5.480115 -6.479835 2.005903 0
M  V30 36 H 5.926535 -4.861034 1.323119 0
M  V30 37 H 2.649794 -5.166971 2.272195 0
M  V30 38 H 2.080767 -4.920031 0.588222 0
M  V30 39 H 4.079529 -3.145660 2.118410 0
M  V30 40 H 2.361850 -2.831599 1.848451 0
M  V30 41 H 3.679929 -1.537687 -2.334612 0
M  V30 42 H 2.174381 0.297581 -3.175080 0
M  V30 43 H -0.932622 3.527276 1.226686 0
M  V30 44 H -3.068373 4.813493 1.532089 0
M  V30 45 H -5.128963 4.065469 0.347122 0
M  V30 46 H -6.815944 3.344651 -0.690049 0
M  V30 47 H -8.616205 2.186496 -2.090579 0
M  V30 48 H -7.891001 0.115815 -3.418974 0
M  V30 49 H -2.994489 0.864526 -1.390604 0
M  V30 50 H -1.080398 -2.019408 1.190417 0
M  V30 51 H -1.934711 -2.695626 3.447845 0
M  V30 52 H -1.152933 1.085904 5.002793 0
M  V30 53 H -0.278692 1.852899 2.777207 0
M  V30 54 H 4.707938 -3.084552 -1.494183 0
M  V30 55 H 5.504531 -3.105004 0.134771 0
M  V30 56 H 5.421613 -5.344028 -0.746898 0
M  V30 57 H 3.690651 -5.207389 -1.217106 0
M  V30 END ATOM
M  V30 BEGIN BOND
M  V30 1 1 1 2
M  V30 2 1 2 3
M  V30 3 1 3 4
M  V30 4 1 4 5
M  V30 5 1 5 6
M  V30 6 1 6 7
M  V30 7 2 7 8
M  V30 8 1 8 9
M  V30 9 2 9 10
M  V30 10 1 10 11
M  V30 11 1 11 12
M  V30 12 2 12 13
M  V30 13 1 13 14
M  V30 14 2 14 15
M  V30 15 1 15 16
M  V30 16 1 16 17
M  V30 17 2 17 18
M  V30 18 1 18 19
M  V30 19 2 19 20
M  V30 20 1 20 21
M  V30 21 2 16 22
M  V30 22 2 11 23
M  V30 23 1 23 24
M  V30 24 2 24 25
M  V30 25 1 25 26
M  V30 26 2 26 27
M  V30 27 1 27 28
M  V30 28 2 28 29
M  V30 29 1 23 30
M  V30 30 1 30 31
M  V30 31 1 5 32
M  V30 32 1 32 33
M  V30 33 1 33 2
M  V30 34 2 31 6
M  V30 35 1 30 9
M  V30 36 1 22 12
M  V30 37 1 29 24
M  V30 38 1 21 17
M  V30 39 1 1 34
M  V30 40 1 1 35
M  V30 41 1 1 36
M  V30 42 1 3 37
M  V30 43 1 3 38
M  V30 44 1 4 39
M  V30 45 1 4 40
M  V30 46 1 7 41
M  V30 47 1 8 42
M  V30 48 1 13 43
M  V30 49 1 14 44
M  V30 50 1 15 45
M  V30 51 1 18 46
M  V30 52 1 19 47
M  V30 53 1 20 48
M  V30 54 1 22 49
M  V30 55 1 25 50
M  V30 56 1 26 51
M  V30 57 1 28 52
M  V30 58 1 29 53
M  V30 59 1 32 54
M  V30 60 1 32 55
M  V30 61 1 33 56
M  V30 62 1 33 57
M  V30 END BOND
M  V30 END CTAB
M  END
>  <Dataset>  (163) 
ChEMBL_Kinases

>  <Ligand_Instance>  (163) 
nan

>  <PDB_ID>  (163) 
nan

>  <Standardized_SMILES>  (163) 
CN1CCN(c2ccc3nc(-c4cccc(-c5cccs5)c4)c(-c4ccncc4)n3n2)CC1

>  <Name>  (163) 
nan

>  <Pocket>  (163) 
nan

>  <ATP_Site>  (163) 
nan

>  <Peripheral>  (163) 
nan

>  <Num_H_Atoms_ProtBoundConf>  (163) 
nan

>  <Num_Resolved_Atoms>  (163) 
nan

>  <Num_Not_Resolved_Atoms>  (163) 
nan

$$$$
CHEMBL3735816
     RDKit          3D

  0  0  0  0  0  0  0  0  0  0999 V3000
M  V30 BEGIN CTAB
M  V30 COUNTS 50 54 0 0 0
M  V30 BEGIN ATOM
M  V30 1 C -1.893371 -2.141608 4.702782 0
M  V30 2 O -1.647460 -1.448653 3.485814 0
M  V30 3 C -0.996141 -2.032119 2.412698 0
M  V30 4 C -0.536938 -3.332447 2.451034 0
M  V30 5 C 0.121477 -4.006049 1.442008 0
M  V30 6 C 0.329247 -3.275115 0.281068 0
M  V30 7 C -0.122756 -1.980217 0.227996 0
M  V30 8 C -0.774839 -1.309399 1.230774 0
M  V30 9 C -1.260473 0.083287 1.200262 0
M  V30 10 N -1.764199 0.543286 -0.044842 0
M  V30 11 C -2.813781 -0.216151 -0.657420 0
M  V30 12 C -3.131800 0.438879 -1.989142 0
M  V30 13 N -2.351931 1.617796 -2.235506 0
M  V30 14 C -2.533579 2.553232 -1.147340 0
M  V30 15 C -2.311982 1.893297 0.192653 0
M  V30 16 O 0.191629 -1.443400 -1.033198 0
M  V30 17 C 0.851851 -2.369821 -1.819580 0
M  V30 18 C 1.294684 -2.199084 -3.060555 0
M  V30 19 C 1.057504 -0.902432 -3.671911 0
M  V30 20 N -0.182943 -0.365512 -3.839295 0
M  V30 21 N -0.127307 0.808106 -4.421480 0
M  V30 22 C 1.203195 1.062410 -4.650118 0
M  V30 23 N 1.831564 2.139472 -5.227489 0
M  V30 24 C 3.190991 2.126766 -5.324414 0
M  V30 25 C 3.969919 1.089742 -4.874743 0
M  V30 26 C 3.333975 0.012497 -4.298666 0
M  V30 27 C 1.961719 -0.010570 -4.181462 0
M  V30 28 C 0.959379 -3.568640 -1.000357 0
M  V30 29 O 1.493445 -4.658280 -1.327151 0
M  V30 30 H -0.976388 -2.119365 5.362564 0
M  V30 31 H -2.229267 -3.191995 4.548494 0
M  V30 32 H -2.695084 -1.637442 5.289978 0
M  V30 33 H -0.730088 -3.866065 3.395278 0
M  V30 34 H 0.452684 -5.011270 1.522030 0
M  V30 35 H -0.481833 0.792439 1.614550 0
M  V30 36 H -2.118159 0.216176 1.939538 0
M  V30 37 H -2.586995 -1.279835 -0.756026 0
M  V30 38 H -3.727758 -0.071855 -0.040626 0
M  V30 39 H -2.936327 -0.284643 -2.799582 0
M  V30 40 H -4.217462 0.686312 -2.085286 0
M  V30 41 H -2.657593 2.044840 -3.123230 0
M  V30 42 H -3.544282 3.045848 -1.204751 0
M  V30 43 H -1.753606 3.346901 -1.253476 0
M  V30 44 H -1.653326 2.491120 0.856187 0
M  V30 45 H -3.319364 1.768590 0.646071 0
M  V30 46 H 1.811704 -3.015208 -3.575341 0
M  V30 47 H -0.922465 1.457111 -4.673217 0
M  V30 48 H 3.677854 2.979347 -5.783576 0
M  V30 49 H 5.073558 1.039132 -4.931166 0
M  V30 50 H 3.877808 -0.845669 -3.919347 0
M  V30 END ATOM
M  V30 BEGIN BOND
M  V30 1 1 1 2
M  V30 2 1 2 3
M  V30 3 2 3 4
M  V30 4 1 4 5
M  V30 5 2 5 6
M  V30 6 1 6 7
M  V30 7 2 7 8
M  V30 8 1 8 9
M  V30 9 1 9 10
M  V30 10 1 10 11
M  V30 11 1 11 12
M  V30 12 1 12 13
M  V30 13 1 13 14
M  V30 14 1 14 15
M  V30 15 1 7 16
M  V30 16 1 16 17
M  V30 17 2 17 18
M  V30 18 1 18 19
M  V30 19 2 19 20
M  V30 20 1 20 21
M  V30 21 1 21 22
M  V30 22 2 22 23
M  V30 23 1 23 24
M  V30 24 2 24 25
M  V30 25 1 25 26
M  V30 26 2 26 27
M  V30 27 1 17 28
M  V30 28 2 28 29
M  V30 29 1 8 3
M  V30 30 1 15 10
M  V30 31 1 27 19
M  V30 32 1 28 6
M  V30 33 1 27 22
M  V30 34 1 1 30
M  V30 35 1 1 31
M  V30 36 1 1 32
M  V30 37 1 4 33
M  V30 38 1 5 34
M  V30 39 1 9 35
M  V30 40 1 9 36
M  V30 41 1 11 37
M  V30 42 1 11 38
M  V30 43 1 12 39
M  V30 44 1 12 40
M  V30 45 1 13 41
M  V30 46 1 14 42
M  V30 47 1 14 43
M  V30 48 1 15 44
M  V30 49 1 15 45
M  V30 50 1 18 46
M  V30 51 1 21 47
M  V30 52 1 24 48
M  V30 53 1 25 49
M  V30 54 1 26 50
M  V30 END BOND
M  V30 END CTAB
M  END
>  <Dataset>  (164) 
ChEMBL_Kinases

>  <Ligand_Instance>  (164) 
nan

>  <PDB_ID>  (164) 
nan

>  <Standardized_SMILES>  (164) 
COc1ccc2c(c1CN1CCNCC1)O/C(=C\c1n[nH]c3ncccc13)C2=O

>  <Name>  (164) 
nan

>  <Pocket>  (164) 
nan

>  <ATP_Site>  (164) 
nan

>  <Peripheral>  (164) 
nan

>  <Num_H_Atoms_ProtBoundConf>  (164) 
nan

>  <Num_Resolved_Atoms>  (164) 
nan

>  <Num_Not_Resolved_Atoms>  (164) 
nan

$$$$
CHEMBL3735796
     RDKit          3D

  0  0  0  0  0  0  0  0  0  0999 V3000
M  V30 BEGIN CTAB
M  V30 COUNTS 63 67 0 0 0
M  V30 BEGIN ATOM
M  V30 1 O 1.726099 -3.467026 3.925220 0
M  V30 2 C 0.601838 -2.919857 3.644945 0
M  V30 3 N 0.781805 -2.279424 2.426230 0
M  V30 4 C 2.068911 -2.335605 1.759758 0
M  V30 5 C 1.905100 -1.545931 0.484597 0
M  V30 6 C 1.524283 -0.111252 0.699379 0
M  V30 7 C 1.141350 0.438505 -0.615350 0
M  V30 8 N 1.947568 0.153129 -1.748647 0
M  V30 9 C 1.042565 -0.117442 -2.847939 0
M  V30 10 C 1.677463 -0.319038 -4.177318 0
M  V30 11 C 2.420617 0.844641 -4.680120 0
M  V30 12 C 1.646062 1.775679 -5.386123 0
M  V30 13 C 2.119872 2.935234 -5.955682 0
M  V30 14 C 3.448866 3.244301 -5.848638 0
M  V30 15 C 4.247316 2.359816 -5.164708 0
M  V30 16 C 3.744782 1.208628 -4.606320 0
M  V30 17 C 2.837285 -0.949855 -1.656037 0
M  V30 18 C 3.184783 -1.475044 -0.312843 0
M  V30 19 C -0.482426 -3.086891 4.579791 0
M  V30 20 N -0.226198 -3.828264 5.689501 0
M  V30 21 N -1.314601 -3.884095 6.437937 0
M  V30 22 C -2.343933 -3.211740 5.909777 0
M  V30 23 C -3.659668 -2.910287 6.187455 0
M  V30 24 C -4.384629 -2.128074 5.290892 0
M  V30 25 C -3.833991 -1.641497 4.130861 0
M  V30 26 C -4.594055 -0.820978 3.191091 0
M  V30 27 C -5.888101 -1.206577 2.867871 0
M  V30 28 C -6.674294 -0.471059 1.978128 0
M  V30 29 C -6.116164 0.675366 1.416657 0
M  V30 30 C -4.832386 1.053981 1.740081 0
M  V30 31 F -4.297926 2.181221 1.181049 0
M  V30 32 C -4.080231 0.317101 2.615199 0
M  V30 33 F -2.816254 0.713570 2.916610 0
M  V30 34 C -2.519279 -1.953261 3.871471 0
M  V30 35 C -1.793953 -2.717669 4.737727 0
M  V30 36 H -0.064956 -1.794431 2.084122 0
M  V30 37 H 2.228698 -3.406597 1.518484 0
M  V30 38 H 2.909974 -2.009244 2.366940 0
M  V30 39 H 1.147471 -1.993945 -0.189815 0
M  V30 40 H 0.663833 -0.031604 1.383742 0
M  V30 41 H 2.345141 0.465548 1.207769 0
M  V30 42 H 0.074493 0.195152 -0.790907 0
M  V30 43 H 1.143433 1.566304 -0.506634 0
M  V30 44 H 0.218328 0.637030 -2.895651 0
M  V30 45 H 0.511888 -1.069873 -2.551730 0
M  V30 46 H 2.329411 -1.232151 -4.194711 0
M  V30 47 H 0.868233 -0.562582 -4.915861 0
M  V30 48 H 0.577443 1.632995 -5.533679 0
M  V30 49 H 1.495522 3.626066 -6.489459 0
M  V30 50 H 3.928245 4.107405 -6.245229 0
M  V30 51 H 5.319734 2.504743 -5.017842 0
M  V30 52 H 4.360660 0.504956 -4.074841 0
M  V30 53 H 3.793701 -0.676313 -2.148703 0
M  V30 54 H 2.458707 -1.832265 -2.253894 0
M  V30 55 H 3.585000 -2.501547 -0.406767 0
M  V30 56 H 3.877730 -0.822185 0.274732 0
M  V30 57 H -1.378184 -4.393343 7.345093 0
M  V30 58 H -4.057878 -3.310100 7.108574 0
M  V30 59 H -5.423738 -1.911932 5.547867 0
M  V30 60 H -6.329150 -2.097653 3.301109 0
M  V30 61 H -7.679815 -0.779702 1.733438 0
M  V30 62 H -6.660491 1.295984 0.721015 0
M  V30 63 H -2.107378 -1.563589 2.960631 0
M  V30 END ATOM
M  V30 BEGIN BOND
M  V30 1 2 1 2
M  V30 2 1 2 3
M  V30 3 1 3 4
M  V30 4 1 4 5
M  V30 5 1 5 6
M  V30 6 1 6 7
M  V30 7 1 7 8
M  V30 8 1 8 9
M  V30 9 1 9 10
M  V30 10 1 10 11
M  V30 11 2 11 12
M  V30 12 1 12 13
M  V30 13 2 13 14
M  V30 14 1 14 15
M  V30 15 2 15 16
M  V30 16 1 8 17
M  V30 17 1 17 18
M  V30 18 1 2 19
M  V30 19 2 19 20
M  V30 20 1 20 21
M  V30 21 1 21 22
M  V30 22 2 22 23
M  V30 23 1 23 24
M  V30 24 2 24 25
M  V30 25 1 25 26
M  V30 26 2 26 27
M  V30 27 1 27 28
M  V30 28 2 28 29
M  V30 29 1 29 30
M  V30 30 1 30 31
M  V30 31 2 30 32
M  V30 32 1 32 33
M  V30 33 1 25 34
M  V30 34 2 34 35
M  V30 35 1 18 5
M  V30 36 1 35 19
M  V30 37 1 16 11
M  V30 38 1 35 22
M  V30 39 1 32 26
M  V30 40 1 3 36
M  V30 41 1 4 37
M  V30 42 1 4 38
M  V30 43 1 5 39
M  V30 44 1 6 40
M  V30 45 1 6 41
M  V30 46 1 7 42
M  V30 47 1 7 43
M  V30 48 1 9 44
M  V30 49 1 9 45
M  V30 50 1 10 46
M  V30 51 1 10 47
M  V30 52 1 12 48
M  V30 53 1 13 49
M  V30 54 1 14 50
M  V30 55 1 15 51
M  V30 56 1 16 52
M  V30 57 1 17 53
M  V30 58 1 17 54
M  V30 59 1 18 55
M  V30 60 1 18 56
M  V30 61 1 21 57
M  V30 62 1 23 58
M  V30 63 1 24 59
M  V30 64 1 27 60
M  V30 65 1 28 61
M  V30 66 1 29 62
M  V30 67 1 34 63
M  V30 END BOND
M  V30 END CTAB
M  END
>  <Dataset>  (165) 
ChEMBL_Kinases

>  <Ligand_Instance>  (165) 
nan

>  <PDB_ID>  (165) 
nan

>  <Standardized_SMILES>  (165) 
O=C(NCC1CCN(CCc2ccccc2)CC1)c1n[nH]c2ccc(-c3cccc(F)c3F)cc12

>  <Name>  (165) 
nan

>  <Pocket>  (165) 
nan

>  <ATP_Site>  (165) 
nan

>  <Peripheral>  (165) 
nan

>  <Num_H_Atoms_ProtBoundConf>  (165) 
nan

>  <Num_Resolved_Atoms>  (165) 
nan

>  <Num_Not_Resolved_Atoms>  (165) 
nan

$$$$
CHEMBL3735779
     RDKit          3D

  0  0  0  0  0  0  0  0  0  0999 V3000
M  V30 BEGIN CTAB
M  V30 COUNTS 53 56 0 0 0
M  V30 BEGIN ATOM
M  V30 1 C 2.313761 -1.367908 5.817590 0
M  V30 2 O 2.939678 -2.445922 5.192246 0
M  V30 3 C 3.170012 -2.609962 3.852297 0
M  V30 4 C 3.821230 -3.795320 3.503731 0
M  V30 5 C 4.114356 -4.085385 2.185653 0
M  V30 6 C 3.745064 -3.169738 1.222483 0
M  V30 7 N 3.842461 -3.077651 -0.110541 0
M  V30 8 N 3.315433 -1.959371 -0.584267 0
M  V30 9 C 2.825208 -1.231699 0.460807 0
M  V30 10 C 2.207783 0.028016 0.151452 0
M  V30 11 O 2.193779 0.326043 -1.085202 0
M  V30 12 N 1.584626 1.084425 0.820290 0
M  V30 13 C 0.949244 2.330528 0.685628 0
M  V30 14 C -0.318065 2.416465 -0.103447 0
M  V30 15 C -1.410098 1.531833 0.420370 0
M  V30 16 C -2.432496 1.374598 -0.686507 0
M  V30 17 N -1.783691 0.668367 -1.732124 0
M  V30 18 C -1.634269 -0.726114 -1.602908 0
M  V30 19 C -2.938552 -1.427263 -1.482268 0
M  V30 20 N -3.658751 -1.754180 -0.633595 0
M  V30 21 C -4.823565 -2.401205 -0.790704 0
M  V30 22 C -5.630638 -2.750504 0.377325 0
M  V30 23 O -5.373253 -2.517045 1.585135 0
M  V30 24 O -6.831698 -3.409404 0.315342 0
M  V30 25 C -5.222522 -2.716781 -2.060643 0
M  V30 26 S -3.764610 -1.998226 -3.044439 0
M  V30 27 C -0.769226 1.400490 -2.389761 0
M  V30 28 C -0.144198 2.493864 -1.566993 0
M  V30 29 C 3.104550 -2.002981 1.560942 0
M  V30 30 C 2.819962 -1.726013 2.862764 0
M  V30 31 H 1.579853 -1.780495 6.569651 0
M  V30 32 H 1.688952 -0.817579 5.090673 0
M  V30 33 H 3.021730 -0.673976 6.334977 0
M  V30 34 H 4.118789 -4.529562 4.263692 0
M  V30 35 H 4.612216 -4.983029 1.878551 0
M  V30 36 H 4.279322 -3.789391 -0.741344 0
M  V30 37 H 1.606355 0.815472 1.855645 0
M  V30 38 H 0.802749 2.799939 1.704412 0
M  V30 39 H 1.667390 3.094612 0.210122 0
M  V30 40 H -0.715814 3.479554 0.186436 0
M  V30 41 H -1.073915 0.517507 0.697886 0
M  V30 42 H -1.893864 1.948773 1.342455 0
M  V30 43 H -2.789506 2.377115 -0.994699 0
M  V30 44 H -3.327017 0.836818 -0.293953 0
M  V30 45 H -1.083480 -1.109065 -2.495600 0
M  V30 46 H -1.029192 -0.956335 -0.701797 0
M  V30 47 H -7.622005 -3.293696 0.943524 0
M  V30 48 H -6.115503 -3.226432 -2.357242 0
M  V30 49 H 0.046160 0.678256 -2.658515 0
M  V30 50 H -1.167010 1.866629 -3.329964 0
M  V30 51 H -0.511176 3.504976 -1.946704 0
M  V30 52 H 0.956600 2.569550 -1.782951 0
M  V30 53 H 2.322920 -0.825577 3.151691 0
M  V30 END ATOM
M  V30 BEGIN BOND
M  V30 1 1 1 2
M  V30 2 1 2 3
M  V30 3 2 3 4
M  V30 4 1 4 5
M  V30 5 2 5 6
M  V30 6 1 6 7
M  V30 7 1 7 8
M  V30 8 2 8 9
M  V30 9 1 9 10
M  V30 10 2 10 11
M  V30 11 1 10 12
M  V30 12 1 12 13
M  V30 13 1 13 14
M  V30 14 1 14 15
M  V30 15 1 15 16
M  V30 16 1 16 17
M  V30 17 1 17 18
M  V30 18 1 18 19
M  V30 19 2 19 20
M  V30 20 1 20 21
M  V30 21 1 21 22
M  V30 22 2 22 23
M  V30 23 1 22 24
M  V30 24 2 21 25
M  V30 25 1 25 26
M  V30 26 1 17 27
M  V30 27 1 27 28
M  V30 28 1 9 29
M  V30 29 2 29 30
M  V30 30 1 30 3
M  V30 31 1 29 6
M  V30 32 1 28 14
M  V30 33 1 26 19
M  V30 34 1 1 31
M  V30 35 1 1 32
M  V30 36 1 1 33
M  V30 37 1 4 34
M  V30 38 1 5 35
M  V30 39 1 7 36
M  V30 40 1 12 37
M  V30 41 1 13 38
M  V30 42 1 13 39
M  V30 43 1 14 40
M  V30 44 1 15 41
M  V30 45 1 15 42
M  V30 46 1 16 43
M  V30 47 1 16 44
M  V30 48 1 18 45
M  V30 49 1 18 46
M  V30 50 1 24 47
M  V30 51 1 25 48
M  V30 52 1 27 49
M  V30 53 1 27 50
M  V30 54 1 28 51
M  V30 55 1 28 52
M  V30 56 1 30 53
M  V30 END BOND
M  V30 END CTAB
M  END
>  <Dataset>  (166) 
ChEMBL_Kinases

>  <Ligand_Instance>  (166) 
nan

>  <PDB_ID>  (166) 
nan

>  <Standardized_SMILES>  (166) 
COc1ccc2[nH]nc(C(=O)NCC3CCN(Cc4nc(C(=O)O)cs4)CC3)c2c1

>  <Name>  (166) 
nan

>  <Pocket>  (166) 
nan

>  <ATP_Site>  (166) 
nan

>  <Peripheral>  (166) 
nan

>  <Num_H_Atoms_ProtBoundConf>  (166) 
nan

>  <Num_Resolved_Atoms>  (166) 
nan

>  <Num_Not_Resolved_Atoms>  (166) 
nan

$$$$
CHEMBL3735772
     RDKit          3D

  0  0  0  0  0  0  0  0  0  0999 V3000
M  V30 BEGIN CTAB
M  V30 COUNTS 59 61 0 0 0
M  V30 BEGIN ATOM
M  V30 1 C -8.749911 -3.488669 0.722184 0
M  V30 2 C -7.340939 -3.547895 1.167687 0
M  V30 3 C -6.186848 -3.579085 1.538091 0
M  V30 4 C -4.811631 -3.602170 1.957818 0
M  V30 5 O -4.465600 -4.155814 3.038119 0
M  V30 6 N -3.842432 -2.975077 1.109040 0
M  V30 7 C -2.449171 -2.980758 1.503057 0
M  V30 8 C -1.578887 -2.276045 0.488707 0
M  V30 9 C -1.650439 -2.923712 -0.878379 0
M  V30 10 N -0.786416 -2.170817 -1.756965 0
M  V30 11 C -0.756251 -2.676707 -3.096620 0
M  V30 12 C 0.530438 -2.139952 -3.733260 0
M  V30 13 C 0.753487 -0.680044 -3.316503 0
M  V30 14 C 1.718305 -0.630672 -2.174496 0
M  V30 15 N 1.989187 0.701288 -1.711839 0
M  V30 16 C 2.546992 1.747861 -2.460419 0
M  V30 17 O 2.768849 1.291537 -3.627726 0
M  V30 18 C 2.884948 3.117023 -2.181287 0
M  V30 19 N 3.422062 3.812075 -3.222633 0
M  V30 20 N 3.679867 5.062430 -2.802334 0
M  V30 21 C 3.339649 5.247256 -1.515453 0
M  V30 22 C 3.386152 6.284341 -0.624947 0
M  V30 23 C 2.914301 6.033940 0.651779 0
M  V30 24 C 2.412992 4.794733 1.031210 0
M  V30 25 O 1.983261 4.700877 2.328652 0
M  V30 26 C 1.442428 3.523294 2.898029 0
M  V30 27 C 2.388688 3.787609 0.098848 0
M  V30 28 C 2.852709 4.031384 -1.159222 0
M  V30 29 C -0.589496 -0.099175 -2.985781 0
M  V30 30 C -1.041215 -0.747366 -1.691182 0
M  V30 31 H -9.080211 -2.424365 0.577565 0
M  V30 32 H -9.348791 -3.929653 1.518523 0
M  V30 33 H -8.890306 -3.977262 -0.260844 0
M  V30 34 H -4.162330 -2.522105 0.214753 0
M  V30 35 H -2.322478 -2.431930 2.455852 0
M  V30 36 H -2.057793 -4.005242 1.648663 0
M  V30 37 H -0.516862 -2.427574 0.830019 0
M  V30 38 H -1.742128 -1.199227 0.427618 0
M  V30 39 H -1.317332 -3.965754 -0.847630 0
M  V30 40 H -2.708923 -2.857004 -1.258699 0
M  V30 41 H -1.641436 -2.398462 -3.705015 0
M  V30 42 H -0.682295 -3.783974 -3.032247 0
M  V30 43 H 1.392750 -2.771160 -3.497687 0
M  V30 44 H 0.351909 -2.220266 -4.824264 0
M  V30 45 H 1.097319 -0.186751 -4.240378 0
M  V30 46 H 1.376990 -1.262129 -1.356438 0
M  V30 47 H 2.685790 -1.060881 -2.522919 0
M  V30 48 H 1.762900 0.952504 -0.731166 0
M  V30 49 H 4.101197 5.785120 -3.441523 0
M  V30 50 H 3.781671 7.235402 -0.950961 0
M  V30 51 H 2.958615 6.867381 1.345132 0
M  V30 52 H 0.595561 3.161810 2.261070 0
M  V30 53 H 2.177746 2.700884 2.976373 0
M  V30 54 H 1.076840 3.768215 3.913204 0
M  V30 55 H 2.004035 2.854660 0.408223 0
M  V30 56 H -0.595052 0.995743 -2.932186 0
M  V30 57 H -1.303626 -0.388102 -3.774838 0
M  V30 58 H -0.391117 -0.344566 -0.890306 0
M  V30 59 H -2.081793 -0.492895 -1.456302 0
M  V30 END ATOM
M  V30 BEGIN BOND
M  V30 1 1 1 2
M  V30 2 3 2 3
M  V30 3 1 3 4
M  V30 4 2 4 5
M  V30 5 1 4 6
M  V30 6 1 6 7
M  V30 7 1 7 8
M  V30 8 1 8 9
M  V30 9 1 9 10
M  V30 10 1 10 11
M  V30 11 1 11 12
M  V30 12 1 12 13
M  V30 13 1 13 14
M  V30 14 1 14 15
M  V30 15 1 15 16
M  V30 16 2 16 17
M  V30 17 1 16 18
M  V30 18 2 18 19
M  V30 19 1 19 20
M  V30 20 1 20 21
M  V30 21 2 21 22
M  V30 22 1 22 23
M  V30 23 2 23 24
M  V30 24 1 24 25
M  V30 25 1 25 26
M  V30 26 1 24 27
M  V30 27 2 27 28
M  V30 28 1 13 29
M  V30 29 1 29 30
M  V30 30 1 30 10
M  V30 31 1 28 18
M  V30 32 1 28 21
M  V30 33 1 1 31
M  V30 34 1 1 32
M  V30 35 1 1 33
M  V30 36 1 6 34
M  V30 37 1 7 35
M  V30 38 1 7 36
M  V30 39 1 8 37
M  V30 40 1 8 38
M  V30 41 1 9 39
M  V30 42 1 9 40
M  V30 43 1 11 41
M  V30 44 1 11 42
M  V30 45 1 12 43
M  V30 46 1 12 44
M  V30 47 1 13 45
M  V30 48 1 14 46
M  V30 49 1 14 47
M  V30 50 1 15 48
M  V30 51 1 20 49
M  V30 52 1 22 50
M  V30 53 1 23 51
M  V30 54 1 26 52
M  V30 55 1 26 53
M  V30 56 1 26 54
M  V30 57 1 27 55
M  V30 58 1 29 56
M  V30 59 1 29 57
M  V30 60 1 30 58
M  V30 61 1 30 59
M  V30 END BOND
M  V30 END CTAB
M  END
>  <Dataset>  (167) 
ChEMBL_Kinases

>  <Ligand_Instance>  (167) 
nan

>  <PDB_ID>  (167) 
nan

>  <Standardized_SMILES>  (167) 
CC#CC(=O)NCCCN1CCC(CNC(=O)c2n[nH]c3ccc(OC)cc23)CC1

>  <Name>  (167) 
nan

>  <Pocket>  (167) 
nan

>  <ATP_Site>  (167) 
nan

>  <Peripheral>  (167) 
nan

>  <Num_H_Atoms_ProtBoundConf>  (167) 
nan

>  <Num_Resolved_Atoms>  (167) 
nan

>  <Num_Not_Resolved_Atoms>  (167) 
nan

$$$$
CHEMBL3735755
     RDKit          3D

  0  0  0  0  0  0  0  0  0  0999 V3000
M  V30 BEGIN CTAB
M  V30 COUNTS 57 60 0 0 0
M  V30 BEGIN ATOM
M  V30 1 C 2.658283 -5.542936 1.542990 0
M  V30 2 C 3.331848 -4.332018 2.109346 0
M  V30 3 C 4.173230 -4.437175 3.221158 0
M  V30 4 C 4.805329 -3.332743 3.758407 0
M  V30 5 C 4.618464 -2.083891 3.202782 0
M  V30 6 N 5.081889 -0.853069 3.488701 0
M  V30 7 N 4.567029 -0.007173 2.610579 0
M  V30 8 C 3.765792 -0.651752 1.740626 0
M  V30 9 C 3.014944 -0.090427 0.627643 0
M  V30 10 O 2.315722 -0.853238 -0.057954 0
M  V30 11 N 3.018584 1.273876 0.259609 0
M  V30 12 C 2.467555 2.184381 -0.679522 0
M  V30 13 C 1.007017 2.407460 -0.700400 0
M  V30 14 C 0.419584 2.919703 0.602294 0
M  V30 15 C -1.103939 2.896024 0.421902 0
M  V30 16 N -1.616076 1.540442 0.347982 0
M  V30 17 C -2.775828 1.442368 -0.490312 0
M  V30 18 C -3.317228 0.054213 -0.539644 0
M  V30 19 O -3.150944 -1.132457 -0.111000 0
M  V30 20 N -4.482368 -0.046999 -1.386089 0
M  V30 21 C -5.033097 -1.379309 -1.457104 0
M  V30 22 C -4.736402 -2.394532 -2.340052 0
M  V30 23 C -5.405980 -3.591422 -2.198182 0
M  V30 24 C -6.347365 -3.796823 -1.214735 0
M  V30 25 C -6.647427 -2.780298 -0.327279 0
M  V30 26 C -5.978764 -1.560946 -0.456193 0
M  V30 27 C -0.565286 0.613558 -0.050527 0
M  V30 28 C 0.186982 1.265251 -1.197023 0
M  V30 29 C 3.789232 -1.974089 2.105622 0
M  V30 30 C 3.156379 -3.066964 1.564471 0
M  V30 31 H 1.715634 -5.219273 1.052131 0
M  V30 32 H 3.331695 -5.996208 0.788391 0
M  V30 33 H 2.480118 -6.264570 2.351048 0
M  V30 34 H 4.316004 -5.419095 3.652108 0
M  V30 35 H 5.438426 -3.475456 4.611184 0
M  V30 36 H 5.737817 -0.685073 4.292098 0
M  V30 37 H 3.677759 1.756412 0.962681 0
M  V30 38 H 2.724461 1.803735 -1.739729 0
M  V30 39 H 3.047917 3.136205 -0.620140 0
M  V30 40 H 0.846007 3.299734 -1.418404 0
M  V30 41 H 0.704491 2.331790 1.473130 0
M  V30 42 H 0.690705 3.983556 0.748488 0
M  V30 43 H -1.557402 3.434398 1.279128 0
M  V30 44 H -1.341622 3.429131 -0.512718 0
M  V30 45 H -2.574577 1.766008 -1.524731 0
M  V30 46 H -3.553668 2.118184 -0.093054 0
M  V30 47 H -5.002139 0.661710 -1.957499 0
M  V30 48 H -3.990173 -2.118436 -3.059738 0
M  V30 49 H -5.134064 -4.355657 -2.918622 0
M  V30 50 H -6.827286 -4.777227 -1.177805 0
M  V30 51 H -7.386492 -2.995991 0.416145 0
M  V30 52 H -6.289168 -0.847064 0.282763 0
M  V30 53 H 0.120647 0.468458 0.801876 0
M  V30 54 H -1.008192 -0.310630 -0.454436 0
M  V30 55 H -0.586498 1.635475 -1.937567 0
M  V30 56 H 0.768252 0.489493 -1.713004 0
M  V30 57 H 2.496200 -3.052378 0.709269 0
M  V30 END ATOM
M  V30 BEGIN BOND
M  V30 1 1 1 2
M  V30 2 2 2 3
M  V30 3 1 3 4
M  V30 4 2 4 5
M  V30 5 1 5 6
M  V30 6 1 6 7
M  V30 7 2 7 8
M  V30 8 1 8 9
M  V30 9 2 9 10
M  V30 10 1 9 11
M  V30 11 1 11 12
M  V30 12 1 12 13
M  V30 13 1 13 14
M  V30 14 1 14 15
M  V30 15 1 15 16
M  V30 16 1 16 17
M  V30 17 1 17 18
M  V30 18 2 18 19
M  V30 19 1 18 20
M  V30 20 1 20 21
M  V30 21 2 21 22
M  V30 22 1 22 23
M  V30 23 2 23 24
M  V30 24 1 24 25
M  V30 25 2 25 26
M  V30 26 1 16 27
M  V30 27 1 27 28
M  V30 28 1 8 29
M  V30 29 2 29 30
M  V30 30 1 30 2
M  V30 31 1 29 5
M  V30 32 1 28 13
M  V30 33 1 26 21
M  V30 34 1 1 31
M  V30 35 1 1 32
M  V30 36 1 1 33
M  V30 37 1 3 34
M  V30 38 1 4 35
M  V30 39 1 6 36
M  V30 40 1 11 37
M  V30 41 1 12 38
M  V30 42 1 12 39
M  V30 43 1 13 40
M  V30 44 1 14 41
M  V30 45 1 14 42
M  V30 46 1 15 43
M  V30 47 1 15 44
M  V30 48 1 17 45
M  V30 49 1 17 46
M  V30 50 1 20 47
M  V30 51 1 22 48
M  V30 52 1 23 49
M  V30 53 1 24 50
M  V30 54 1 25 51
M  V30 55 1 26 52
M  V30 56 1 27 53
M  V30 57 1 27 54
M  V30 58 1 28 55
M  V30 59 1 28 56
M  V30 60 1 30 57
M  V30 END BOND
M  V30 END CTAB
M  END
>  <Dataset>  (168) 
ChEMBL_Kinases

>  <Ligand_Instance>  (168) 
nan

>  <PDB_ID>  (168) 
nan

>  <Standardized_SMILES>  (168) 
Cc1ccc2[nH]nc(C(=O)NCC3CCN(CC(=O)Nc4ccccc4)CC3)c2c1

>  <Name>  (168) 
nan

>  <Pocket>  (168) 
nan

>  <ATP_Site>  (168) 
nan

>  <Peripheral>  (168) 
nan

>  <Num_H_Atoms_ProtBoundConf>  (168) 
nan

>  <Num_Resolved_Atoms>  (168) 
nan

>  <Num_Not_Resolved_Atoms>  (168) 
nan

$$$$
CHEMBL3735730
     RDKit          3D

  0  0  0  0  0  0  0  0  0  0999 V3000
M  V30 BEGIN CTAB
M  V30 COUNTS 50 53 0 0 0
M  V30 BEGIN ATOM
M  V30 1 O 0.969892 -7.348997 0.788170 0
M  V30 2 C 1.495222 -6.356933 1.363245 0
M  V30 3 O 1.471907 -6.344445 2.751162 0
M  V30 4 C 2.088883 -5.294035 0.556611 0
M  V30 5 C 2.098793 -5.331226 -0.821979 0
M  V30 6 C 2.751205 -4.141077 -1.153059 0
M  V30 7 C 3.100736 -3.449197 0.012408 0
M  V30 8 C 3.808663 -2.145422 -0.030913 0
M  V30 9 N 2.952129 -1.003272 -0.083539 0
M  V30 10 C 3.644020 0.211630 -0.129567 0
M  V30 11 C 3.471008 1.204715 0.952799 0
M  V30 12 C 1.946178 1.338748 1.210349 0
M  V30 13 C 1.247792 1.647630 -0.061672 0
M  V30 14 N -0.155630 1.820792 0.083290 0
M  V30 15 C -1.420251 1.329683 0.401765 0
M  V30 16 O -1.406151 0.126418 0.732894 0
M  V30 17 C -2.675022 2.064294 0.379543 0
M  V30 18 N -2.910728 3.365177 0.049675 0
M  V30 19 N -4.200789 3.636777 0.162922 0
M  V30 20 C -4.811047 2.523741 0.564313 0
M  V30 21 C -6.137000 2.258993 0.833265 0
M  V30 22 C -6.530469 0.999709 1.244011 0
M  V30 23 C -5.556842 0.018138 1.376099 0
M  V30 24 Br -6.144746 -1.713485 1.947841 0
M  V30 25 C -4.235934 0.271225 1.111156 0
M  V30 26 C -3.890542 1.522935 0.709614 0
M  V30 27 C 1.603047 -0.019555 1.720116 0
M  V30 28 C 1.775109 -1.097780 0.703724 0
M  V30 29 O 2.669136 -4.205751 0.995152 0
M  V30 30 H 0.691033 -6.725367 3.274200 0
M  V30 31 H 1.711604 -6.072792 -1.492774 0
M  V30 32 H 2.945918 -3.822948 -2.172771 0
M  V30 33 H 4.474831 -2.130049 0.855743 0
M  V30 34 H 4.461693 -2.111511 -0.930716 0
M  V30 35 H 3.470020 0.741043 -1.112237 0
M  V30 36 H 4.749323 -0.021852 -0.176826 0
M  V30 37 H 3.917461 2.154426 0.660763 0
M  V30 38 H 3.899572 0.821270 1.887052 0
M  V30 39 H 1.809241 2.093674 1.988485 0
M  V30 40 H 1.733625 2.542755 -0.510177 0
M  V30 41 H 1.459050 0.788557 -0.780199 0
M  V30 42 H -0.359631 2.849650 -0.182798 0
M  V30 43 H -4.698627 4.545132 -0.018514 0
M  V30 44 H -6.934265 2.989822 0.745575 0
M  V30 45 H -7.571748 0.766725 1.462365 0
M  V30 46 H -3.578275 -0.558546 1.247077 0
M  V30 47 H 2.368122 -0.200937 2.562854 0
M  V30 48 H 0.658318 -0.018762 2.249243 0
M  V30 49 H 0.909530 -1.088422 0.017497 0
M  V30 50 H 1.766164 -2.072736 1.226028 0
M  V30 END ATOM
M  V30 BEGIN BOND
M  V30 1 2 1 2
M  V30 2 1 2 3
M  V30 3 1 2 4
M  V30 4 2 4 5
M  V30 5 1 5 6
M  V30 6 2 6 7
M  V30 7 1 7 8
M  V30 8 1 8 9
M  V30 9 1 9 10
M  V30 10 1 10 11
M  V30 11 1 11 12
M  V30 12 1 12 13
M  V30 13 1 13 14
M  V30 14 1 14 15
M  V30 15 2 15 16
M  V30 16 1 15 17
M  V30 17 2 17 18
M  V30 18 1 18 19
M  V30 19 1 19 20
M  V30 20 2 20 21
M  V30 21 1 21 22
M  V30 22 2 22 23
M  V30 23 1 23 24
M  V30 24 1 23 25
M  V30 25 2 25 26
M  V30 26 1 12 27
M  V30 27 1 27 28
M  V30 28 1 7 29
M  V30 29 1 29 4
M  V30 30 1 28 9
M  V30 31 1 26 17
M  V30 32 1 26 20
M  V30 33 1 3 30
M  V30 34 1 5 31
M  V30 35 1 6 32
M  V30 36 1 8 33
M  V30 37 1 8 34
M  V30 38 1 10 35
M  V30 39 1 10 36
M  V30 40 1 11 37
M  V30 41 1 11 38
M  V30 42 1 12 39
M  V30 43 1 13 40
M  V30 44 1 13 41
M  V30 45 1 14 42
M  V30 46 1 19 43
M  V30 47 1 21 44
M  V30 48 1 22 45
M  V30 49 1 25 46
M  V30 50 1 27 47
M  V30 51 1 27 48
M  V30 52 1 28 49
M  V30 53 1 28 50
M  V30 END BOND
M  V30 END CTAB
M  END
>  <Dataset>  (169) 
ChEMBL_Kinases

>  <Ligand_Instance>  (169) 
nan

>  <PDB_ID>  (169) 
nan

>  <Standardized_SMILES>  (169) 
O=C(O)c1ccc(CN2CCC(CNC(=O)c3n[nH]c4ccc(Br)cc34)CC2)o1

>  <Name>  (169) 
nan

>  <Pocket>  (169) 
nan

>  <ATP_Site>  (169) 
nan

>  <Peripheral>  (169) 
nan

>  <Num_H_Atoms_ProtBoundConf>  (169) 
nan

>  <Num_Resolved_Atoms>  (169) 
nan

>  <Num_Not_Resolved_Atoms>  (169) 
nan

$$$$
CHEMBL3735719
     RDKit          3D

  0  0  0  0  0  0  0  0  0  0999 V3000
M  V30 BEGIN CTAB
M  V30 COUNTS 59 63 0 0 0
M  V30 BEGIN ATOM
M  V30 1 O 1.137014 -3.594806 -0.703841 0
M  V30 2 C 0.413133 -4.244948 0.094773 0
M  V30 3 N -0.348106 -3.400882 0.963926 0
M  V30 4 C -0.051611 -2.020318 0.658205 0
M  V30 5 N 0.929537 -1.299285 1.229931 0
M  V30 6 C 0.947252 -0.047208 0.730320 0
M  V30 7 C 1.691647 1.113816 0.911390 0
M  V30 8 C 1.428449 2.264022 0.205040 0
M  V30 9 C 2.328332 3.390569 0.537889 0
M  V30 10 N 1.846761 4.223179 1.613616 0
M  V30 11 C 0.556960 4.802609 1.262251 0
M  V30 12 C 0.221197 5.887120 2.272210 0
M  V30 13 C 0.142013 5.296438 3.663092 0
M  V30 14 C 1.306102 4.377077 3.966103 0
M  V30 15 C 1.653053 3.464083 2.820323 0
M  V30 16 C 0.399989 2.299180 -0.719771 0
M  V30 17 C -0.364089 1.147978 -0.922305 0
M  V30 18 C -0.087171 0.000573 -0.204965 0
M  V30 19 N -0.671600 -1.203363 -0.226794 0
M  V30 20 C -1.773656 -1.684406 -1.004300 0
M  V30 21 C -2.967426 -1.644547 -0.309238 0
M  V30 22 C -4.144531 -2.079944 -0.924809 0
M  V30 23 C -4.060441 -2.539881 -2.226547 0
M  V30 24 C -2.848404 -2.566157 -2.893347 0
M  V30 25 C -1.690791 -2.142347 -2.299967 0
M  V30 26 C 0.322016 -5.705657 0.168822 0
M  V30 27 C -0.475584 -6.424252 1.048565 0
M  V30 28 C -0.469655 -7.803626 1.015502 0
M  V30 29 C 0.338887 -8.464150 0.097086 0
M  V30 30 C 1.132275 -7.753208 -0.778089 0
M  V30 31 N 1.960549 -8.426900 -1.718842 0 CHG=1 VAL=4
M  V30 32 O 2.025081 -9.654126 -1.814654 0
M  V30 33 O 2.739952 -7.689405 -2.577816 0 CHG=-1 VAL=1
M  V30 34 C 1.132807 -6.378534 -0.752354 0
M  V30 35 H -0.987500 -3.802471 1.672639 0
M  V30 36 H 2.472722 0.975868 1.659528 0
M  V30 37 H 3.362575 3.081325 0.705318 0
M  V30 38 H 2.358583 4.031054 -0.388442 0
M  V30 39 H 0.578241 5.287499 0.278297 0
M  V30 40 H -0.259505 4.053220 1.305457 0
M  V30 41 H 1.003074 6.679907 2.267697 0
M  V30 42 H -0.757166 6.307132 2.018826 0
M  V30 43 H -0.826938 4.797229 3.850685 0
M  V30 44 H 0.246941 6.150831 4.384373 0
M  V30 45 H 0.952125 3.699734 4.797774 0
M  V30 46 H 2.199944 4.949082 4.325523 0
M  V30 47 H 2.519825 2.868813 3.137046 0
M  V30 48 H 0.734701 2.831935 2.646897 0
M  V30 49 H 0.247178 3.227322 -1.237020 0
M  V30 50 H -1.153621 1.174000 -1.631868 0
M  V30 51 H -3.082664 -1.291212 0.715641 0
M  V30 52 H -5.080029 -2.049926 -0.383469 0
M  V30 53 H -4.978463 -2.885257 -2.722563 0
M  V30 54 H -2.774927 -2.924560 -3.911634 0
M  V30 55 H -0.705884 -2.135479 -2.764485 0
M  V30 56 H -1.076268 -5.840154 1.732664 0
M  V30 57 H -1.110949 -8.315495 1.724101 0
M  V30 58 H 0.316437 -9.539348 0.101647 0
M  V30 59 H 1.770494 -5.844680 -1.456489 0
M  V30 END ATOM
M  V30 BEGIN BOND
M  V30 1 2 1 2
M  V30 2 1 2 3
M  V30 3 1 3 4
M  V30 4 2 4 5
M  V30 5 1 5 6
M  V30 6 2 6 7
M  V30 7 1 7 8
M  V30 8 1 8 9
M  V30 9 1 9 10
M  V30 10 1 10 11
M  V30 11 1 11 12
M  V30 12 1 12 13
M  V30 13 1 13 14
M  V30 14 1 14 15
M  V30 15 2 8 16
M  V30 16 1 16 17
M  V30 17 2 17 18
M  V30 18 1 18 19
M  V30 19 1 19 20
M  V30 20 2 20 21
M  V30 21 1 21 22
M  V30 22 2 22 23
M  V30 23 1 23 24
M  V30 24 2 24 25
M  V30 25 1 2 26
M  V30 26 2 26 27
M  V30 27 1 27 28
M  V30 28 2 28 29
M  V30 29 1 29 30
M  V30 30 1 30 31
M  V30 31 2 31 32
M  V30 32 1 31 33
M  V30 33 2 30 34
M  V30 34 1 19 4
M  V30 35 1 25 20
M  V30 36 1 34 26
M  V30 37 1 18 6
M  V30 38 1 15 10
M  V30 39 1 3 35
M  V30 40 1 7 36
M  V30 41 1 9 37
M  V30 42 1 9 38
M  V30 43 1 11 39
M  V30 44 1 11 40
M  V30 45 1 12 41
M  V30 46 1 12 42
M  V30 47 1 13 43
M  V30 48 1 13 44
M  V30 49 1 14 45
M  V30 50 1 14 46
M  V30 51 1 15 47
M  V30 52 1 15 48
M  V30 53 1 16 49
M  V30 54 1 17 50
M  V30 55 1 21 51
M  V30 56 1 22 52
M  V30 57 1 23 53
M  V30 58 1 24 54
M  V30 59 1 25 55
M  V30 60 1 27 56
M  V30 61 1 28 57
M  V30 62 1 29 58
M  V30 63 1 34 59
M  V30 END BOND
M  V30 END CTAB
M  END
>  <Dataset>  (170) 
ChEMBL_Kinases

>  <Ligand_Instance>  (170) 
nan

>  <PDB_ID>  (170) 
nan

>  <Standardized_SMILES>  (170) 
O=C(Nc1nc2cc(CN3CCCCC3)ccc2n1-c1ccccc1)c1cccc([N+](=O)[O-])c1

>  <Name>  (170) 
nan

>  <Pocket>  (170) 
nan

>  <ATP_Site>  (170) 
nan

>  <Peripheral>  (170) 
nan

>  <Num_H_Atoms_ProtBoundConf>  (170) 
nan

>  <Num_Resolved_Atoms>  (170) 
nan

>  <Num_Not_Resolved_Atoms>  (170) 
nan

$$$$
CHEMBL3735681
     RDKit          3D

  0  0  0  0  0  0  0  0  0  0999 V3000
M  V30 BEGIN CTAB
M  V30 COUNTS 55 57 0 0 0
M  V30 BEGIN ATOM
M  V30 1 C 5.839006 -5.740662 1.101633 0
M  V30 2 O 4.942929 -4.682528 0.781002 0
M  V30 3 C 4.445694 -3.814494 1.722606 0
M  V30 4 C 4.838305 -3.978446 3.050585 0
M  V30 5 C 4.297514 -3.065951 3.946360 0
M  V30 6 C 3.431783 -2.045826 3.630370 0
M  V30 7 N 2.836187 -1.103982 4.379120 0
M  V30 8 N 2.096165 -0.380243 3.534672 0
M  V30 9 C 2.201574 -0.828274 2.284062 0
M  V30 10 C 1.569560 -0.350834 1.054417 0
M  V30 11 O 1.774085 -0.871131 -0.070858 0
M  V30 12 N 0.662887 0.763487 1.085418 0
M  V30 13 C 0.089225 1.154938 -0.182428 0
M  V30 14 C -0.833005 2.352143 0.101318 0
M  V30 15 C -1.907592 1.999374 1.052508 0
M  V30 16 C -3.311458 2.285465 0.653753 0
M  V30 17 N -3.514362 2.387079 -0.718279 0
M  V30 18 C -4.169627 1.330048 -1.333287 0
M  V30 19 C -3.389170 0.011756 -1.380142 0
M  V30 20 N -4.162201 -1.033248 -2.041930 0
M  V30 21 S -3.268153 -2.515667 -2.083251 0
M  V30 22 C -2.951469 -3.042887 -0.413634 0
M  V30 23 O -1.967300 -2.320380 -2.785029 0
M  V30 24 O -4.081056 -3.540123 -2.826216 0
M  V30 25 C -2.681276 3.273733 -1.381618 0
M  V30 26 C -1.233789 3.065162 -1.125658 0
M  V30 27 C 3.067131 -1.921357 2.289402 0
M  V30 28 C 3.586135 -2.813227 1.365633 0
M  V30 29 H 6.608196 -5.426247 1.836382 0
M  V30 30 H 6.318584 -6.143105 0.183305 0
M  V30 31 H 5.255240 -6.550601 1.632687 0
M  V30 32 H 5.516813 -4.751935 3.413652 0
M  V30 33 H 4.606982 -3.194507 4.995914 0
M  V30 34 H 2.965560 -1.008358 5.410116 0
M  V30 35 H 0.460202 1.236787 2.010795 0
M  V30 36 H -0.488240 0.373997 -0.664413 0
M  V30 37 H 0.860880 1.501190 -0.898611 0
M  V30 38 H -0.129670 3.054785 0.651053 0
M  V30 39 H -1.720556 2.428442 2.083756 0
M  V30 40 H -1.841582 0.886935 1.249180 0
M  V30 41 H -3.638223 3.188426 1.242940 0
M  V30 42 H -4.002531 1.478916 1.065107 0
M  V30 43 H -5.156346 1.084321 -0.843256 0
M  V30 44 H -4.444581 1.631950 -2.380719 0
M  V30 45 H -3.112914 -0.335089 -0.368113 0
M  V30 46 H -2.463481 0.138326 -1.987805 0
M  V30 47 H -5.083606 -1.149679 -1.585580 0
M  V30 48 H -2.047028 -2.525231 -0.005215 0
M  V30 49 H -2.758658 -4.147488 -0.401138 0
M  V30 50 H -3.822095 -2.771455 0.237061 0
M  V30 51 H -2.941753 4.329566 -1.055394 0
M  V30 52 H -2.921717 3.297718 -2.477731 0
M  V30 53 H -0.718257 4.065028 -1.260909 0
M  V30 54 H -0.834326 2.465682 -1.996674 0
M  V30 55 H 3.270468 -2.673237 0.330326 0
M  V30 END ATOM
M  V30 BEGIN BOND
M  V30 1 1 1 2
M  V30 2 1 2 3
M  V30 3 2 3 4
M  V30 4 1 4 5
M  V30 5 2 5 6
M  V30 6 1 6 7
M  V30 7 1 7 8
M  V30 8 2 8 9
M  V30 9 1 9 10
M  V30 10 2 10 11
M  V30 11 1 10 12
M  V30 12 1 12 13
M  V30 13 1 13 14
M  V30 14 1 14 15
M  V30 15 1 15 16
M  V30 16 1 16 17
M  V30 17 1 17 18
M  V30 18 1 18 19
M  V30 19 1 19 20
M  V30 20 1 20 21
M  V30 21 1 21 22
M  V30 22 2 21 23
M  V30 23 2 21 24
M  V30 24 1 17 25
M  V30 25 1 25 26
M  V30 26 1 9 27
M  V30 27 2 27 28
M  V30 28 1 28 3
M  V30 29 1 27 6
M  V30 30 1 26 14
M  V30 31 1 1 29
M  V30 32 1 1 30
M  V30 33 1 1 31
M  V30 34 1 4 32
M  V30 35 1 5 33
M  V30 36 1 7 34
M  V30 37 1 12 35
M  V30 38 1 13 36
M  V30 39 1 13 37
M  V30 40 1 14 38
M  V30 41 1 15 39
M  V30 42 1 15 40
M  V30 43 1 16 41
M  V30 44 1 16 42
M  V30 45 1 18 43
M  V30 46 1 18 44
M  V30 47 1 19 45
M  V30 48 1 19 46
M  V30 49 1 20 47
M  V30 50 1 22 48
M  V30 51 1 22 49
M  V30 52 1 22 50
M  V30 53 1 25 51
M  V30 54 1 25 52
M  V30 55 1 26 53
M  V30 56 1 26 54
M  V30 57 1 28 55
M  V30 END BOND
M  V30 END CTAB
M  END
>  <Dataset>  (171) 
ChEMBL_Kinases

>  <Ligand_Instance>  (171) 
nan

>  <PDB_ID>  (171) 
nan

>  <Standardized_SMILES>  (171) 
COc1ccc2[nH]nc(C(=O)NCC3CCN(CCNS(C)(=O)=O)CC3)c2c1

>  <Name>  (171) 
nan

>  <Pocket>  (171) 
nan

>  <ATP_Site>  (171) 
nan

>  <Peripheral>  (171) 
nan

>  <Num_H_Atoms_ProtBoundConf>  (171) 
nan

>  <Num_Resolved_Atoms>  (171) 
nan

>  <Num_Not_Resolved_Atoms>  (171) 
nan

$$$$
CHEMBL3736223
     RDKit          3D

  0  0  0  0  0  0  0  0  0  0999 V3000
M  V30 BEGIN CTAB
M  V30 COUNTS 59 62 0 0 0
M  V30 BEGIN ATOM
M  V30 1 C 1.827927 1.155151 5.449838 0
M  V30 2 O 2.378605 0.108224 4.691792 0
M  V30 3 C 3.733460 0.043329 4.925818 0
M  V30 4 C 4.421065 -1.061884 4.145814 0
M  V30 5 N 4.304763 -0.952923 2.759116 0
M  V30 6 C 4.947874 0.091845 2.065718 0
M  V30 7 C 4.515272 -0.026434 0.593883 0
M  V30 8 C 2.993247 0.072685 0.562281 0
M  V30 9 C 2.493461 0.217408 -0.857695 0
M  V30 10 N 1.063867 0.301630 -0.860413 0
M  V30 11 C 0.229710 1.258808 -0.264565 0
M  V30 12 O 0.981088 2.114089 0.317180 0
M  V30 13 C -1.183029 1.485047 -0.164797 0
M  V30 14 N -1.597699 2.609218 0.464031 0
M  V30 15 N -2.926628 2.645143 0.461414 0
M  V30 16 C -3.469319 1.579274 -0.150493 0
M  V30 17 C -4.740370 1.126222 -0.426059 0
M  V30 18 C -4.930500 -0.068898 -1.101977 0
M  V30 19 C -3.766970 -0.757249 -1.470262 0
M  V30 20 C -3.895350 -2.044217 -2.191276 0
M  V30 21 C -5.031715 -2.752667 -1.826526 0
M  V30 22 C -5.286370 -3.981398 -2.413569 0
M  V30 23 C -4.377896 -4.443426 -3.347591 0
M  V30 24 C -4.625483 -5.771218 -3.994662 0
M  V30 25 N -3.291279 -3.722581 -3.669761 0
M  V30 26 C -3.010539 -2.519641 -3.117567 0
M  V30 27 C -2.493673 -0.322762 -1.205534 0
M  V30 28 C -2.355185 0.867404 -0.533717 0
M  V30 29 C 2.426991 -1.128927 1.245852 0
M  V30 30 C 3.493948 -1.845833 2.029065 0
M  V30 31 H 0.727973 1.229332 5.268240 0
M  V30 32 H 2.266534 2.136678 5.215999 0
M  V30 33 H 1.983241 0.960983 6.547887 0
M  V30 34 H 4.221665 1.018706 4.695832 0
M  V30 35 H 3.871523 -0.112486 6.011985 0
M  V30 36 H 5.483111 -1.049963 4.514941 0
M  V30 37 H 3.949483 -2.021711 4.504379 0
M  V30 38 H 4.577026 1.065058 2.429869 0
M  V30 39 H 6.062721 0.075326 2.118484 0
M  V30 40 H 4.994516 0.779088 -0.012540 0
M  V30 41 H 4.791258 -1.019541 0.194561 0
M  V30 42 H 2.757958 0.968144 1.167857 0
M  V30 43 H 2.983793 1.062236 -1.381091 0
M  V30 44 H 2.797448 -0.689213 -1.415989 0
M  V30 45 H 0.523085 -0.429148 -1.367373 0
M  V30 46 H -3.460691 3.435872 0.898534 0
M  V30 47 H -5.580724 1.736385 -0.097004 0
M  V30 48 H -5.918897 -0.437323 -1.327035 0
M  V30 49 H -5.785011 -2.458737 -1.106810 0
M  V30 50 H -6.160420 -4.610205 -2.185147 0
M  V30 51 H -5.489021 -5.666929 -4.684145 0
M  V30 52 H -3.715427 -6.168230 -4.473013 0
M  V30 53 H -4.911345 -6.540407 -3.224242 0
M  V30 54 H -2.170184 -1.893044 -3.323561 0
M  V30 55 H -1.656105 -0.884897 -1.507525 0
M  V30 56 H 2.086657 -1.836917 0.439125 0
M  V30 57 H 1.537530 -0.895176 1.864391 0
M  V30 58 H 4.098784 -2.532269 1.364362 0
M  V30 59 H 2.973116 -2.511967 2.763238 0
M  V30 END ATOM
M  V30 BEGIN BOND
M  V30 1 1 1 2
M  V30 2 1 2 3
M  V30 3 1 3 4
M  V30 4 1 4 5
M  V30 5 1 5 6
M  V30 6 1 6 7
M  V30 7 1 7 8
M  V30 8 1 8 9
M  V30 9 1 9 10
M  V30 10 1 10 11
M  V30 11 2 11 12
M  V30 12 1 11 13
M  V30 13 2 13 14
M  V30 14 1 14 15
M  V30 15 1 15 16
M  V30 16 2 16 17
M  V30 17 1 17 18
M  V30 18 2 18 19
M  V30 19 1 19 20
M  V30 20 2 20 21
M  V30 21 1 21 22
M  V30 22 2 22 23
M  V30 23 1 23 24
M  V30 24 1 23 25
M  V30 25 2 25 26
M  V30 26 1 19 27
M  V30 27 2 27 28
M  V30 28 1 8 29
M  V30 29 1 29 30
M  V30 30 1 30 5
M  V30 31 1 28 13
M  V30 32 1 28 16
M  V30 33 1 26 20
M  V30 34 1 1 31
M  V30 35 1 1 32
M  V30 36 1 1 33
M  V30 37 1 3 34
M  V30 38 1 3 35
M  V30 39 1 4 36
M  V30 40 1 4 37
M  V30 41 1 6 38
M  V30 42 1 6 39
M  V30 43 1 7 40
M  V30 44 1 7 41
M  V30 45 1 8 42
M  V30 46 1 9 43
M  V30 47 1 9 44
M  V30 48 1 10 45
M  V30 49 1 15 46
M  V30 50 1 17 47
M  V30 51 1 18 48
M  V30 52 1 21 49
M  V30 53 1 22 50
M  V30 54 1 24 51
M  V30 55 1 24 52
M  V30 56 1 24 53
M  V30 57 1 26 54
M  V30 58 1 27 55
M  V30 59 1 29 56
M  V30 60 1 29 57
M  V30 61 1 30 58
M  V30 62 1 30 59
M  V30 END BOND
M  V30 END CTAB
M  END
>  <Dataset>  (172) 
ChEMBL_Kinases

>  <Ligand_Instance>  (172) 
nan

>  <PDB_ID>  (172) 
nan

>  <Standardized_SMILES>  (172) 
COCCN1CCC(CNC(=O)c2n[nH]c3ccc(-c4ccc(C)nc4)cc23)CC1

>  <Name>  (172) 
nan

>  <Pocket>  (172) 
nan

>  <ATP_Site>  (172) 
nan

>  <Peripheral>  (172) 
nan

>  <Num_H_Atoms_ProtBoundConf>  (172) 
nan

>  <Num_Resolved_Atoms>  (172) 
nan

>  <Num_Not_Resolved_Atoms>  (172) 
nan

$$$$
CHEMBL3735657
     RDKit          3D

  0  0  0  0  0  0  0  0  0  0999 V3000
M  V30 BEGIN CTAB
M  V30 COUNTS 60 64 0 0 0
M  V30 BEGIN ATOM
M  V30 1 C 4.325489 4.128085 3.839735 0
M  V30 2 O 3.087990 4.616754 3.537512 0
M  V30 3 C 2.196561 3.660975 3.182758 0
M  V30 4 C 2.602109 2.890184 1.965506 0
M  V30 5 O 1.600682 1.904625 1.650276 0
M  V30 6 C 1.809220 1.089480 0.548354 0
M  V30 7 C 2.959710 1.254820 -0.194781 0
M  V30 8 C 3.170489 0.448462 -1.288716 0
M  V30 9 C 2.224877 -0.477041 -1.582014 0
M  V30 10 C 1.071205 -0.648944 -0.844044 0
M  V30 11 C 0.793814 0.142623 0.287675 0
M  V30 12 C -0.420668 0.030482 1.112896 0
M  V30 13 C -1.671031 0.587645 0.489518 0
M  V30 14 N -0.584072 -1.165295 1.870699 0
M  V30 15 C -1.420490 -0.849604 3.032152 0
M  V30 16 C -1.435440 -1.995517 4.016338 0
M  V30 17 N -1.242265 -3.271691 3.347497 0
M  V30 18 C -1.965074 -3.173482 2.086582 0
M  V30 19 C -1.104652 -2.308505 1.168603 0
M  V30 20 O 0.336770 -1.654846 -1.403970 0
M  V30 21 C 0.975775 -2.168641 -2.512167 0
M  V30 22 C 0.491522 -3.142497 -3.238577 0
M  V30 23 C -0.747390 -3.894676 -3.101489 0
M  V30 24 N -0.748453 -5.255411 -3.237639 0
M  V30 25 N -1.976378 -5.720299 -3.084047 0
M  V30 26 C -2.849514 -4.726391 -2.842724 0
M  V30 27 N -4.171515 -4.608264 -2.620802 0
M  V30 28 C -4.754682 -3.399054 -2.410923 0
M  V30 29 C -3.961085 -2.270765 -2.428291 0
M  V30 30 C -2.611665 -2.359804 -2.651688 0
M  V30 31 C -2.064165 -3.595746 -2.857727 0
M  V30 32 C 2.223895 -1.436540 -2.682991 0
M  V30 33 O 3.071822 -1.626954 -3.588734 0
M  V30 34 H 4.818676 3.615571 2.996684 0
M  V30 35 H 4.989117 4.891588 4.310599 0
M  V30 36 H 4.211223 3.313380 4.620517 0
M  V30 37 H 1.157568 4.061694 3.104014 0
M  V30 38 H 2.181463 2.897397 4.023186 0
M  V30 39 H 2.827364 3.529346 1.094965 0
M  V30 40 H 3.562878 2.352442 2.218430 0
M  V30 41 H 3.690632 2.002669 0.070826 0
M  V30 42 H 4.060422 0.594060 -1.842374 0
M  V30 43 H -0.234326 0.823513 1.941110 0
M  V30 44 H -1.392411 1.464756 -0.132675 0
M  V30 45 H -2.362619 0.875305 1.302147 0
M  V30 46 H -2.166880 -0.113733 -0.202317 0
M  V30 47 H -0.947639 0.015884 3.531898 0
M  V30 48 H -2.442213 -0.544839 2.737384 0
M  V30 49 H -2.454639 -2.025085 4.461755 0
M  V30 50 H -0.730397 -1.855887 4.864045 0
M  V30 51 H -1.723132 -3.995387 3.923200 0
M  V30 52 H -1.998889 -4.201604 1.633684 0
M  V30 53 H -2.969523 -2.764482 2.255760 0
M  V30 54 H -0.258018 -2.960765 0.878756 0
M  V30 55 H -1.714453 -2.105837 0.297061 0
M  V30 56 H 1.140170 -3.423971 -4.087110 0
M  V30 57 H -2.268029 -6.729548 -3.137306 0
M  V30 58 H -5.808466 -3.308922 -2.233883 0
M  V30 59 H -4.400330 -1.297143 -2.264012 0
M  V30 60 H -2.024264 -1.459534 -2.666250 0
M  V30 END ATOM
M  V30 BEGIN BOND
M  V30 1 1 1 2
M  V30 2 1 2 3
M  V30 3 1 3 4
M  V30 4 1 4 5
M  V30 5 1 5 6
M  V30 6 2 6 7
M  V30 7 1 7 8
M  V30 8 2 8 9
M  V30 9 1 9 10
M  V30 10 2 10 11
M  V30 11 1 11 12
M  V30 12 1 12 13
M  V30 13 1 12 14
M  V30 14 1 14 15
M  V30 15 1 15 16
M  V30 16 1 16 17
M  V30 17 1 17 18
M  V30 18 1 18 19
M  V30 19 1 10 20
M  V30 20 1 20 21
M  V30 21 2 21 22
M  V30 22 1 22 23
M  V30 23 2 23 24
M  V30 24 1 24 25
M  V30 25 1 25 26
M  V30 26 2 26 27
M  V30 27 1 27 28
M  V30 28 2 28 29
M  V30 29 1 29 30
M  V30 30 2 30 31
M  V30 31 1 21 32
M  V30 32 2 32 33
M  V30 33 1 11 6
M  V30 34 1 19 14
M  V30 35 1 31 23
M  V30 36 1 32 9
M  V30 37 1 31 26
M  V30 38 1 1 34
M  V30 39 1 1 35
M  V30 40 1 1 36
M  V30 41 1 3 37
M  V30 42 1 3 38
M  V30 43 1 4 39
M  V30 44 1 4 40
M  V30 45 1 7 41
M  V30 46 1 8 42
M  V30 47 1 12 43
M  V30 48 1 13 44
M  V30 49 1 13 45
M  V30 50 1 13 46
M  V30 51 1 15 47
M  V30 52 1 15 48
M  V30 53 1 16 49
M  V30 54 1 16 50
M  V30 55 1 17 51
M  V30 56 1 18 52
M  V30 57 1 18 53
M  V30 58 1 19 54
M  V30 59 1 19 55
M  V30 60 1 22 56
M  V30 61 1 25 57
M  V30 62 1 28 58
M  V30 63 1 29 59
M  V30 64 1 30 60
M  V30 END BOND
M  V30 END CTAB
M  END
>  <Dataset>  (173) 
ChEMBL_Kinases

>  <Ligand_Instance>  (173) 
nan

>  <PDB_ID>  (173) 
nan

>  <Standardized_SMILES>  (173) 
COCCOc1ccc2c(c1C(C)N1CCNCC1)O/C(=C\c1n[nH]c3ncccc13)C2=O

>  <Name>  (173) 
nan

>  <Pocket>  (173) 
nan

>  <ATP_Site>  (173) 
nan

>  <Peripheral>  (173) 
nan

>  <Num_H_Atoms_ProtBoundConf>  (173) 
nan

>  <Num_Resolved_Atoms>  (173) 
nan

>  <Num_Not_Resolved_Atoms>  (173) 
nan

$$$$
CHEMBL3735637
     RDKit          3D

  0  0  0  0  0  0  0  0  0  0999 V3000
M  V30 BEGIN CTAB
M  V30 COUNTS 60 62 0 0 0
M  V30 BEGIN ATOM
M  V30 1 C -0.205830 0.239080 4.497647 0
M  V30 2 C 0.885055 1.111116 3.966673 0
M  V30 3 C 2.185381 0.372671 3.878304 0
M  V30 4 O 1.997478 -0.798044 4.296289 0
M  V30 5 N 3.453569 0.813536 3.424463 0
M  V30 6 C 4.586703 -0.027170 3.408501 0
M  V30 7 C 4.570877 -1.243479 2.548838 0
M  V30 8 C 4.455880 -0.983914 1.120609 0
M  V30 9 N 3.350324 -0.350143 0.544450 0
M  V30 10 C 3.536772 -0.069049 -0.867711 0
M  V30 11 C 2.412305 0.645346 -1.511392 0
M  V30 12 C 1.039029 0.265553 -1.075238 0
M  V30 13 C 0.047649 1.325457 -1.441716 0
M  V30 14 N -1.265433 0.912552 -0.994778 0
M  V30 15 C -1.960834 -0.238274 -1.391198 0
M  V30 16 O -1.451635 -1.035287 -2.215585 0
M  V30 17 C -3.300394 -0.486955 -0.816588 0
M  V30 18 N -3.959355 0.285571 0.064601 0
M  V30 19 N -5.135238 -0.271306 0.344730 0
M  V30 20 C -5.304626 -1.421300 -0.329091 0
M  V30 21 C -6.327734 -2.345892 -0.377616 0
M  V30 22 C -6.176127 -3.463271 -1.206240 0
M  V30 23 C -4.999611 -3.584464 -1.939796 0
M  V30 24 O -5.001382 -4.739775 -2.708450 0
M  V30 25 C -3.865332 -4.995694 -3.510316 0
M  V30 26 C -3.993568 -2.646378 -1.872847 0
M  V30 27 C -4.143079 -1.550091 -1.059204 0
M  V30 28 C 1.043865 0.142240 0.447874 0
M  V30 29 C 2.063022 -0.928885 0.748814 0
M  V30 30 H 0.178247 -0.701799 4.900497 0
M  V30 31 H -0.940283 0.059252 3.658413 0
M  V30 32 H -0.812988 0.800239 5.262816 0
M  V30 33 H 0.629396 1.532804 2.994266 0
M  V30 34 H 1.029599 1.955653 4.705114 0
M  V30 35 H 3.430908 1.817272 3.112996 0
M  V30 36 H 5.469706 0.575352 3.088461 0
M  V30 37 H 4.825441 -0.300866 4.485505 0
M  V30 38 H 5.598294 -1.709962 2.697662 0
M  V30 39 H 3.904272 -2.047948 2.943748 0
M  V30 40 H 4.610357 -1.960732 0.572381 0
M  V30 41 H 5.366779 -0.388248 0.809650 0
M  V30 42 H 4.442134 0.566330 -0.930938 0
M  V30 43 H 3.765196 -1.020171 -1.382144 0
M  V30 44 H 2.487895 1.754469 -1.418650 0
M  V30 45 H 2.468159 0.437745 -2.613608 0
M  V30 46 H 0.721118 -0.734700 -1.456743 0
M  V30 47 H 0.049779 1.514648 -2.553806 0
M  V30 48 H 0.377666 2.262825 -0.993793 0
M  V30 49 H -1.736885 1.557926 -0.294845 0
M  V30 50 H -5.786743 0.183934 1.009791 0
M  V30 51 H -7.194164 -2.148112 0.234118 0
M  V30 52 H -7.003269 -4.162699 -1.213810 0
M  V30 53 H -3.838030 -4.341213 -4.396609 0
M  V30 54 H -3.870594 -6.052840 -3.864553 0
M  V30 55 H -2.968160 -4.819584 -2.862979 0
M  V30 56 H -3.122830 -2.826343 -2.476003 0
M  V30 57 H 1.472279 1.105112 0.805404 0
M  V30 58 H 0.047322 -0.059977 0.865836 0
M  V30 59 H 1.869294 -1.418225 1.667691 0
M  V30 60 H 1.949051 -1.708856 -0.065024 0
M  V30 END ATOM
M  V30 BEGIN BOND
M  V30 1 1 1 2
M  V30 2 1 2 3
M  V30 3 2 3 4
M  V30 4 1 3 5
M  V30 5 1 5 6
M  V30 6 1 6 7
M  V30 7 1 7 8
M  V30 8 1 8 9
M  V30 9 1 9 10
M  V30 10 1 10 11
M  V30 11 1 11 12
M  V30 12 1 12 13
M  V30 13 1 13 14
M  V30 14 1 14 15
M  V30 15 2 15 16
M  V30 16 1 15 17
M  V30 17 2 17 18
M  V30 18 1 18 19
M  V30 19 1 19 20
M  V30 20 2 20 21
M  V30 21 1 21 22
M  V30 22 2 22 23
M  V30 23 1 23 24
M  V30 24 1 24 25
M  V30 25 1 23 26
M  V30 26 2 26 27
M  V30 27 1 12 28
M  V30 28 1 28 29
M  V30 29 1 29 9
M  V30 30 1 27 17
M  V30 31 1 27 20
M  V30 32 1 1 30
M  V30 33 1 1 31
M  V30 34 1 1 32
M  V30 35 1 2 33
M  V30 36 1 2 34
M  V30 37 1 5 35
M  V30 38 1 6 36
M  V30 39 1 6 37
M  V30 40 1 7 38
M  V30 41 1 7 39
M  V30 42 1 8 40
M  V30 43 1 8 41
M  V30 44 1 10 42
M  V30 45 1 10 43
M  V30 46 1 11 44
M  V30 47 1 11 45
M  V30 48 1 12 46
M  V30 49 1 13 47
M  V30 50 1 13 48
M  V30 51 1 14 49
M  V30 52 1 19 50
M  V30 53 1 21 51
M  V30 54 1 22 52
M  V30 55 1 25 53
M  V30 56 1 25 54
M  V30 57 1 25 55
M  V30 58 1 26 56
M  V30 59 1 28 57
M  V30 60 1 28 58
M  V30 61 1 29 59
M  V30 62 1 29 60
M  V30 END BOND
M  V30 END CTAB
M  END
>  <Dataset>  (174) 
ChEMBL_Kinases

>  <Ligand_Instance>  (174) 
nan

>  <PDB_ID>  (174) 
nan

>  <Standardized_SMILES>  (174) 
CCC(=O)NCCCN1CCC(CNC(=O)c2n[nH]c3ccc(OC)cc23)CC1

>  <Name>  (174) 
nan

>  <Pocket>  (174) 
nan

>  <ATP_Site>  (174) 
nan

>  <Peripheral>  (174) 
nan

>  <Num_H_Atoms_ProtBoundConf>  (174) 
nan

>  <Num_Resolved_Atoms>  (174) 
nan

>  <Num_Not_Resolved_Atoms>  (174) 
nan

$$$$
CHEMBL3735633
     RDKit          3D

  0  0  0  0  0  0  0  0  0  0999 V3000
M  V30 BEGIN CTAB
M  V30 COUNTS 53 57 0 0 0
M  V30 BEGIN ATOM
M  V30 1 C 0.825940 1.542563 5.404294 0
M  V30 2 O 0.826047 1.177066 4.046314 0
M  V30 3 C 0.793130 -0.158161 3.702340 0
M  V30 4 C 0.766562 -1.087483 4.719563 0
M  V30 5 C 0.737709 -2.426864 4.412481 0
M  V30 6 C 0.737074 -2.761166 3.096345 0
M  V30 7 C 0.763464 -1.814461 2.065454 0
M  V30 8 C 0.793114 -0.436137 2.352831 0
M  V30 9 C 0.815621 0.455427 1.200311 0
M  V30 10 N -0.406393 1.075351 0.803627 0
M  V30 11 C -0.853561 2.062027 1.703023 0
M  V30 12 C -1.837918 3.041570 1.070265 0
M  V30 13 N -1.237198 3.730896 -0.050472 0
M  V30 14 C -0.148269 2.987869 -0.652633 0
M  V30 15 C -0.403487 1.497997 -0.582181 0 CFG=2
M  V30 16 C -1.675221 1.115000 -1.291039 0
M  V30 17 O 0.755214 -2.506113 0.874021 0
M  V30 18 C 0.725743 -3.859651 1.076243 0
M  V30 19 C 0.711601 -4.788386 0.143432 0
M  V30 20 C 0.720931 -4.625776 -1.298660 0
M  V30 21 N 1.537853 -5.353052 -2.084182 0
M  V30 22 N 1.383226 -5.075064 -3.358347 0
M  V30 23 C 0.433107 -4.127939 -3.471533 0
M  V30 24 N -0.123500 -3.489930 -4.516416 0
M  V30 25 C -1.093406 -2.570178 -4.304804 0
M  V30 26 C -1.539212 -2.259632 -3.013103 0
M  V30 27 C -0.961624 -2.920145 -1.941570 0
M  V30 28 C 0.022439 -3.849924 -2.194800 0
M  V30 29 C 0.712193 -4.099552 2.513448 0
M  V30 30 O 0.685673 -5.197869 3.117010 0
M  V30 31 H -0.070785 1.132464 5.941885 0
M  V30 32 H 1.694415 1.049846 5.933669 0
M  V30 33 H 0.889030 2.616754 5.572354 0
M  V30 34 H 0.768123 -0.764809 5.749240 0
M  V30 35 H 0.717369 -3.125332 5.231347 0
M  V30 36 H 1.182906 -0.107561 0.284268 0
M  V30 37 H 1.648908 1.236952 1.310973 0
M  V30 38 H -1.388857 1.613898 2.549839 0
M  V30 39 H -0.037471 2.702263 2.101165 0
M  V30 40 H -2.783809 2.583951 0.768293 0
M  V30 41 H -2.055440 3.799164 1.845799 0
M  V30 42 H -1.973633 3.989856 -0.740492 0
M  V30 43 H -0.056403 3.269371 -1.725415 0
M  V30 44 H 0.810471 3.195994 -0.176272 0
M  V30 45 H 0.437024 0.985088 -1.083528 0
M  V30 46 H -1.504590 0.643867 -2.283640 0
M  V30 47 H -2.287232 2.032840 -1.528738 0
M  V30 48 H -2.242722 0.412823 -0.668752 0
M  V30 49 H 0.685672 -5.829249 0.501943 0
M  V30 50 H 1.873035 -5.475885 -4.192305 0
M  V30 51 H -1.592056 -2.013584 -5.090524 0
M  V30 52 H -2.323550 -1.519899 -2.848754 0
M  V30 53 H -1.271192 -2.721077 -0.926014 0
M  V30 END ATOM
M  V30 BEGIN BOND
M  V30 1 1 1 2
M  V30 2 1 2 3
M  V30 3 2 3 4
M  V30 4 1 4 5
M  V30 5 2 5 6
M  V30 6 1 6 7
M  V30 7 2 7 8
M  V30 8 1 8 9
M  V30 9 1 9 10
M  V30 10 1 10 11
M  V30 11 1 11 12
M  V30 12 1 12 13
M  V30 13 1 13 14
M  V30 14 1 14 15
M  V30 15 1 15 16
M  V30 16 1 7 17
M  V30 17 1 17 18
M  V30 18 2 18 19
M  V30 19 1 19 20
M  V30 20 2 20 21
M  V30 21 1 21 22
M  V30 22 1 22 23
M  V30 23 2 23 24
M  V30 24 1 24 25
M  V30 25 2 25 26
M  V30 26 1 26 27
M  V30 27 2 27 28
M  V30 28 1 18 29
M  V30 29 2 29 30
M  V30 30 1 8 3
M  V30 31 1 15 10
M  V30 32 1 28 20
M  V30 33 1 29 6
M  V30 34 1 28 23
M  V30 35 1 1 31
M  V30 36 1 1 32
M  V30 37 1 1 33
M  V30 38 1 4 34
M  V30 39 1 5 35
M  V30 40 1 9 36
M  V30 41 1 9 37
M  V30 42 1 11 38
M  V30 43 1 11 39
M  V30 44 1 12 40
M  V30 45 1 12 41
M  V30 46 1 13 42
M  V30 47 1 14 43
M  V30 48 1 14 44
M  V30 49 1 15 45 CFG=3
M  V30 50 1 16 46
M  V30 51 1 16 47
M  V30 52 1 16 48
M  V30 53 1 19 49
M  V30 54 1 22 50
M  V30 55 1 25 51
M  V30 56 1 26 52
M  V30 57 1 27 53
M  V30 END BOND
M  V30 END CTAB
M  END
>  <Dataset>  (175) 
ChEMBL_Kinases

>  <Ligand_Instance>  (175) 
nan

>  <PDB_ID>  (175) 
nan

>  <Standardized_SMILES>  (175) 
COc1ccc2c(c1CN1CCNC[C@@H]1C)O/C(=C\c1n[nH]c3ncccc13)C2=O

>  <Name>  (175) 
nan

>  <Pocket>  (175) 
nan

>  <ATP_Site>  (175) 
nan

>  <Peripheral>  (175) 
nan

>  <Num_H_Atoms_ProtBoundConf>  (175) 
nan

>  <Num_Resolved_Atoms>  (175) 
nan

>  <Num_Not_Resolved_Atoms>  (175) 
nan

$$$$
CHEMBL3735628
     RDKit          3D

  0  0  0  0  0  0  0  0  0  0999 V3000
M  V30 BEGIN CTAB
M  V30 COUNTS 53 57 0 0 0
M  V30 BEGIN ATOM
M  V30 1 C -1.584422 0.943587 5.595408 0
M  V30 2 O -1.428186 0.696941 4.213505 0
M  V30 3 C -0.657008 -0.384120 3.804212 0
M  V30 4 C -0.047694 -1.211683 4.746635 0
M  V30 5 C 0.729358 -2.299055 4.412780 0
M  V30 6 C 0.884375 -2.542684 3.068146 0
M  V30 7 C 0.299093 -1.749321 2.104423 0
M  V30 8 C -0.478970 -0.660476 2.444489 0
M  V30 9 C -1.163294 0.267165 1.507505 0
M  V30 10 N -0.473493 1.508494 1.419073 0
M  V30 11 C 0.848731 1.316101 0.924289 0
M  V30 12 C 0.981697 1.176771 -0.555971 0
M  V30 13 N 0.020673 1.962336 -1.291855 0
M  V30 14 C -0.370854 3.075955 -0.465965 0
M  V30 15 C -1.143848 2.539752 0.709401 0 CFG=1
M  V30 16 C -2.530187 2.198328 0.242473 0
M  V30 17 O 0.623165 -2.225343 0.845848 0
M  V30 18 C 1.427395 -3.340804 0.925767 0
M  V30 19 C 1.895175 -4.011765 -0.110347 0
M  V30 20 C 1.686151 -3.753468 -1.525758 0
M  V30 21 N 2.772922 -3.820367 -2.351905 0
M  V30 22 N 2.419890 -3.572638 -3.601344 0
M  V30 23 C 1.096784 -3.331154 -3.672509 0
M  V30 24 N 0.195280 -3.036366 -4.626366 0
M  V30 25 C -1.091480 -2.869706 -4.274515 0
M  V30 26 C -1.581822 -2.979619 -2.970887 0
M  V30 27 C -0.659787 -3.284239 -1.970429 0
M  V30 28 C 0.645922 -3.445786 -2.374942 0
M  V30 29 C 1.616945 -3.575072 2.343659 0
M  V30 30 O 2.291282 -4.501666 2.858481 0
M  V30 31 H -2.021122 1.961978 5.765836 0
M  V30 32 H -2.279917 0.245187 6.096327 0
M  V30 33 H -0.589926 0.946479 6.124486 0
M  V30 34 H -0.165426 -1.025034 5.825243 0
M  V30 35 H 1.202275 -2.942322 5.135729 0
M  V30 36 H -2.195235 0.418457 1.940865 0
M  V30 37 H -1.310913 -0.197037 0.522162 0
M  V30 38 H 1.434806 2.233701 1.220069 0
M  V30 39 H 1.264795 0.415909 1.456230 0
M  V30 40 H 2.035152 1.467007 -0.818674 0
M  V30 41 H 0.834992 0.101628 -0.860311 0
M  V30 42 H 0.390588 2.263607 -2.219514 0
M  V30 43 H -0.978052 3.798591 -1.026297 0
M  V30 44 H 0.539204 3.614003 -0.095797 0
M  V30 45 H -1.264489 3.401553 1.423692 0
M  V30 46 H -3.235659 1.933945 1.052698 0
M  V30 47 H -2.537113 1.421279 -0.553488 0
M  V30 48 H -2.949671 3.114558 -0.223528 0
M  V30 49 H 2.516120 -4.868488 0.200842 0
M  V30 50 H 3.061714 -3.561395 -4.428307 0
M  V30 51 H -1.756818 -2.634804 -5.093565 0
M  V30 52 H -2.629064 -2.828395 -2.796596 0
M  V30 53 H -1.003966 -3.384490 -0.953799 0
M  V30 END ATOM
M  V30 BEGIN BOND
M  V30 1 1 1 2
M  V30 2 1 2 3
M  V30 3 2 3 4
M  V30 4 1 4 5
M  V30 5 2 5 6
M  V30 6 1 6 7
M  V30 7 2 7 8
M  V30 8 1 8 9
M  V30 9 1 9 10
M  V30 10 1 10 11
M  V30 11 1 11 12
M  V30 12 1 12 13
M  V30 13 1 13 14
M  V30 14 1 14 15
M  V30 15 1 15 16
M  V30 16 1 7 17
M  V30 17 1 17 18
M  V30 18 2 18 19
M  V30 19 1 19 20
M  V30 20 2 20 21
M  V30 21 1 21 22
M  V30 22 1 22 23
M  V30 23 2 23 24
M  V30 24 1 24 25
M  V30 25 2 25 26
M  V30 26 1 26 27
M  V30 27 2 27 28
M  V30 28 1 18 29
M  V30 29 2 29 30
M  V30 30 1 8 3
M  V30 31 1 15 10
M  V30 32 1 28 20
M  V30 33 1 29 6
M  V30 34 1 28 23
M  V30 35 1 1 31
M  V30 36 1 1 32
M  V30 37 1 1 33
M  V30 38 1 4 34
M  V30 39 1 5 35
M  V30 40 1 9 36
M  V30 41 1 9 37
M  V30 42 1 11 38
M  V30 43 1 11 39
M  V30 44 1 12 40
M  V30 45 1 12 41
M  V30 46 1 13 42
M  V30 47 1 14 43
M  V30 48 1 14 44
M  V30 49 1 15 45 CFG=1
M  V30 50 1 16 46
M  V30 51 1 16 47
M  V30 52 1 16 48
M  V30 53 1 19 49
M  V30 54 1 22 50
M  V30 55 1 25 51
M  V30 56 1 26 52
M  V30 57 1 27 53
M  V30 END BOND
M  V30 END CTAB
M  END
>  <Dataset>  (176) 
ChEMBL_Kinases

>  <Ligand_Instance>  (176) 
nan

>  <PDB_ID>  (176) 
nan

>  <Standardized_SMILES>  (176) 
COc1ccc2c(c1CN1CCNC[C@H]1C)O/C(=C\c1n[nH]c3ncccc13)C2=O

>  <Name>  (176) 
nan

>  <Pocket>  (176) 
nan

>  <ATP_Site>  (176) 
nan

>  <Peripheral>  (176) 
nan

>  <Num_H_Atoms_ProtBoundConf>  (176) 
nan

>  <Num_Resolved_Atoms>  (176) 
nan

>  <Num_Not_Resolved_Atoms>  (176) 
nan

$$$$
CHEMBL3735627
     RDKit          3D

  0  0  0  0  0  0  0  0  0  0999 V3000
M  V30 BEGIN CTAB
M  V30 COUNTS 60 63 0 0 0
M  V30 BEGIN ATOM
M  V30 1 C 1.576306 -0.012162 5.846068 0
M  V30 2 O 2.330269 -1.122671 6.146984 0
M  V30 3 C 2.823880 -1.713606 5.000145 0
M  V30 4 C 3.731869 -0.867561 4.159565 0
M  V30 5 N 4.202680 -1.605230 3.040838 0
M  V30 6 C 5.065721 -0.835446 2.167112 0
M  V30 7 C 4.583030 -0.932278 0.721959 0
M  V30 8 C 3.092520 -0.570391 0.773131 0
M  V30 9 C 2.575135 -0.259062 -0.600715 0
M  V30 10 N 1.176145 0.092687 -0.651010 0
M  V30 11 C 0.584108 1.180869 -0.000413 0
M  V30 12 O 1.521070 1.784397 0.629762 0
M  V30 13 C -0.740388 1.730436 0.109629 0
M  V30 14 N -0.874965 2.845600 0.861995 0
M  V30 15 N -2.165634 3.216112 0.853632 0
M  V30 16 C -2.925820 2.394884 0.121451 0
M  V30 17 C -4.254893 2.294626 -0.224110 0
M  V30 18 C -4.670837 1.243130 -1.045627 0
M  V30 19 C -3.721075 0.326890 -1.489594 0
M  V30 20 C -4.144736 -0.775961 -2.348938 0
M  V30 21 C -5.163115 -0.777043 -3.273903 0
M  V30 22 C -5.436417 -1.914324 -4.009613 0
M  V30 23 C -4.719865 -3.080993 -3.859308 0
M  V30 24 O -4.986340 -4.230000 -4.593828 0
M  V30 25 C -4.192455 -5.386297 -4.368371 0
M  V30 26 N -3.721481 -3.056088 -2.942251 0
M  V30 27 C -3.436777 -1.970621 -2.218443 0
M  V30 28 C -2.395999 0.436416 -1.138531 0
M  V30 29 C -2.012390 1.471274 -0.335322 0
M  V30 30 C 2.392861 -1.760586 1.392920 0
M  V30 31 C 3.320844 -2.458107 2.350518 0
M  V30 32 H 1.167000 0.405463 6.810219 0
M  V30 33 H 0.772558 -0.301326 5.142752 0
M  V30 34 H 2.236953 0.750822 5.378396 0
M  V30 35 H 3.247640 -2.719900 5.203202 0
M  V30 36 H 1.934744 -1.936243 4.319776 0
M  V30 37 H 4.630689 -0.631550 4.794037 0
M  V30 38 H 3.235129 0.083765 3.869819 0
M  V30 39 H 6.122393 -1.128928 2.256422 0
M  V30 40 H 4.971119 0.227997 2.454425 0
M  V30 41 H 4.756642 -1.918238 0.275999 0
M  V30 42 H 5.047565 -0.142967 0.099758 0
M  V30 43 H 3.017420 0.260679 1.497948 0
M  V30 44 H 3.221323 0.518167 -1.067780 0
M  V30 45 H 2.702937 -1.161138 -1.228298 0
M  V30 46 H 0.492345 -0.466079 -1.198966 0
M  V30 47 H -2.506933 4.057131 1.371285 0
M  V30 48 H -4.929957 3.052408 0.165895 0
M  V30 49 H -5.705429 1.167763 -1.312790 0
M  V30 50 H -5.699304 0.154646 -3.361501 0
M  V30 51 H -6.240126 -1.875623 -4.722571 0
M  V30 52 H -4.690756 -6.278245 -4.769133 0
M  V30 53 H -3.987482 -5.455384 -3.268645 0
M  V30 54 H -3.203574 -5.187986 -4.868518 0
M  V30 55 H -2.603186 -2.128950 -1.529566 0
M  V30 56 H -1.714093 -0.285738 -1.501635 0
M  V30 57 H 1.964437 -2.456235 0.643745 0
M  V30 58 H 1.538586 -1.367047 1.989596 0
M  V30 59 H 3.968434 -3.140316 1.707745 0
M  V30 60 H 2.796347 -3.130805 3.037522 0
M  V30 END ATOM
M  V30 BEGIN BOND
M  V30 1 1 1 2
M  V30 2 1 2 3
M  V30 3 1 3 4
M  V30 4 1 4 5
M  V30 5 1 5 6
M  V30 6 1 6 7
M  V30 7 1 7 8
M  V30 8 1 8 9
M  V30 9 1 9 10
M  V30 10 1 10 11
M  V30 11 2 11 12
M  V30 12 1 11 13
M  V30 13 2 13 14
M  V30 14 1 14 15
M  V30 15 1 15 16
M  V30 16 2 16 17
M  V30 17 1 17 18
M  V30 18 2 18 19
M  V30 19 1 19 20
M  V30 20 2 20 21
M  V30 21 1 21 22
M  V30 22 2 22 23
M  V30 23 1 23 24
M  V30 24 1 24 25
M  V30 25 1 23 26
M  V30 26 2 26 27
M  V30 27 1 19 28
M  V30 28 2 28 29
M  V30 29 1 8 30
M  V30 30 1 30 31
M  V30 31 1 31 5
M  V30 32 1 29 13
M  V30 33 1 29 16
M  V30 34 1 27 20
M  V30 35 1 1 32
M  V30 36 1 1 33
M  V30 37 1 1 34
M  V30 38 1 3 35
M  V30 39 1 3 36
M  V30 40 1 4 37
M  V30 41 1 4 38
M  V30 42 1 6 39
M  V30 43 1 6 40
M  V30 44 1 7 41
M  V30 45 1 7 42
M  V30 46 1 8 43
M  V30 47 1 9 44
M  V30 48 1 9 45
M  V30 49 1 10 46
M  V30 50 1 15 47
M  V30 51 1 17 48
M  V30 52 1 18 49
M  V30 53 1 21 50
M  V30 54 1 22 51
M  V30 55 1 25 52
M  V30 56 1 25 53
M  V30 57 1 25 54
M  V30 58 1 27 55
M  V30 59 1 28 56
M  V30 60 1 30 57
M  V30 61 1 30 58
M  V30 62 1 31 59
M  V30 63 1 31 60
M  V30 END BOND
M  V30 END CTAB
M  END
>  <Dataset>  (177) 
ChEMBL_Kinases

>  <Ligand_Instance>  (177) 
nan

>  <PDB_ID>  (177) 
nan

>  <Standardized_SMILES>  (177) 
COCCN1CCC(CNC(=O)c2n[nH]c3ccc(-c4ccc(OC)nc4)cc23)CC1

>  <Name>  (177) 
nan

>  <Pocket>  (177) 
nan

>  <ATP_Site>  (177) 
nan

>  <Peripheral>  (177) 
nan

>  <Num_H_Atoms_ProtBoundConf>  (177) 
nan

>  <Num_Resolved_Atoms>  (177) 
nan

>  <Num_Not_Resolved_Atoms>  (177) 
nan

$$$$
CHEMBL3735621
     RDKit          3D

  0  0  0  0  0  0  0  0  0  0999 V3000
M  V30 BEGIN CTAB
M  V30 COUNTS 56 59 0 0 0
M  V30 BEGIN ATOM
M  V30 1 C 5.667064 -1.728799 6.570652 0
M  V30 2 O 4.738224 -1.228969 5.630147 0
M  V30 3 C 4.950508 -1.339726 4.264329 0
M  V30 4 C 6.098704 -1.953313 3.787253 0
M  V30 5 C 6.266728 -2.040327 2.416819 0
M  V30 6 C 5.304142 -1.523405 1.607415 0
M  V30 7 N 5.128723 -1.428082 0.277193 0
M  V30 8 N 3.979087 -0.812651 -0.048345 0
M  V30 9 C 3.340707 -0.472253 1.086747 0
M  V30 10 C 2.083843 0.200850 0.958513 0
M  V30 11 O 1.692057 0.375346 -0.247300 0
M  V30 12 N 1.115166 0.748818 1.797360 0
M  V30 13 C -0.137305 1.412020 1.833474 0
M  V30 14 C -1.307915 0.652676 1.318773 0
M  V30 15 C -2.593181 1.446841 1.405664 0
M  V30 16 C -3.172035 1.846284 0.082663 0
M  V30 17 N -3.264617 0.763707 -0.855228 0
M  V30 18 C -4.552090 0.507255 -1.398241 0
M  V30 19 C -4.465635 -0.652092 -2.323333 0
M  V30 20 C -4.166990 -0.469261 -3.656818 0
M  V30 21 C -4.081269 -1.519720 -4.547685 0
M  V30 22 C -4.298699 -2.809637 -4.110069 0
M  V30 23 C -4.252996 -4.045982 -4.893693 0
M  V30 24 O -4.463580 -5.219923 -4.435703 0
M  V30 25 O -3.965932 -4.064424 -6.260505 0
M  V30 26 N -4.594968 -3.004428 -2.793980 0
M  V30 27 C -4.676823 -1.977310 -1.932010 0
M  V30 28 C -2.607985 -0.431346 -0.384747 0
M  V30 29 C -1.170014 0.031292 -0.030928 0
M  V30 30 C 4.170554 -0.917606 2.084520 0
M  V30 31 C 3.980324 -0.818645 3.440925 0
M  V30 32 H 5.367396 -1.495969 7.609354 0
M  V30 33 H 5.860431 -2.823817 6.460998 0
M  V30 34 H 6.665129 -1.244054 6.416550 0
M  V30 35 H 6.841875 -2.352339 4.487316 0
M  V30 36 H 7.144637 -2.509625 1.989577 0
M  V30 37 H 5.790016 -1.780907 -0.465719 0
M  V30 38 H 1.439569 0.616923 2.802791 0
M  V30 39 H -0.066684 2.354290 1.169826 0
M  V30 40 H -0.336009 1.872934 2.834624 0
M  V30 41 H -1.452587 -0.224889 2.029159 0
M  V30 42 H -2.353419 2.382900 1.952145 0
M  V30 43 H -3.355321 0.916358 2.009360 0
M  V30 44 H -4.195567 2.231455 0.255162 0
M  V30 45 H -2.587129 2.670112 -0.367156 0
M  V30 46 H -4.946012 1.347848 -2.005393 0
M  V30 47 H -5.342401 0.281172 -0.653368 0
M  V30 48 H -3.983638 0.511092 -4.076211 0
M  V30 49 H -3.852826 -1.454850 -5.601386 0
M  V30 50 H -3.879579 -4.904262 -6.814101 0
M  V30 51 H -4.912459 -2.169992 -0.902032 0
M  V30 52 H -2.495540 -1.170277 -1.170432 0
M  V30 53 H -3.092489 -0.801104 0.531196 0
M  V30 54 H -0.599736 -0.925867 -0.013756 0
M  V30 55 H -0.896035 0.699132 -0.846698 0
M  V30 56 H 3.118083 -0.359316 3.847179 0
M  V30 END ATOM
M  V30 BEGIN BOND
M  V30 1 1 1 2
M  V30 2 1 2 3
M  V30 3 2 3 4
M  V30 4 1 4 5
M  V30 5 2 5 6
M  V30 6 1 6 7
M  V30 7 1 7 8
M  V30 8 2 8 9
M  V30 9 1 9 10
M  V30 10 2 10 11
M  V30 11 1 10 12
M  V30 12 1 12 13
M  V30 13 1 13 14
M  V30 14 1 14 15
M  V30 15 1 15 16
M  V30 16 1 16 17
M  V30 17 1 17 18
M  V30 18 1 18 19
M  V30 19 2 19 20
M  V30 20 1 20 21
M  V30 21 2 21 22
M  V30 22 1 22 23
M  V30 23 2 23 24
M  V30 24 1 23 25
M  V30 25 1 22 26
M  V30 26 2 26 27
M  V30 27 1 17 28
M  V30 28 1 28 29
M  V30 29 1 9 30
M  V30 30 2 30 31
M  V30 31 1 31 3
M  V30 32 1 30 6
M  V30 33 1 29 14
M  V30 34 1 27 19
M  V30 35 1 1 32
M  V30 36 1 1 33
M  V30 37 1 1 34
M  V30 38 1 4 35
M  V30 39 1 5 36
M  V30 40 1 7 37
M  V30 41 1 12 38
M  V30 42 1 13 39
M  V30 43 1 13 40
M  V30 44 1 14 41
M  V30 45 1 15 42
M  V30 46 1 15 43
M  V30 47 1 16 44
M  V30 48 1 16 45
M  V30 49 1 18 46
M  V30 50 1 18 47
M  V30 51 1 20 48
M  V30 52 1 21 49
M  V30 53 1 25 50
M  V30 54 1 27 51
M  V30 55 1 28 52
M  V30 56 1 28 53
M  V30 57 1 29 54
M  V30 58 1 29 55
M  V30 59 1 31 56
M  V30 END BOND
M  V30 END CTAB
M  END
>  <Dataset>  (178) 
ChEMBL_Kinases

>  <Ligand_Instance>  (178) 
nan

>  <PDB_ID>  (178) 
nan

>  <Standardized_SMILES>  (178) 
COc1ccc2[nH]nc(C(=O)NCC3CCN(Cc4ccc(C(=O)O)nc4)CC3)c2c1

>  <Name>  (178) 
nan

>  <Pocket>  (178) 
nan

>  <ATP_Site>  (178) 
nan

>  <Peripheral>  (178) 
nan

>  <Num_H_Atoms_ProtBoundConf>  (178) 
nan

>  <Num_Resolved_Atoms>  (178) 
nan

>  <Num_Not_Resolved_Atoms>  (178) 
nan

$$$$
CHEMBL3735613
     RDKit          3D

  0  0  0  0  0  0  0  0  0  0999 V3000
M  V30 BEGIN CTAB
M  V30 COUNTS 56 59 0 0 0
M  V30 BEGIN ATOM
M  V30 1 C 2.386775 -3.509209 3.023366 0
M  V30 2 C 3.587860 -2.972140 2.235825 0
M  V30 3 O 3.314152 -1.657444 1.794938 0
M  V30 4 C 3.036616 -0.581935 2.604413 0
M  V30 5 O 3.013028 -0.732849 3.869777 0
M  V30 6 C 2.763945 0.749303 2.044724 0
M  V30 7 C 2.475886 1.880488 2.778843 0
M  V30 8 C 2.306946 2.835190 1.795200 0
M  V30 9 C 2.490532 2.280724 0.523165 0
M  V30 10 C 2.397703 2.966670 -0.791557 0
M  V30 11 N 1.084781 2.928993 -1.319214 0
M  V30 12 C 0.066357 3.516438 -0.543118 0
M  V30 13 C -1.289140 2.946090 -0.919560 0
M  V30 14 C -1.262547 1.444742 -0.616191 0
M  V30 15 C -2.551072 0.815359 -1.029813 0
M  V30 16 N -2.614598 -0.608879 -0.781451 0
M  V30 17 C -2.507269 -1.239698 0.463473 0
M  V30 18 O -2.346449 -0.333712 1.330044 0
M  V30 19 C -2.545936 -2.612810 0.878760 0
M  V30 20 N -2.398498 -2.819845 2.206218 0
M  V30 21 N -2.454523 -4.138084 2.445969 0
M  V30 22 C -2.636521 -4.853375 1.325044 0
M  V30 23 C -2.766739 -6.173976 0.955291 0
M  V30 24 C -2.949057 -6.497436 -0.377262 0
M  V30 25 C -2.999055 -5.493875 -1.324832 0
M  V30 26 Br -3.253216 -6.073512 -3.110276 0
M  V30 27 C -2.869797 -4.175109 -0.961002 0
M  V30 28 C -2.690287 -3.873842 0.359244 0
M  V30 29 C -0.110929 0.846454 -1.352396 0
M  V30 30 C 0.714679 1.842455 -2.134449 0
M  V30 31 O 2.759886 1.027925 0.784416 0
M  V30 32 H 2.529271 -3.155541 4.067473 0
M  V30 33 H 2.379315 -4.605041 2.945666 0
M  V30 34 H 1.475440 -3.032228 2.606614 0
M  V30 35 H 4.521800 -3.075007 2.806240 0
M  V30 36 H 3.669338 -3.611473 1.335383 0
M  V30 37 H 2.396523 2.013218 3.849107 0
M  V30 38 H 2.061226 3.886362 2.007767 0
M  V30 39 H 2.776310 4.009307 -0.660793 0
M  V30 40 H 3.120000 2.469176 -1.504944 0
M  V30 41 H 0.059679 4.630102 -0.731437 0
M  V30 42 H 0.253645 3.325643 0.533728 0
M  V30 43 H -2.028586 3.396265 -0.230359 0
M  V30 44 H -1.514758 3.151385 -1.977422 0
M  V30 45 H -1.073304 1.407645 0.496151 0
M  V30 46 H -3.371849 1.293888 -0.418394 0
M  V30 47 H -2.733812 1.058583 -2.077436 0
M  V30 48 H -2.752152 -1.230410 -1.596908 0
M  V30 49 H -2.366741 -4.568307 3.398582 0
M  V30 50 H -2.712906 -6.892911 1.782641 0
M  V30 51 H -3.047268 -7.555024 -0.622364 0
M  V30 52 H -2.914551 -3.442942 -1.719774 0
M  V30 53 H -0.519201 0.141689 -2.121501 0
M  V30 54 H 0.534569 0.310805 -0.623679 0
M  V30 55 H 0.114230 2.207070 -3.014395 0
M  V30 56 H 1.613770 1.328780 -2.564689 0
M  V30 END ATOM
M  V30 BEGIN BOND
M  V30 1 1 1 2
M  V30 2 1 2 3
M  V30 3 1 3 4
M  V30 4 2 4 5
M  V30 5 1 4 6
M  V30 6 2 6 7
M  V30 7 1 7 8
M  V30 8 2 8 9
M  V30 9 1 9 10
M  V30 10 1 10 11
M  V30 11 1 11 12
M  V30 12 1 12 13
M  V30 13 1 13 14
M  V30 14 1 14 15
M  V30 15 1 15 16
M  V30 16 1 16 17
M  V30 17 2 17 18
M  V30 18 1 17 19
M  V30 19 2 19 20
M  V30 20 1 20 21
M  V30 21 1 21 22
M  V30 22 2 22 23
M  V30 23 1 23 24
M  V30 24 2 24 25
M  V30 25 1 25 26
M  V30 26 1 25 27
M  V30 27 2 27 28
M  V30 28 1 14 29
M  V30 29 1 29 30
M  V30 30 1 9 31
M  V30 31 1 31 6
M  V30 32 1 30 11
M  V30 33 1 28 19
M  V30 34 1 28 22
M  V30 35 1 1 32
M  V30 36 1 1 33
M  V30 37 1 1 34
M  V30 38 1 2 35
M  V30 39 1 2 36
M  V30 40 1 7 37
M  V30 41 1 8 38
M  V30 42 1 10 39
M  V30 43 1 10 40
M  V30 44 1 12 41
M  V30 45 1 12 42
M  V30 46 1 13 43
M  V30 47 1 13 44
M  V30 48 1 14 45
M  V30 49 1 15 46
M  V30 50 1 15 47
M  V30 51 1 16 48
M  V30 52 1 21 49
M  V30 53 1 23 50
M  V30 54 1 24 51
M  V30 55 1 27 52
M  V30 56 1 29 53
M  V30 57 1 29 54
M  V30 58 1 30 55
M  V30 59 1 30 56
M  V30 END BOND
M  V30 END CTAB
M  END
>  <Dataset>  (179) 
ChEMBL_Kinases

>  <Ligand_Instance>  (179) 
nan

>  <PDB_ID>  (179) 
nan

>  <Standardized_SMILES>  (179) 
CCOC(=O)c1ccc(CN2CCC(CNC(=O)c3n[nH]c4ccc(Br)cc34)CC2)o1

>  <Name>  (179) 
nan

>  <Pocket>  (179) 
nan

>  <ATP_Site>  (179) 
nan

>  <Peripheral>  (179) 
nan

>  <Num_H_Atoms_ProtBoundConf>  (179) 
nan

>  <Num_Resolved_Atoms>  (179) 
nan

>  <Num_Not_Resolved_Atoms>  (179) 
nan

$$$$
CHEMBL576183
     RDKit          3D

  0  0  0  0  0  0  0  0  0  0999 V3000
M  V30 BEGIN CTAB
M  V30 COUNTS 39 42 0 0 0
M  V30 BEGIN ATOM
M  V30 1 C -2.112812 -6.063938 3.582906 0
M  V30 2 O -1.431844 -4.838991 3.789117 0
M  V30 3 C -0.737922 -4.253935 2.737715 0
M  V30 4 C -0.606463 -4.718636 1.443780 0
M  V30 5 C 0.126156 -4.003257 0.519584 0
M  V30 6 C 0.757883 -2.802408 0.833502 0
M  V30 7 C 1.521183 -2.083249 -0.179244 0
M  V30 8 C 2.431446 -2.644387 -1.070565 0
M  V30 9 O 2.917220 -1.665436 -1.831324 0
M  V30 10 C 2.409407 -0.517988 -1.520158 0
M  V30 11 C 2.606110 0.751549 -2.022930 0
M  V30 12 C 1.914181 1.839133 -1.492824 0
M  V30 13 C 1.041303 1.574292 -0.459055 0
M  V30 14 C 0.300993 2.691938 0.118318 0
M  V30 15 C -0.616245 2.666319 1.148231 0
M  V30 16 C -1.059656 3.956319 1.355636 0
M  V30 17 C -0.373642 4.716829 0.420015 0
M  V30 18 C -0.601584 6.192502 0.345417 0
M  V30 19 O 0.416047 3.952389 -0.291267 0
M  V30 20 C 0.820683 0.315483 0.068038 0
M  V30 21 C 1.517285 -0.735356 -0.475483 0
M  V30 22 C 0.627249 -2.330367 2.138826 0
M  V30 23 C -0.108310 -3.058649 3.047645 0
M  V30 24 H -3.103681 -5.882239 3.117258 0
M  V30 25 H -2.236836 -6.627239 4.535872 0
M  V30 26 H -1.551166 -6.744233 2.909862 0
M  V30 27 H -1.110220 -5.648230 1.246737 0
M  V30 28 H 0.182943 -4.440577 -0.489380 0
M  V30 29 H 2.725985 -3.690654 -1.166142 0
M  V30 30 H 3.306775 0.905579 -2.839676 0
M  V30 31 H 2.107153 2.794333 -1.921333 0
M  V30 32 H -0.887156 1.744167 1.656409 0
M  V30 33 H -1.790071 4.181071 2.121093 0
M  V30 34 H -0.338522 6.632874 1.345619 0
M  V30 35 H -1.662593 6.439496 0.099870 0
M  V30 36 H 0.096399 6.608829 -0.384844 0
M  V30 37 H 0.136950 0.163463 0.865427 0
M  V30 38 H 1.111107 -1.395258 2.408489 0
M  V30 39 H -0.158771 -2.622344 4.034970 0
M  V30 END ATOM
M  V30 BEGIN BOND
M  V30 1 1 1 2
M  V30 2 1 2 3
M  V30 3 2 3 4
M  V30 4 1 4 5
M  V30 5 2 5 6
M  V30 6 1 6 7
M  V30 7 2 7 8
M  V30 8 1 8 9
M  V30 9 1 9 10
M  V30 10 2 10 11
M  V30 11 1 11 12
M  V30 12 2 12 13
M  V30 13 1 13 14
M  V30 14 2 14 15
M  V30 15 1 15 16
M  V30 16 2 16 17
M  V30 17 1 17 18
M  V30 18 1 17 19
M  V30 19 1 13 20
M  V30 20 2 20 21
M  V30 21 1 6 22
M  V30 22 2 22 23
M  V30 23 1 23 3
M  V30 24 1 21 7
M  V30 25 1 21 10
M  V30 26 1 19 14
M  V30 27 1 1 24
M  V30 28 1 1 25
M  V30 29 1 1 26
M  V30 30 1 4 27
M  V30 31 1 5 28
M  V30 32 1 8 29
M  V30 33 1 11 30
M  V30 34 1 12 31
M  V30 35 1 15 32
M  V30 36 1 16 33
M  V30 37 1 18 34
M  V30 38 1 18 35
M  V30 39 1 18 36
M  V30 40 1 20 37
M  V30 41 1 22 38
M  V30 42 1 23 39
M  V30 END BOND
M  V30 END CTAB
M  END
>  <Dataset>  (180) 
ChEMBL_Kinases

>  <Ligand_Instance>  (180) 
nan

>  <PDB_ID>  (180) 
nan

>  <Standardized_SMILES>  (180) 
COc1ccc(-c2coc3ccc(-c4ccc(C)o4)cc23)cc1

>  <Name>  (180) 
nan

>  <Pocket>  (180) 
nan

>  <ATP_Site>  (180) 
nan

>  <Peripheral>  (180) 
nan

>  <Num_H_Atoms_ProtBoundConf>  (180) 
nan

>  <Num_Resolved_Atoms>  (180) 
nan

>  <Num_Not_Resolved_Atoms>  (180) 
nan

$$$$
CHEMBL3735603
     RDKit          3D

  0  0  0  0  0  0  0  0  0  0999 V3000
M  V30 BEGIN CTAB
M  V30 COUNTS 66 70 0 0 0
M  V30 BEGIN ATOM
M  V30 1 C 2.688163 -0.719877 -2.454682 0
M  V30 2 O 3.030731 0.357367 -1.605532 0
M  V30 3 C 4.088920 0.360883 -0.770042 0
M  V30 4 C 5.127511 -0.464970 -0.388723 0
M  V30 5 C 6.126674 -0.240555 0.518120 0
M  V30 6 N 6.104737 0.974078 1.145876 0
M  V30 7 C 5.116217 1.860219 0.837015 0
M  V30 8 C 4.097269 1.602061 -0.104934 0
M  V30 9 C 3.195706 2.777935 -0.171072 0
M  V30 10 C 3.767770 4.040292 -0.308244 0
M  V30 11 C 2.989510 5.172312 -0.358029 0
M  V30 12 C 1.628110 5.011630 -0.267276 0
M  V30 13 N 0.556742 5.816759 -0.259645 0
M  V30 14 N -0.584414 5.137799 -0.131556 0
M  V30 15 C -0.284005 3.806773 -0.047821 0
M  V30 16 C -1.422425 2.928303 0.107758 0
M  V30 17 O -2.571054 3.452857 0.342288 0
M  V30 18 N -1.611025 1.531591 0.064175 0
M  V30 19 C -2.995934 1.225145 0.309730 0
M  V30 20 C -3.114908 -0.291388 0.223266 0
M  V30 21 C -2.254103 -0.996302 1.208112 0
M  V30 22 C -2.656612 -2.489059 1.180783 0
M  V30 23 N -2.392978 -2.996604 -0.114447 0
M  V30 24 C -1.486595 -4.096241 -0.092851 0
M  V30 25 C -1.973722 -5.381801 0.478796 0
M  V30 26 C -2.401864 -5.372594 1.884344 0
M  V30 27 C -1.352385 -5.588865 2.784009 0
M  V30 28 C -1.536114 -5.645202 4.165615 0
M  V30 29 C -2.819816 -5.477484 4.645030 0
M  V30 30 C -3.889372 -5.262571 3.803570 0
M  V30 31 C -3.677365 -5.211654 2.442965 0
M  V30 32 C -1.928971 -2.053036 -1.091588 0
M  V30 33 C -2.764158 -0.790730 -1.158856 0
M  V30 34 C 1.078587 3.763956 -0.133833 0
M  V30 35 C 1.822930 2.611563 -0.080642 0
M  V30 36 H 2.769754 -1.678894 -1.936363 0
M  V30 37 H 1.674200 -0.516212 -2.840896 0
M  V30 38 H 3.359700 -0.672624 -3.362900 0
M  V30 39 H 5.011373 -1.389366 -0.973496 0
M  V30 40 H 6.815928 -1.066560 0.624300 0
M  V30 41 H 5.253585 2.752463 1.420443 0
M  V30 42 H 4.848579 4.133111 -0.376022 0
M  V30 43 H 3.367111 6.177883 -0.461940 0
M  V30 44 H 0.581625 6.862923 -0.343780 0
M  V30 45 H -0.758021 1.009035 -0.133515 0
M  V30 46 H -3.264265 1.518491 1.337916 0
M  V30 47 H -3.711034 1.717067 -0.373958 0
M  V30 48 H -4.177146 -0.598463 0.407709 0
M  V30 49 H -2.417111 -0.632706 2.220121 0
M  V30 50 H -1.173891 -1.048227 0.892739 0
M  V30 51 H -2.030803 -2.920089 1.987816 0
M  V30 52 H -3.750815 -2.561024 1.391881 0
M  V30 53 H -0.521146 -3.788554 0.429982 0
M  V30 54 H -1.112407 -4.348352 -1.132113 0
M  V30 55 H -2.863975 -5.728093 -0.117927 0
M  V30 56 H -1.217496 -6.192105 0.343854 0
M  V30 57 H -0.297325 -5.732751 2.505998 0
M  V30 58 H -0.762887 -5.808987 4.897117 0
M  V30 59 H -3.101381 -5.497478 5.693328 0
M  V30 60 H -4.925088 -5.122153 4.088026 0
M  V30 61 H -4.429335 -5.049083 1.658123 0
M  V30 62 H -0.862193 -1.770959 -0.991903 0
M  V30 63 H -1.989643 -2.564119 -2.090227 0
M  V30 64 H -3.668026 -1.032558 -1.750920 0
M  V30 65 H -2.202826 -0.026516 -1.723824 0
M  V30 66 H 1.409990 1.648009 0.025989 0
M  V30 END ATOM
M  V30 BEGIN BOND
M  V30 1 1 1 2
M  V30 2 1 2 3
M  V30 3 2 3 4
M  V30 4 1 4 5
M  V30 5 2 5 6
M  V30 6 1 6 7
M  V30 7 2 7 8
M  V30 8 1 8 9
M  V30 9 2 9 10
M  V30 10 1 10 11
M  V30 11 2 11 12
M  V30 12 1 12 13
M  V30 13 1 13 14
M  V30 14 2 14 15
M  V30 15 1 15 16
M  V30 16 2 16 17
M  V30 17 1 16 18
M  V30 18 1 18 19
M  V30 19 1 19 20
M  V30 20 1 20 21
M  V30 21 1 21 22
M  V30 22 1 22 23
M  V30 23 1 23 24
M  V30 24 1 24 25
M  V30 25 1 25 26
M  V30 26 2 26 27
M  V30 27 1 27 28
M  V30 28 2 28 29
M  V30 29 1 29 30
M  V30 30 2 30 31
M  V30 31 1 23 32
M  V30 32 1 32 33
M  V30 33 1 15 34
M  V30 34 2 34 35
M  V30 35 1 8 3
M  V30 36 1 35 9
M  V30 37 1 34 12
M  V30 38 1 33 20
M  V30 39 1 31 26
M  V30 40 1 1 36
M  V30 41 1 1 37
M  V30 42 1 1 38
M  V30 43 1 4 39
M  V30 44 1 5 40
M  V30 45 1 7 41
M  V30 46 1 10 42
M  V30 47 1 11 43
M  V30 48 1 13 44
M  V30 49 1 18 45
M  V30 50 1 19 46
M  V30 51 1 19 47
M  V30 52 1 20 48
M  V30 53 1 21 49
M  V30 54 1 21 50
M  V30 55 1 22 51
M  V30 56 1 22 52
M  V30 57 1 24 53
M  V30 58 1 24 54
M  V30 59 1 25 55
M  V30 60 1 25 56
M  V30 61 1 27 57
M  V30 62 1 28 58
M  V30 63 1 29 59
M  V30 64 1 30 60
M  V30 65 1 31 61
M  V30 66 1 32 62
M  V30 67 1 32 63
M  V30 68 1 33 64
M  V30 69 1 33 65
M  V30 70 1 35 66
M  V30 END BOND
M  V30 END CTAB
M  END
>  <Dataset>  (181) 
ChEMBL_Kinases

>  <Ligand_Instance>  (181) 
nan

>  <PDB_ID>  (181) 
nan

>  <Standardized_SMILES>  (181) 
COc1ccncc1-c1ccc2[nH]nc(C(=O)NCC3CCN(CCc4ccccc4)CC3)c2c1

>  <Name>  (181) 
nan

>  <Pocket>  (181) 
nan

>  <ATP_Site>  (181) 
nan

>  <Peripheral>  (181) 
nan

>  <Num_H_Atoms_ProtBoundConf>  (181) 
nan

>  <Num_Resolved_Atoms>  (181) 
nan

>  <Num_Not_Resolved_Atoms>  (181) 
nan

$$$$
CHEMBL3735590
     RDKit          3D

  0  0  0  0  0  0  0  0  0  0999 V3000
M  V30 BEGIN CTAB
M  V30 COUNTS 53 58 0 0 0
M  V30 BEGIN ATOM
M  V30 1 C -0.605486 -1.848100 5.011582 0
M  V30 2 N 0.080621 -3.073794 5.295787 0
M  V30 3 C 1.435317 -2.930379 5.726258 0
M  V30 4 C 2.375027 -2.982597 4.538068 0
M  V30 5 N 1.592744 -2.698388 3.353022 0
M  V30 6 C 1.700958 -1.531684 2.550305 0
M  V30 7 C 2.579727 -0.509060 2.825886 0
M  V30 8 C 2.664283 0.621270 2.020948 0
M  V30 9 C 1.802225 0.627016 0.937926 0
M  V30 10 N 1.656168 1.569917 -0.004207 0
M  V30 11 C 0.696278 1.174781 -0.886844 0
M  V30 12 C 0.129248 1.782760 -2.087442 0
M  V30 13 C 0.831796 2.111422 -3.229883 0
M  V30 14 C 0.227954 2.683269 -4.326618 0
M  V30 15 C -1.131342 2.946885 -4.304419 0
M  V30 16 C -1.837957 2.619173 -3.162079 0
M  V30 17 C -1.234941 2.044037 -2.057299 0
M  V30 18 O -3.174097 2.987895 -3.406520 0
M  V30 19 C -3.361948 3.210044 -4.806736 0
M  V30 20 O -2.038434 3.501453 -5.210315 0
M  V30 21 C 0.249738 -0.058788 -0.451898 0
M  V30 22 C -0.777596 -0.965788 -1.005459 0
M  V30 23 C -1.825321 -1.190054 -0.135704 0
M  V30 24 C -2.859555 -2.030951 -0.544774 0
M  V30 25 N -2.816238 -2.598993 -1.761940 0
M  V30 26 C -1.795660 -2.379276 -2.606620 0
M  V30 27 C -0.748527 -1.561145 -2.260540 0
M  V30 28 N 0.948197 -0.364269 0.667958 0
M  V30 29 N 0.915768 -1.409840 1.469648 0
M  V30 30 C 0.637315 -3.735521 3.015469 0
M  V30 31 C -0.138678 -4.056847 4.273858 0
M  V30 32 H -0.965929 -1.901137 3.953541 0
M  V30 33 H -1.426947 -1.632549 5.735401 0
M  V30 34 H 0.133294 -1.021737 5.045019 0
M  V30 35 H 1.559348 -1.929854 6.201472 0
M  V30 36 H 1.703373 -3.678541 6.504700 0
M  V30 37 H 2.743809 -4.027367 4.420873 0
M  V30 38 H 3.242553 -2.334542 4.663028 0
M  V30 39 H 3.233931 -0.555860 3.682737 0
M  V30 40 H 3.355325 1.440164 2.225756 0
M  V30 41 H 1.886288 1.875840 -3.172874 0
M  V30 42 H 0.808874 2.923013 -5.192817 0
M  V30 43 H -1.871887 1.824075 -1.212166 0
M  V30 44 H -4.072241 4.029124 -5.018736 0
M  V30 45 H -3.642271 2.234641 -5.245489 0
M  V30 46 H -1.904084 -0.753432 0.857253 0
M  V30 47 H -3.686158 -2.211642 0.135825 0
M  V30 48 H -1.708378 -2.815107 -3.610178 0
M  V30 49 H 0.131459 -1.299177 -2.839543 0
M  V30 50 H 1.163623 -4.646782 2.620095 0
M  V30 51 H -0.064016 -3.392512 2.199653 0
M  V30 52 H -1.237312 -4.006764 4.031735 0
M  V30 53 H 0.025831 -5.088288 4.644901 0
M  V30 END ATOM
M  V30 BEGIN BOND
M  V30 1 1 1 2
M  V30 2 1 2 3
M  V30 3 1 3 4
M  V30 4 1 4 5
M  V30 5 1 5 6
M  V30 6 1 6 7
M  V30 7 2 7 8
M  V30 8 1 8 9
M  V30 9 2 9 10
M  V30 10 1 10 11
M  V30 11 1 11 12
M  V30 12 2 12 13
M  V30 13 1 13 14
M  V30 14 2 14 15
M  V30 15 1 15 16
M  V30 16 2 16 17
M  V30 17 1 16 18
M  V30 18 1 18 19
M  V30 19 1 19 20
M  V30 20 2 11 21
M  V30 21 1 21 22
M  V30 22 2 22 23
M  V30 23 1 23 24
M  V30 24 2 24 25
M  V30 25 1 25 26
M  V30 26 2 26 27
M  V30 27 1 21 28
M  V30 28 1 28 29
M  V30 29 1 5 30
M  V30 30 1 30 31
M  V30 31 1 31 2
M  V30 32 2 29 6
M  V30 33 1 28 9
M  V30 34 1 17 12
M  V30 35 1 27 22
M  V30 36 1 20 15
M  V30 37 1 1 32
M  V30 38 1 1 33
M  V30 39 1 1 34
M  V30 40 1 3 35
M  V30 41 1 3 36
M  V30 42 1 4 37
M  V30 43 1 4 38
M  V30 44 1 7 39
M  V30 45 1 8 40
M  V30 46 1 13 41
M  V30 47 1 14 42
M  V30 48 1 17 43
M  V30 49 1 19 44
M  V30 50 1 19 45
M  V30 51 1 23 46
M  V30 52 1 24 47
M  V30 53 1 26 48
M  V30 54 1 27 49
M  V30 55 1 30 50
M  V30 56 1 30 51
M  V30 57 1 31 52
M  V30 58 1 31 53
M  V30 END BOND
M  V30 END CTAB
M  END
>  <Dataset>  (182) 
ChEMBL_Kinases

>  <Ligand_Instance>  (182) 
nan

>  <PDB_ID>  (182) 
nan

>  <Standardized_SMILES>  (182) 
CN1CCN(c2ccc3nc(-c4ccc5c(c4)OCO5)c(-c4ccncc4)n3n2)CC1

>  <Name>  (182) 
nan

>  <Pocket>  (182) 
nan

>  <ATP_Site>  (182) 
nan

>  <Peripheral>  (182) 
nan

>  <Num_H_Atoms_ProtBoundConf>  (182) 
nan

>  <Num_Resolved_Atoms>  (182) 
nan

>  <Num_Not_Resolved_Atoms>  (182) 
nan

$$$$
CHEMBL3735579
     RDKit          3D

  0  0  0  0  0  0  0  0  0  0999 V3000
M  V30 BEGIN CTAB
M  V30 COUNTS 56 59 0 0 0
M  V30 BEGIN ATOM
M  V30 1 C 1.473619 -4.247114 4.281464 0
M  V30 2 O 2.282794 -3.206136 3.782184 0
M  V30 3 C 2.282087 -2.825375 2.468796 0
M  V30 4 O 1.462114 -3.556004 1.858831 0
M  V30 5 C 3.146299 -1.726699 1.980511 0
M  V30 6 C 4.040788 -0.964897 2.767301 0
M  V30 7 S 4.717874 0.143685 1.530095 0
M  V30 8 C 3.680379 -0.597552 0.127036 0
M  V30 9 C 3.837087 -0.029479 -1.233227 0
M  V30 10 N 2.973974 1.040238 -1.555248 0
M  V30 11 C 3.023613 2.200825 -0.785221 0
M  V30 12 C 1.739347 2.892794 -0.475837 0
M  V30 13 C 0.608642 1.944036 -0.804901 0
M  V30 14 C -0.690389 2.630905 -0.487996 0
M  V30 15 N -1.853832 1.849400 -0.750710 0
M  V30 16 C -2.087446 0.591680 -0.103656 0
M  V30 17 O -1.210747 0.208433 0.712286 0
M  V30 18 C -3.292902 -0.160415 -0.412472 0
M  V30 19 N -4.263972 0.201521 -1.275998 0
M  V30 20 N -5.193919 -0.735572 -1.287608 0
M  V30 21 C -4.853988 -1.713834 -0.444455 0
M  V30 22 C -5.519346 -2.874600 -0.141409 0
M  V30 23 C -4.927301 -3.711997 0.776706 0
M  V30 24 C -3.706152 -3.420209 1.388189 0
M  V30 25 O -3.207505 -4.323796 2.287408 0
M  V30 26 C -1.985302 -4.117863 2.954056 0
M  V30 27 C -3.079641 -2.246650 1.051681 0
M  V30 28 C -3.634796 -1.378349 0.138003 0
M  V30 29 C 0.711926 1.677374 -2.291064 0
M  V30 30 C 1.943754 0.834141 -2.478941 0
M  V30 31 N 3.030854 -1.474692 0.671922 0
M  V30 32 H 1.168233 -4.958190 3.470128 0
M  V30 33 H 1.923912 -4.809075 5.105304 0
M  V30 34 H 0.518503 -3.773288 4.620880 0
M  V30 35 H 4.108528 -1.204087 3.849766 0
M  V30 36 H 4.923667 0.231047 -1.383001 0
M  V30 37 H 3.664505 -0.872857 -1.930627 0
M  V30 38 H 3.480797 1.943759 0.214758 0
M  V30 39 H 3.769562 2.915202 -1.243642 0
M  V30 40 H 1.665194 3.236154 0.596271 0
M  V30 41 H 1.623989 3.784847 -1.145700 0
M  V30 42 H 0.786396 1.039993 -0.196203 0
M  V30 43 H -0.680917 3.005115 0.555252 0
M  V30 44 H -0.717668 3.533740 -1.133403 0
M  V30 45 H -2.599717 2.166909 -1.439489 0
M  V30 46 H -6.028272 -0.586037 -1.927047 0
M  V30 47 H -6.465541 -3.117339 -0.604637 0
M  V30 48 H -5.429648 -4.647154 1.042846 0
M  V30 49 H -1.540953 -5.087729 3.282131 0
M  V30 50 H -1.275389 -3.700657 2.183416 0
M  V30 51 H -2.064296 -3.392335 3.774508 0
M  V30 52 H -2.143791 -1.985674 1.496593 0
M  V30 53 H -0.221876 1.168238 -2.598525 0
M  V30 54 H 0.813639 2.677680 -2.773867 0
M  V30 55 H 1.603842 -0.224992 -2.411115 0
M  V30 56 H 2.292895 0.947064 -3.529478 0
M  V30 END ATOM
M  V30 BEGIN BOND
M  V30 1 1 1 2
M  V30 2 1 2 3
M  V30 3 2 3 4
M  V30 4 1 3 5
M  V30 5 2 5 6
M  V30 6 1 6 7
M  V30 7 1 7 8
M  V30 8 1 8 9
M  V30 9 1 9 10
M  V30 10 1 10 11
M  V30 11 1 11 12
M  V30 12 1 12 13
M  V30 13 1 13 14
M  V30 14 1 14 15
M  V30 15 1 15 16
M  V30 16 2 16 17
M  V30 17 1 16 18
M  V30 18 2 18 19
M  V30 19 1 19 20
M  V30 20 1 20 21
M  V30 21 2 21 22
M  V30 22 1 22 23
M  V30 23 2 23 24
M  V30 24 1 24 25
M  V30 25 1 25 26
M  V30 26 1 24 27
M  V30 27 2 27 28
M  V30 28 1 13 29
M  V30 29 1 29 30
M  V30 30 2 8 31
M  V30 31 1 31 5
M  V30 32 1 30 10
M  V30 33 1 28 18
M  V30 34 1 28 21
M  V30 35 1 1 32
M  V30 36 1 1 33
M  V30 37 1 1 34
M  V30 38 1 6 35
M  V30 39 1 9 36
M  V30 40 1 9 37
M  V30 41 1 11 38
M  V30 42 1 11 39
M  V30 43 1 12 40
M  V30 44 1 12 41
M  V30 45 1 13 42
M  V30 46 1 14 43
M  V30 47 1 14 44
M  V30 48 1 15 45
M  V30 49 1 20 46
M  V30 50 1 22 47
M  V30 51 1 23 48
M  V30 52 1 26 49
M  V30 53 1 26 50
M  V30 54 1 26 51
M  V30 55 1 27 52
M  V30 56 1 29 53
M  V30 57 1 29 54
M  V30 58 1 30 55
M  V30 59 1 30 56
M  V30 END BOND
M  V30 END CTAB
M  END
>  <Dataset>  (183) 
ChEMBL_Kinases

>  <Ligand_Instance>  (183) 
nan

>  <PDB_ID>  (183) 
nan

>  <Standardized_SMILES>  (183) 
COC(=O)c1csc(CN2CCC(CNC(=O)c3n[nH]c4ccc(OC)cc34)CC2)n1

>  <Name>  (183) 
nan

>  <Pocket>  (183) 
nan

>  <ATP_Site>  (183) 
nan

>  <Peripheral>  (183) 
nan

>  <Num_H_Atoms_ProtBoundConf>  (183) 
nan

>  <Num_Resolved_Atoms>  (183) 
nan

>  <Num_Not_Resolved_Atoms>  (183) 
nan

$$$$
CHEMBL3735673
     RDKit          3D

  0  0  0  0  0  0  0  0  0  0999 V3000
M  V30 BEGIN CTAB
M  V30 COUNTS 66 70 0 0 0
M  V30 BEGIN ATOM
M  V30 1 O 0.894837 0.006261 -2.212361 0
M  V30 2 C 1.461790 -1.107014 -2.375774 0
M  V30 3 N 1.689426 -1.950149 -1.253083 0
M  V30 4 C 1.245095 -1.458351 0.016024 0
M  V30 5 N 1.901766 -0.723977 0.915546 0
M  V30 6 C 1.104291 -0.475202 1.988057 0
M  V30 7 C 1.285839 0.218183 3.167624 0
M  V30 8 C 0.278997 0.328081 4.134095 0
M  V30 9 C 0.651853 1.105077 5.340348 0
M  V30 10 N 0.377358 2.493249 5.229993 0
M  V30 11 C 1.003110 3.171284 4.148239 0
M  V30 12 C 0.446375 4.579880 4.022175 0
M  V30 13 C -1.008087 4.529703 3.584937 0
M  V30 14 C -1.585169 3.156547 3.895741 0
M  V30 15 C -1.036148 2.742440 5.242646 0
M  V30 16 C -0.910521 -0.299110 3.839331 0
M  V30 17 C -1.090764 -0.991488 2.660651 0
M  V30 18 C -0.094565 -1.098440 1.707478 0
M  V30 19 N -0.006398 -1.696721 0.505658 0
M  V30 20 C -1.053189 -2.451364 -0.138169 0 CFG=1
M  V30 21 C -1.329298 -3.760993 0.582951 0
M  V30 22 C -2.129622 -4.614807 -0.377731 0
M  V30 23 C -3.213605 -3.808051 -1.066561 0 CFG=2
M  V30 24 O -2.722693 -3.374288 -2.278438 0
M  V30 25 C -3.551889 -2.570812 -0.233378 0
M  V30 26 C -2.318316 -1.669323 -0.371698 0
M  V30 27 C 1.862846 -1.482760 -3.726899 0
M  V30 28 C 1.587516 -0.593044 -4.745136 0
M  V30 29 C 1.940763 -0.880963 -6.066299 0
M  V30 30 C 2.579177 -2.070130 -6.395548 0
M  V30 31 C 2.819793 -2.909933 -5.313924 0
M  V30 32 N 3.476272 -4.139793 -5.627041 0 CHG=1 VAL=4
M  V30 33 O 3.769436 -5.009296 -4.781742 0
M  V30 34 O 3.893517 -4.585982 -6.859301 0 CHG=-1 VAL=1
M  V30 35 C 2.486322 -2.656476 -4.010344 0
M  V30 36 H 2.153180 -2.870004 -1.359635 0
M  V30 37 H 2.283209 0.664698 3.266950 0
M  V30 38 H 1.750115 0.962855 5.561015 0
M  V30 39 H 0.135557 0.622388 6.207702 0
M  V30 40 H 2.089121 3.280194 4.361724 0
M  V30 41 H 0.946672 2.647512 3.172553 0
M  V30 42 H 0.996984 5.172037 3.266437 0
M  V30 43 H 0.521795 5.128996 4.981270 0
M  V30 44 H -1.045015 4.664225 2.504369 0
M  V30 45 H -1.564819 5.277288 4.151933 0
M  V30 46 H -1.275503 2.476719 3.104769 0
M  V30 47 H -2.676572 3.296810 4.014643 0
M  V30 48 H -1.594909 1.901459 5.709780 0
M  V30 49 H -1.181820 3.604271 5.964337 0
M  V30 50 H -1.669400 -0.201107 4.602071 0
M  V30 51 H -2.060359 -1.456160 2.509069 0
M  V30 52 H -0.696251 -2.759233 -1.146380 0
M  V30 53 H -1.891391 -3.648240 1.507301 0
M  V30 54 H -0.341003 -4.229304 0.735246 0
M  V30 55 H -1.487036 -5.084632 -1.154245 0
M  V30 56 H -2.645343 -5.416297 0.190351 0
M  V30 57 H -4.150131 -4.369559 -1.189591 0
M  V30 58 H -3.308888 -3.712351 -3.004309 0
M  V30 59 H -3.666329 -2.808809 0.832639 0
M  V30 60 H -4.392733 -2.078165 -0.717528 0
M  V30 61 H -2.391629 -1.296896 -1.433627 0
M  V30 62 H -2.400252 -0.751570 0.240405 0
M  V30 63 H 1.093645 0.352298 -4.567474 0
M  V30 64 H 1.731119 -0.189064 -6.886231 0
M  V30 65 H 2.873323 -2.340550 -7.400656 0
M  V30 66 H 2.715330 -3.366350 -3.255721 0
M  V30 END ATOM
M  V30 BEGIN BOND
M  V30 1 2 1 2
M  V30 2 1 2 3
M  V30 3 1 3 4
M  V30 4 2 4 5
M  V30 5 1 5 6
M  V30 6 2 6 7
M  V30 7 1 7 8
M  V30 8 1 8 9
M  V30 9 1 9 10
M  V30 10 1 10 11
M  V30 11 1 11 12
M  V30 12 1 12 13
M  V30 13 1 13 14
M  V30 14 1 14 15
M  V30 15 2 8 16
M  V30 16 1 16 17
M  V30 17 2 17 18
M  V30 18 1 18 19
M  V30 19 1 19 20
M  V30 20 1 20 21
M  V30 21 1 21 22
M  V30 22 1 22 23
M  V30 23 1 23 24
M  V30 24 1 23 25
M  V30 25 1 25 26
M  V30 26 1 2 27
M  V30 27 2 27 28
M  V30 28 1 28 29
M  V30 29 2 29 30
M  V30 30 1 30 31
M  V30 31 1 31 32
M  V30 32 2 32 33
M  V30 33 1 32 34
M  V30 34 2 31 35
M  V30 35 1 19 4
M  V30 36 1 26 20
M  V30 37 1 35 27
M  V30 38 1 18 6
M  V30 39 1 15 10
M  V30 40 1 3 36
M  V30 41 1 7 37
M  V30 42 1 9 38
M  V30 43 1 9 39
M  V30 44 1 11 40
M  V30 45 1 11 41
M  V30 46 1 12 42
M  V30 47 1 12 43
M  V30 48 1 13 44
M  V30 49 1 13 45
M  V30 50 1 14 46
M  V30 51 1 14 47
M  V30 52 1 15 48
M  V30 53 1 15 49
M  V30 54 1 16 50
M  V30 55 1 17 51
M  V30 56 1 20 52 CFG=3
M  V30 57 1 21 53
M  V30 58 1 21 54
M  V30 59 1 22 55
M  V30 60 1 22 56
M  V30 61 1 23 57 CFG=3
M  V30 62 1 24 58
M  V30 63 1 25 59
M  V30 64 1 25 60
M  V30 65 1 26 61
M  V30 66 1 26 62
M  V30 67 1 28 63
M  V30 68 1 29 64
M  V30 69 1 30 65
M  V30 70 1 35 66
M  V30 END BOND
M  V30 END CTAB
M  END
>  <Dataset>  (184) 
ChEMBL_Kinases

>  <Ligand_Instance>  (184) 
nan

>  <PDB_ID>  (184) 
nan

>  <Standardized_SMILES>  (184) 
O=C(Nc1nc2cc(CN3CCCCC3)ccc2n1[C@H]1CC[C@H](O)CC1)c1cccc([N+](=O)[O-])c1

>  <Name>  (184) 
nan

>  <Pocket>  (184) 
nan

>  <ATP_Site>  (184) 
nan

>  <Peripheral>  (184) 
nan

>  <Num_H_Atoms_ProtBoundConf>  (184) 
nan

>  <Num_Resolved_Atoms>  (184) 
nan

>  <Num_Not_Resolved_Atoms>  (184) 
nan

$$$$
CHEMBL3736216
     RDKit          3D

  0  0  0  0  0  0  0  0  0  0999 V3000
M  V30 BEGIN CTAB
M  V30 COUNTS 58 61 0 0 0
M  V30 BEGIN ATOM
M  V30 1 C 2.159404 2.450192 6.333281 0
M  V30 2 O 3.370000 1.740917 6.507959 0
M  V30 3 C 3.981515 1.074358 5.464631 0
M  V30 4 C 5.167316 0.423584 5.796386 0
M  V30 5 C 5.884359 -0.285585 4.837823 0
M  V30 6 C 5.385660 -0.317730 3.575003 0
M  V30 7 N 5.745529 -0.858198 2.410265 0
M  V30 8 N 4.889217 -0.590300 1.425417 0
M  V30 9 C 3.878123 0.176926 1.927036 0
M  V30 10 C 2.855505 0.566102 0.997697 0
M  V30 11 O 2.979483 0.193624 -0.214204 0
M  V30 12 N 1.670771 1.305452 1.095853 0
M  V30 13 C 0.732903 1.610202 0.039176 0
M  V30 14 C 0.111817 0.389165 -0.595835 0
M  V30 15 C -0.645895 -0.432534 0.412716 0
M  V30 16 C -2.104233 -0.492749 0.160505 0
M  V30 17 N -2.482360 -0.879224 -1.178745 0
M  V30 18 C -3.883483 -0.869412 -1.390758 0
M  V30 19 C -4.354296 -1.368399 -2.726439 0
M  V30 20 C -4.000437 -2.762197 -3.011328 0
M  V30 21 C -2.933210 -3.322449 -3.670548 0
M  V30 22 C -2.800018 -4.687975 -3.804581 0
M  V30 23 C -3.716265 -5.588731 -3.294149 0
M  V30 24 O -3.436247 -6.921587 -3.514240 0
M  V30 25 C -4.797757 -5.059272 -2.628050 0
M  V30 26 C -4.915932 -3.694159 -2.502782 0
M  V30 27 C -1.706060 -0.245371 -2.197385 0
M  V30 28 C -0.783995 0.852231 -1.722989 0
M  V30 29 C 4.217063 0.323381 3.247966 0
M  V30 30 C 3.512487 1.018144 4.182397 0
M  V30 31 H 2.233503 3.258727 5.578876 0
M  V30 32 H 1.383065 1.730955 5.963979 0
M  V30 33 H 1.846492 2.909589 7.277793 0
M  V30 34 H 5.564744 0.446814 6.793137 0
M  V30 35 H 6.803473 -0.799379 5.060230 0
M  V30 36 H 6.611015 -1.445329 2.238594 0
M  V30 37 H 1.468236 1.661227 2.048330 0
M  V30 38 H -0.039042 2.321147 0.412508 0
M  V30 39 H 1.313480 2.205552 -0.722266 0
M  V30 40 H 0.886518 -0.234804 -1.054314 0
M  V30 41 H -0.185214 -1.434142 0.522467 0
M  V30 42 H -0.512221 0.065901 1.416181 0
M  V30 43 H -2.624066 0.455436 0.395426 0
M  V30 44 H -2.536347 -1.258410 0.851197 0
M  V30 45 H -4.261196 0.188522 -1.286071 0
M  V30 46 H -4.400288 -1.484767 -0.612511 0
M  V30 47 H -3.990937 -0.757067 -3.587921 0
M  V30 48 H -5.480856 -1.255226 -2.799978 0
M  V30 49 H -2.243323 -2.598164 -4.062970 0
M  V30 50 H -1.898700 -4.956136 -4.352808 0
M  V30 51 H -2.497253 -7.257167 -3.246208 0
M  V30 52 H -5.502594 -5.763851 -2.236137 0
M  V30 53 H -5.816860 -3.403926 -1.953885 0
M  V30 54 H -1.130819 -1.022559 -2.735633 0
M  V30 55 H -2.385915 0.229199 -2.924749 0
M  V30 56 H -1.321270 1.777094 -1.440282 0
M  V30 57 H -0.124032 1.108596 -2.576542 0
M  V30 58 H 2.604050 1.525912 3.958745 0
M  V30 END ATOM
M  V30 BEGIN BOND
M  V30 1 1 1 2
M  V30 2 1 2 3
M  V30 3 2 3 4
M  V30 4 1 4 5
M  V30 5 2 5 6
M  V30 6 1 6 7
M  V30 7 1 7 8
M  V30 8 2 8 9
M  V30 9 1 9 10
M  V30 10 2 10 11
M  V30 11 1 10 12
M  V30 12 1 12 13
M  V30 13 1 13 14
M  V30 14 1 14 15
M  V30 15 1 15 16
M  V30 16 1 16 17
M  V30 17 1 17 18
M  V30 18 1 18 19
M  V30 19 1 19 20
M  V30 20 2 20 21
M  V30 21 1 21 22
M  V30 22 2 22 23
M  V30 23 1 23 24
M  V30 24 1 23 25
M  V30 25 2 25 26
M  V30 26 1 17 27
M  V30 27 1 27 28
M  V30 28 1 9 29
M  V30 29 2 29 30
M  V30 30 1 30 3
M  V30 31 1 29 6
M  V30 32 1 28 14
M  V30 33 1 26 20
M  V30 34 1 1 31
M  V30 35 1 1 32
M  V30 36 1 1 33
M  V30 37 1 4 34
M  V30 38 1 5 35
M  V30 39 1 7 36
M  V30 40 1 12 37
M  V30 41 1 13 38
M  V30 42 1 13 39
M  V30 43 1 14 40
M  V30 44 1 15 41
M  V30 45 1 15 42
M  V30 46 1 16 43
M  V30 47 1 16 44
M  V30 48 1 18 45
M  V30 49 1 18 46
M  V30 50 1 19 47
M  V30 51 1 19 48
M  V30 52 1 21 49
M  V30 53 1 22 50
M  V30 54 1 24 51
M  V30 55 1 25 52
M  V30 56 1 26 53
M  V30 57 1 27 54
M  V30 58 1 27 55
M  V30 59 1 28 56
M  V30 60 1 28 57
M  V30 61 1 30 58
M  V30 END BOND
M  V30 END CTAB
M  END
>  <Dataset>  (185) 
ChEMBL_Kinases

>  <Ligand_Instance>  (185) 
nan

>  <PDB_ID>  (185) 
nan

>  <Standardized_SMILES>  (185) 
COc1ccc2[nH]nc(C(=O)NCC3CCN(CCc4ccc(O)cc4)CC3)c2c1

>  <Name>  (185) 
nan

>  <Pocket>  (185) 
nan

>  <ATP_Site>  (185) 
nan

>  <Peripheral>  (185) 
nan

>  <Num_H_Atoms_ProtBoundConf>  (185) 
nan

>  <Num_Resolved_Atoms>  (185) 
nan

>  <Num_Not_Resolved_Atoms>  (185) 
nan

$$$$
CHEMBL3736215
     RDKit          3D

  0  0  0  0  0  0  0  0  0  0999 V3000
M  V30 BEGIN CTAB
M  V30 COUNTS 63 67 0 0 0
M  V30 BEGIN ATOM
M  V30 1 O 0.434168 -2.343012 1.782532 0
M  V30 2 C 1.239462 -2.895153 0.995025 0
M  V30 3 N 2.583317 -2.576359 1.270548 0
M  V30 4 C 3.474990 -1.841155 2.112803 0
M  V30 5 C 3.380667 -0.358393 2.110162 0
M  V30 6 C 3.600367 0.244012 0.737116 0
M  V30 7 C 2.297305 0.582712 0.047469 0
M  V30 8 N 1.503352 1.490948 0.812245 0
M  V30 9 C 0.104081 1.474959 0.540709 0
M  V30 10 C -0.199381 2.023795 -0.836431 0
M  V30 11 C 0.225690 3.411601 -1.028978 0
M  V30 12 C -0.708292 4.400187 -0.690380 0
M  V30 13 C -0.465487 5.763667 -0.815471 0
M  V30 14 C 0.734342 6.191008 -1.289412 0
M  V30 15 C 1.686603 5.243502 -1.636023 0
M  V30 16 C 1.425147 3.896537 -1.504049 0
M  V30 17 C 1.836624 1.607716 2.191106 0
M  V30 18 C 2.286598 0.299012 2.838850 0
M  V30 19 C 0.792404 -3.767234 -0.079488 0
M  V30 20 N 1.534323 -4.416763 -1.022603 0
M  V30 21 N 0.722097 -5.116638 -1.826474 0
M  V30 22 C -0.538374 -4.916729 -1.399812 0
M  V30 23 C -1.786725 -5.350646 -1.798333 0
M  V30 24 C -2.972035 -5.001395 -1.184856 0
M  V30 25 C -2.909618 -4.150247 -0.084266 0
M  V30 26 C -4.182897 -3.794151 0.557369 0
M  V30 27 C -4.075787 -3.892789 1.931828 0
M  V30 28 C -5.191099 -3.595659 2.725836 0
M  V30 29 C -6.392677 -3.204822 2.124537 0
M  V30 30 C -6.415028 -3.131196 0.749850 0
M  V30 31 C -5.347082 -3.413098 -0.072886 0
M  V30 32 F -5.310920 -3.358984 -1.407058 0
M  V30 33 C -1.688872 -3.684908 0.358330 0
M  V30 34 C -0.535079 -4.063145 -0.288995 0
M  V30 35 H 3.166520 -3.107834 0.535744 0
M  V30 36 H 4.527147 -2.200117 2.002107 0
M  V30 37 H 3.245218 -2.141926 3.190286 0
M  V30 38 H 4.351761 -0.027885 2.667105 0
M  V30 39 H 4.190237 1.195526 0.793692 0
M  V30 40 H 4.166810 -0.402229 0.053647 0
M  V30 41 H 1.695194 -0.317488 -0.192803 0
M  V30 42 H 2.606231 0.976474 -0.960183 0
M  V30 43 H -0.388481 2.159842 1.288367 0
M  V30 44 H -0.315535 0.455376 0.655276 0
M  V30 45 H -1.297021 1.946106 -0.981533 0
M  V30 46 H 0.238268 1.348105 -1.619877 0
M  V30 47 H -1.681178 4.145066 -0.309080 0
M  V30 48 H -1.193325 6.497713 -0.550018 0
M  V30 49 H 1.057409 7.211918 -1.439061 0
M  V30 50 H 2.672815 5.491116 -2.023662 0
M  V30 51 H 2.144752 3.163897 -1.766856 0
M  V30 52 H 2.618481 2.375016 2.377504 0
M  V30 53 H 0.925855 1.932255 2.765196 0
M  V30 54 H 1.391657 -0.288819 3.068646 0
M  V30 55 H 2.639789 0.642102 3.870543 0
M  V30 56 H 0.992599 -5.714378 -2.641397 0
M  V30 57 H -1.816852 -6.020562 -2.667414 0
M  V30 58 H -3.928741 -5.364382 -1.530732 0
M  V30 59 H -3.229688 -4.176497 2.538014 0
M  V30 60 H -5.249410 -3.631037 3.805360 0
M  V30 61 H -7.280567 -2.965976 2.713716 0
M  V30 62 H -7.331925 -2.830833 0.255436 0
M  V30 63 H -1.715667 -3.040300 1.201470 0
M  V30 END ATOM
M  V30 BEGIN BOND
M  V30 1 2 1 2
M  V30 2 1 2 3
M  V30 3 1 3 4
M  V30 4 1 4 5
M  V30 5 1 5 6
M  V30 6 1 6 7
M  V30 7 1 7 8
M  V30 8 1 8 9
M  V30 9 1 9 10
M  V30 10 1 10 11
M  V30 11 2 11 12
M  V30 12 1 12 13
M  V30 13 2 13 14
M  V30 14 1 14 15
M  V30 15 2 15 16
M  V30 16 1 8 17
M  V30 17 1 17 18
M  V30 18 1 2 19
M  V30 19 2 19 20
M  V30 20 1 20 21
M  V30 21 1 21 22
M  V30 22 2 22 23
M  V30 23 1 23 24
M  V30 24 2 24 25
M  V30 25 1 25 26
M  V30 26 2 26 27
M  V30 27 1 27 28
M  V30 28 2 28 29
M  V30 29 1 29 30
M  V30 30 2 30 31
M  V30 31 1 31 32
M  V30 32 1 25 33
M  V30 33 2 33 34
M  V30 34 1 18 5
M  V30 35 1 34 19
M  V30 36 1 16 11
M  V30 37 1 34 22
M  V30 38 1 31 26
M  V30 39 1 3 35
M  V30 40 1 4 36
M  V30 41 1 4 37
M  V30 42 1 5 38
M  V30 43 1 6 39
M  V30 44 1 6 40
M  V30 45 1 7 41
M  V30 46 1 7 42
M  V30 47 1 9 43
M  V30 48 1 9 44
M  V30 49 1 10 45
M  V30 50 1 10 46
M  V30 51 1 12 47
M  V30 52 1 13 48
M  V30 53 1 14 49
M  V30 54 1 15 50
M  V30 55 1 16 51
M  V30 56 1 17 52
M  V30 57 1 17 53
M  V30 58 1 18 54
M  V30 59 1 18 55
M  V30 60 1 21 56
M  V30 61 1 23 57
M  V30 62 1 24 58
M  V30 63 1 27 59
M  V30 64 1 28 60
M  V30 65 1 29 61
M  V30 66 1 30 62
M  V30 67 1 33 63
M  V30 END BOND
M  V30 END CTAB
M  END
>  <Dataset>  (186) 
ChEMBL_Kinases

>  <Ligand_Instance>  (186) 
nan

>  <PDB_ID>  (186) 
nan

>  <Standardized_SMILES>  (186) 
O=C(NCC1CCN(CCc2ccccc2)CC1)c1n[nH]c2ccc(-c3ccccc3F)cc12

>  <Name>  (186) 
nan

>  <Pocket>  (186) 
nan

>  <ATP_Site>  (186) 
nan

>  <Peripheral>  (186) 
nan

>  <Num_H_Atoms_ProtBoundConf>  (186) 
nan

>  <Num_Resolved_Atoms>  (186) 
nan

>  <Num_Not_Resolved_Atoms>  (186) 
nan

$$$$
CHEMBL3736196
     RDKit          3D

  0  0  0  0  0  0  0  0  0  0999 V3000
M  V30 BEGIN CTAB
M  V30 COUNTS 61 64 0 0 0
M  V30 BEGIN ATOM
M  V30 1 C 1.611032 2.662529 8.014443 0
M  V30 2 O 1.617956 1.246442 7.810454 0
M  V30 3 C 2.105022 0.710238 6.622530 0
M  V30 4 C 2.586118 1.555493 5.631220 0
M  V30 5 C 3.071242 1.041367 4.450396 0
M  V30 6 C 3.081717 -0.322360 4.245203 0
M  V30 7 C 3.561624 -1.057340 3.033607 0
M  V30 8 C 2.456368 -1.282813 2.028339 0
M  V30 9 N 1.856085 -0.136893 1.518603 0
M  V30 10 C 2.571943 0.712694 0.674160 0
M  V30 11 C 1.696435 1.506407 -0.238336 0
M  V30 12 C 0.522352 0.769319 -0.785925 0
M  V30 13 C 0.879570 -0.129476 -1.952198 0
M  V30 14 N -0.350812 -0.767959 -2.364604 0
M  V30 15 C -0.266152 -1.653328 -3.450008 0
M  V30 16 O 0.965314 -1.647706 -3.799849 0
M  V30 17 C -1.182537 -2.485425 -4.183447 0
M  V30 18 N -0.670051 -3.171970 -5.222720 0
M  V30 19 N -1.647703 -3.888845 -5.790810 0
M  V30 20 C -2.825296 -3.715002 -5.169573 0
M  V30 21 C -4.114906 -4.175747 -5.306862 0
M  V30 22 C -5.082266 -3.721886 -4.402803 0
M  V30 23 C -4.751645 -2.830481 -3.393322 0
M  V30 24 O -5.700599 -2.378177 -2.496759 0
M  V30 25 C -7.030981 -2.811956 -2.585799 0
M  V30 26 C -3.450472 -2.394769 -3.291693 0
M  V30 27 C -2.508860 -2.829754 -4.163488 0
M  V30 28 C -0.229913 -0.009138 0.238341 0
M  V30 29 C 0.454742 0.003350 1.597095 0
M  V30 30 C 2.592566 -1.116137 5.261967 0
M  V30 31 C 2.089898 -0.667738 6.474401 0
M  V30 32 H 1.034747 3.173851 7.222250 0
M  V30 33 H 2.645764 3.058837 8.008122 0
M  V30 34 H 1.181984 2.872677 9.015156 0
M  V30 35 H 2.584017 2.625123 5.778950 0
M  V30 36 H 3.462897 1.630585 3.634314 0
M  V30 37 H 4.386538 -0.466526 2.539337 0
M  V30 38 H 4.007094 -2.028495 3.327214 0
M  V30 39 H 1.751485 -2.007032 2.459470 0
M  V30 40 H 2.952661 -1.836044 1.177281 0
M  V30 41 H 3.162428 1.445696 1.276450 0
M  V30 42 H 3.294289 0.152326 0.025833 0
M  V30 43 H 1.293385 2.362066 0.364804 0
M  V30 44 H 2.268164 1.955195 -1.077486 0
M  V30 45 H -0.156602 1.558404 -1.230630 0
M  V30 46 H 1.706506 -0.819917 -1.746805 0
M  V30 47 H 1.202803 0.525230 -2.794845 0
M  V30 48 H -1.311672 -0.678140 -1.984297 0
M  V30 49 H -1.494840 -4.503959 -6.618596 0
M  V30 50 H -4.326332 -4.870629 -6.109361 0
M  V30 51 H -6.075149 -4.094886 -4.532418 0
M  V30 52 H -7.597796 -2.595956 -1.643741 0
M  V30 53 H -7.596183 -2.327172 -3.419675 0
M  V30 54 H -7.024001 -3.931304 -2.735832 0
M  V30 55 H -3.226217 -1.706336 -2.500072 0
M  V30 56 H -0.334886 -1.083638 -0.086273 0
M  V30 57 H -1.267484 0.363220 0.357720 0
M  V30 58 H 0.225468 0.941867 2.156434 0
M  V30 59 H 0.021002 -0.828621 2.178741 0
M  V30 60 H 2.572508 -2.213270 5.162363 0
M  V30 61 H 1.721817 -1.346709 7.228456 0
M  V30 END ATOM
M  V30 BEGIN BOND
M  V30 1 1 1 2
M  V30 2 1 2 3
M  V30 3 2 3 4
M  V30 4 1 4 5
M  V30 5 2 5 6
M  V30 6 1 6 7
M  V30 7 1 7 8
M  V30 8 1 8 9
M  V30 9 1 9 10
M  V30 10 1 10 11
M  V30 11 1 11 12
M  V30 12 1 12 13
M  V30 13 1 13 14
M  V30 14 1 14 15
M  V30 15 2 15 16
M  V30 16 1 15 17
M  V30 17 2 17 18
M  V30 18 1 18 19
M  V30 19 1 19 20
M  V30 20 2 20 21
M  V30 21 1 21 22
M  V30 22 2 22 23
M  V30 23 1 23 24
M  V30 24 1 24 25
M  V30 25 1 23 26
M  V30 26 2 26 27
M  V30 27 1 12 28
M  V30 28 1 28 29
M  V30 29 1 6 30
M  V30 30 2 30 31
M  V30 31 1 31 3
M  V30 32 1 29 9
M  V30 33 1 27 17
M  V30 34 1 27 20
M  V30 35 1 1 32
M  V30 36 1 1 33
M  V30 37 1 1 34
M  V30 38 1 4 35
M  V30 39 1 5 36
M  V30 40 1 7 37
M  V30 41 1 7 38
M  V30 42 1 8 39
M  V30 43 1 8 40
M  V30 44 1 10 41
M  V30 45 1 10 42
M  V30 46 1 11 43
M  V30 47 1 11 44
M  V30 48 1 12 45
M  V30 49 1 13 46
M  V30 50 1 13 47
M  V30 51 1 14 48
M  V30 52 1 19 49
M  V30 53 1 21 50
M  V30 54 1 22 51
M  V30 55 1 25 52
M  V30 56 1 25 53
M  V30 57 1 25 54
M  V30 58 1 26 55
M  V30 59 1 28 56
M  V30 60 1 28 57
M  V30 61 1 29 58
M  V30 62 1 29 59
M  V30 63 1 30 60
M  V30 64 1 31 61
M  V30 END BOND
M  V30 END CTAB
M  END
>  <Dataset>  (187) 
ChEMBL_Kinases

>  <Ligand_Instance>  (187) 
nan

>  <PDB_ID>  (187) 
nan

>  <Standardized_SMILES>  (187) 
COc1ccc(CCN2CCC(CNC(=O)c3n[nH]c4ccc(OC)cc34)CC2)cc1

>  <Name>  (187) 
nan

>  <Pocket>  (187) 
nan

>  <ATP_Site>  (187) 
nan

>  <Peripheral>  (187) 
nan

>  <Num_H_Atoms_ProtBoundConf>  (187) 
nan

>  <Num_Resolved_Atoms>  (187) 
nan

>  <Num_Not_Resolved_Atoms>  (187) 
nan

$$$$
CHEMBL3736167
     RDKit          3D

  0  0  0  0  0  0  0  0  0  0999 V3000
M  V30 BEGIN CTAB
M  V30 COUNTS 53 56 0 0 0
M  V30 BEGIN ATOM
M  V30 1 O 3.557484 -5.654275 3.323906 0
M  V30 2 C 2.399414 -5.128627 3.212116 0
M  V30 3 O 1.431486 -5.428545 4.162074 0
M  V30 4 C 2.016782 -4.191835 2.097900 0
M  V30 5 N 3.093112 -3.962287 1.195561 0
M  V30 6 C 4.206162 -3.231488 1.680725 0
M  V30 7 C 4.115265 -1.757731 1.601895 0
M  V30 8 C 2.774589 -1.204063 1.258090 0
M  V30 9 C 2.885186 0.188689 0.621354 0
M  V30 10 N 1.531556 0.621537 0.331482 0
M  V30 11 C 1.345083 1.880873 -0.262314 0
M  V30 12 O 2.504239 2.371738 -0.410854 0
M  V30 13 C 0.191772 2.628771 -0.685010 0
M  V30 14 N 0.455054 3.845104 -1.215809 0
M  V30 15 N -0.702853 4.421669 -1.562500 0
M  V30 16 C -1.762816 3.645307 -1.289831 0
M  V30 17 C -3.134240 3.685424 -1.410276 0
M  V30 18 C -3.926400 2.614534 -0.985066 0
M  V30 19 C -3.280048 1.505058 -0.435126 0
M  V30 20 C -4.110986 0.389279 0.007934 0
M  V30 21 C -5.141948 -0.031131 -0.841401 0
M  V30 22 C -5.974710 -1.093861 -0.476562 0
M  V30 23 C -5.774401 -1.729786 0.731295 0
M  V30 24 C -4.754438 -1.320274 1.581031 0
M  V30 25 F -4.621218 -1.987253 2.739083 0
M  V30 26 C -3.941141 -0.266746 1.201964 0
M  V30 27 F -2.947231 0.133649 2.028176 0
M  V30 28 C -1.909023 1.460725 -0.312850 0
M  V30 29 C -1.173301 2.527820 -0.740483 0
M  V30 30 C 1.924885 -2.054053 0.397246 0
M  V30 31 C 2.601646 -3.334152 -0.013684 0
M  V30 32 H 1.656073 -5.785135 5.084245 0
M  V30 33 H 1.248118 -4.776528 1.518102 0
M  V30 34 H 1.585113 -3.313490 2.585108 0
M  V30 35 H 4.414856 -3.562533 2.736791 0
M  V30 36 H 5.102713 -3.584612 1.117672 0
M  V30 37 H 4.834846 -1.365650 0.852242 0
M  V30 38 H 4.496708 -1.327978 2.573295 0
M  V30 39 H 2.251806 -1.037781 2.232987 0
M  V30 40 H 3.489874 0.170089 -0.288145 0
M  V30 41 H 3.271885 0.852128 1.424954 0
M  V30 42 H 0.662936 0.092803 0.518060 0
M  V30 43 H -0.780100 5.368109 -1.996232 0
M  V30 44 H -3.563370 4.596682 -1.854286 0
M  V30 45 H -5.004058 2.700064 -1.104050 0
M  V30 46 H -5.268595 0.497574 -1.790141 0
M  V30 47 H -6.728491 -1.320978 -1.214421 0
M  V30 48 H -6.472062 -2.520533 0.891891 0
M  V30 49 H -1.469374 0.585667 0.115229 0
M  V30 50 H 1.673653 -1.528292 -0.556102 0
M  V30 51 H 0.934583 -2.232499 0.873806 0
M  V30 52 H 1.888275 -3.990915 -0.557289 0
M  V30 53 H 3.481715 -3.074241 -0.626180 0
M  V30 END ATOM
M  V30 BEGIN BOND
M  V30 1 2 1 2
M  V30 2 1 2 3
M  V30 3 1 2 4
M  V30 4 1 4 5
M  V30 5 1 5 6
M  V30 6 1 6 7
M  V30 7 1 7 8
M  V30 8 1 8 9
M  V30 9 1 9 10
M  V30 10 1 10 11
M  V30 11 2 11 12
M  V30 12 1 11 13
M  V30 13 2 13 14
M  V30 14 1 14 15
M  V30 15 1 15 16
M  V30 16 2 16 17
M  V30 17 1 17 18
M  V30 18 2 18 19
M  V30 19 1 19 20
M  V30 20 2 20 21
M  V30 21 1 21 22
M  V30 22 2 22 23
M  V30 23 1 23 24
M  V30 24 1 24 25
M  V30 25 2 24 26
M  V30 26 1 26 27
M  V30 27 1 19 28
M  V30 28 2 28 29
M  V30 29 1 8 30
M  V30 30 1 30 31
M  V30 31 1 31 5
M  V30 32 1 29 13
M  V30 33 1 29 16
M  V30 34 1 26 20
M  V30 35 1 3 32
M  V30 36 1 4 33
M  V30 37 1 4 34
M  V30 38 1 6 35
M  V30 39 1 6 36
M  V30 40 1 7 37
M  V30 41 1 7 38
M  V30 42 1 8 39
M  V30 43 1 9 40
M  V30 44 1 9 41
M  V30 45 1 10 42
M  V30 46 1 15 43
M  V30 47 1 17 44
M  V30 48 1 18 45
M  V30 49 1 21 46
M  V30 50 1 22 47
M  V30 51 1 23 48
M  V30 52 1 28 49
M  V30 53 1 30 50
M  V30 54 1 30 51
M  V30 55 1 31 52
M  V30 56 1 31 53
M  V30 END BOND
M  V30 END CTAB
M  END
>  <Dataset>  (188) 
ChEMBL_Kinases

>  <Ligand_Instance>  (188) 
nan

>  <PDB_ID>  (188) 
nan

>  <Standardized_SMILES>  (188) 
O=C(O)CN1CCC(CNC(=O)c2n[nH]c3ccc(-c4cccc(F)c4F)cc23)CC1

>  <Name>  (188) 
nan

>  <Pocket>  (188) 
nan

>  <ATP_Site>  (188) 
nan

>  <Peripheral>  (188) 
nan

>  <Num_H_Atoms_ProtBoundConf>  (188) 
nan

>  <Num_Resolved_Atoms>  (188) 
nan

>  <Num_Not_Resolved_Atoms>  (188) 
nan

$$$$
CHEMBL576232
     RDKit          3D

  0  0  0  0  0  0  0  0  0  0999 V3000
M  V30 BEGIN CTAB
M  V30 COUNTS 42 45 0 0 0
M  V30 BEGIN ATOM
M  V30 1 N 1.310144 -5.148378 2.670028 0
M  V30 2 C 1.860670 -4.145810 2.493948 0
M  V30 3 C 2.539998 -2.895009 2.299461 0
M  V30 4 C 3.859746 -2.907879 2.713645 0
M  V30 5 N 4.551956 -1.789422 2.588553 0
M  V30 6 C 4.059762 -0.654803 2.089679 0
M  V30 7 C 2.749275 -0.602707 1.665159 0
M  V30 8 C 2.253572 0.631446 1.128000 0
M  V30 9 C 1.200691 1.160751 0.591220 0
M  V30 10 C 0.917684 2.496500 0.103320 0
M  V30 11 C -0.327979 2.744450 -0.426755 0
M  V30 12 C -0.633470 3.990306 -0.896538 0
M  V30 13 C 0.280538 5.020641 -0.855073 0
M  V30 14 C 1.510689 4.777451 -0.331962 0
M  V30 15 C 1.819792 3.535948 0.137728 0
M  V30 16 C 1.975762 -1.727106 1.768140 0
M  V30 17 N 0.653826 -1.926492 1.453215 0
M  V30 18 C -0.684513 -2.128352 1.134345 0
M  V30 19 C -1.504575 -1.153061 1.725945 0
M  V30 20 C -2.873280 -1.153628 1.569295 0
M  V30 21 C -3.346835 -2.182570 0.791882 0
M  V30 22 C -2.623956 -3.170584 0.179353 0
M  V30 23 C -1.263997 -3.115601 0.373171 0
M  V30 24 C -0.636028 -4.237557 -0.358472 0
M  V30 25 C -1.823263 -4.901103 -0.965076 0
M  V30 26 N -2.914797 -4.287559 -0.650283 0
M  V30 27 H 4.368154 -3.760501 3.130813 0
M  V30 28 H 4.704533 0.183670 2.035667 0
M  V30 29 H 2.958819 1.480986 1.143193 0
M  V30 30 H 0.445440 0.400015 0.521224 0
M  V30 31 H -1.088098 1.947346 -0.478346 0
M  V30 32 H -1.628679 4.139468 -1.306817 0
M  V30 33 H -0.063836 5.980897 -1.257920 0
M  V30 34 H 2.192366 5.633674 -0.325994 0
M  V30 35 H 2.804054 3.398391 0.539300 0
M  V30 36 H 0.918579 -1.887879 0.408124 0
M  V30 37 H -1.136985 -0.333429 2.343458 0
M  V30 38 H -3.524912 -0.415109 2.014494 0
M  V30 39 H -4.404947 -2.245929 0.627424 0
M  V30 40 H 0.063208 -3.865448 -1.141442 0
M  V30 41 H -0.107417 -4.914478 0.335757 0
M  V30 42 H -1.546800 -5.764091 -1.549148 0
M  V30 END ATOM
M  V30 BEGIN BOND
M  V30 1 3 1 2
M  V30 2 1 2 3
M  V30 3 2 3 4
M  V30 4 1 4 5
M  V30 5 2 5 6
M  V30 6 1 6 7
M  V30 7 1 7 8
M  V30 8 2 8 9
M  V30 9 1 9 10
M  V30 10 2 10 11
M  V30 11 1 11 12
M  V30 12 2 12 13
M  V30 13 1 13 14
M  V30 14 2 14 15
M  V30 15 2 7 16
M  V30 16 1 16 17
M  V30 17 1 17 18
M  V30 18 2 18 19
M  V30 19 1 19 20
M  V30 20 2 20 21
M  V30 21 1 21 22
M  V30 22 2 22 23
M  V30 23 1 23 24
M  V30 24 1 24 25
M  V30 25 2 25 26
M  V30 26 1 16 3
M  V30 27 1 23 18
M  V30 28 1 15 10
M  V30 29 1 26 22
M  V30 30 1 4 27
M  V30 31 1 6 28
M  V30 32 1 8 29
M  V30 33 1 9 30
M  V30 34 1 11 31
M  V30 35 1 12 32
M  V30 36 1 13 33
M  V30 37 1 14 34
M  V30 38 1 15 35
M  V30 39 1 17 36
M  V30 40 1 19 37
M  V30 41 1 20 38
M  V30 42 1 21 39
M  V30 43 1 24 40
M  V30 44 1 24 41
M  V30 45 1 25 42
M  V30 END BOND
M  V30 END CTAB
M  END
>  <Dataset>  (189) 
ChEMBL_Kinases

>  <Ligand_Instance>  (189) 
nan

>  <PDB_ID>  (189) 
nan

>  <Standardized_SMILES>  (189) 
N#Cc1cncc(/C=C/c2ccccc2)c1Nc1cccc2c1CC=N2

>  <Name>  (189) 
nan

>  <Pocket>  (189) 
nan

>  <ATP_Site>  (189) 
nan

>  <Peripheral>  (189) 
nan

>  <Num_H_Atoms_ProtBoundConf>  (189) 
nan

>  <Num_Resolved_Atoms>  (189) 
nan

>  <Num_Not_Resolved_Atoms>  (189) 
nan

$$$$
CHEMBL3736164
     RDKit          3D

  0  0  0  0  0  0  0  0  0  0999 V3000
M  V30 BEGIN CTAB
M  V30 COUNTS 57 60 0 0 0
M  V30 BEGIN ATOM
M  V30 1 C 0.912572 -5.367491 0.610070 0
M  V30 2 O 1.776112 -4.373372 1.061842 0
M  V30 3 C 1.151207 -3.118419 1.155529 0
M  V30 4 C 2.079394 -2.059346 1.641811 0
M  V30 5 N 3.233214 -1.818637 0.854799 0
M  V30 6 C 4.129019 -0.834262 1.421571 0
M  V30 7 C 3.483806 0.510197 1.181173 0
M  V30 8 C 3.566477 0.819377 -0.292465 0
M  V30 9 C 2.511511 1.817287 -0.710869 0
M  V30 10 N 1.178472 1.348806 -0.457817 0
M  V30 11 C 0.259717 2.331708 -0.871679 0
M  V30 12 O 0.953922 3.303616 -1.330907 0
M  V30 13 C -1.174559 2.459338 -0.884171 0
M  V30 14 N -1.656230 3.617579 -1.375851 0
M  V30 15 N -2.992976 3.574942 -1.316047 0
M  V30 16 C -3.453912 2.426845 -0.799918 0
M  V30 17 C -4.672648 1.858227 -0.513047 0
M  V30 18 C -4.711684 0.593000 0.041944 0
M  V30 19 C -3.517053 -0.083421 0.300694 0
M  V30 20 C -3.683966 -1.419377 0.894692 0
M  V30 21 C -2.709671 -2.344344 0.558155 0
M  V30 22 C -2.842420 -3.621322 1.111083 0
M  V30 23 C -3.905250 -3.909163 1.946883 0
M  V30 24 C -4.853426 -2.949174 2.252874 0
M  V30 25 C -4.753297 -1.684587 1.726834 0
M  V30 26 C -2.297994 0.487321 0.012831 0
M  V30 27 C -2.285520 1.734680 -0.533259 0
M  V30 28 C 3.623640 -0.399893 -1.156016 0
M  V30 29 C 3.076287 -1.645398 -0.536944 0
M  V30 30 H 1.468579 -6.349159 0.562229 0
M  V30 31 H 0.005563 -5.453116 1.222361 0
M  V30 32 H 0.700081 -5.148389 -0.477462 0
M  V30 33 H 0.708489 -2.879316 0.181245 0
M  V30 34 H 0.263127 -3.205046 1.853242 0
M  V30 35 H 1.471237 -1.152115 1.849244 0
M  V30 36 H 2.430127 -2.378814 2.666761 0
M  V30 37 H 5.055833 -0.884637 0.797156 0
M  V30 38 H 4.337937 -1.047298 2.474555 0
M  V30 39 H 2.481145 0.589701 1.613147 0
M  V30 40 H 4.114891 1.233804 1.777989 0
M  V30 41 H 4.525463 1.363362 -0.433121 0
M  V30 42 H 2.749593 2.759230 -0.179463 0
M  V30 43 H 2.654653 1.991351 -1.790524 0
M  V30 44 H 0.736930 0.510934 -0.066193 0
M  V30 45 H -3.606462 4.362248 -1.640699 0
M  V30 46 H -5.548873 2.439140 -0.739780 0
M  V30 47 H -5.686241 0.157629 0.262262 0
M  V30 48 H -1.886044 -2.078793 -0.105340 0
M  V30 49 H -2.072823 -4.329054 0.835892 0
M  V30 50 H -3.947624 -4.922806 2.342428 0
M  V30 51 H -5.657122 -3.257936 2.917787 0
M  V30 52 H -5.490441 -0.940874 1.966543 0
M  V30 53 H -1.415210 -0.053078 0.221576 0
M  V30 54 H 4.644751 -0.605287 -1.540040 0
M  V30 55 H 3.009646 -0.170162 -2.053437 0
M  V30 56 H 3.579587 -2.537807 -1.017040 0
M  V30 57 H 2.010478 -1.782182 -0.804025 0
M  V30 END ATOM
M  V30 BEGIN BOND
M  V30 1 1 1 2
M  V30 2 1 2 3
M  V30 3 1 3 4
M  V30 4 1 4 5
M  V30 5 1 5 6
M  V30 6 1 6 7
M  V30 7 1 7 8
M  V30 8 1 8 9
M  V30 9 1 9 10
M  V30 10 1 10 11
M  V30 11 2 11 12
M  V30 12 1 11 13
M  V30 13 2 13 14
M  V30 14 1 14 15
M  V30 15 1 15 16
M  V30 16 2 16 17
M  V30 17 1 17 18
M  V30 18 2 18 19
M  V30 19 1 19 20
M  V30 20 2 20 21
M  V30 21 1 21 22
M  V30 22 2 22 23
M  V30 23 1 23 24
M  V30 24 2 24 25
M  V30 25 1 19 26
M  V30 26 2 26 27
M  V30 27 1 8 28
M  V30 28 1 28 29
M  V30 29 1 29 5
M  V30 30 1 27 13
M  V30 31 1 27 16
M  V30 32 1 25 20
M  V30 33 1 1 30
M  V30 34 1 1 31
M  V30 35 1 1 32
M  V30 36 1 3 33
M  V30 37 1 3 34
M  V30 38 1 4 35
M  V30 39 1 4 36
M  V30 40 1 6 37
M  V30 41 1 6 38
M  V30 42 1 7 39
M  V30 43 1 7 40
M  V30 44 1 8 41
M  V30 45 1 9 42
M  V30 46 1 9 43
M  V30 47 1 10 44
M  V30 48 1 15 45
M  V30 49 1 17 46
M  V30 50 1 18 47
M  V30 51 1 21 48
M  V30 52 1 22 49
M  V30 53 1 23 50
M  V30 54 1 24 51
M  V30 55 1 25 52
M  V30 56 1 26 53
M  V30 57 1 28 54
M  V30 58 1 28 55
M  V30 59 1 29 56
M  V30 60 1 29 57
M  V30 END BOND
M  V30 END CTAB
M  END
>  <Dataset>  (190) 
ChEMBL_Kinases

>  <Ligand_Instance>  (190) 
nan

>  <PDB_ID>  (190) 
nan

>  <Standardized_SMILES>  (190) 
COCCN1CCC(CNC(=O)c2n[nH]c3ccc(-c4ccccc4)cc23)CC1

>  <Name>  (190) 
nan

>  <Pocket>  (190) 
nan

>  <ATP_Site>  (190) 
nan

>  <Peripheral>  (190) 
nan

>  <Num_H_Atoms_ProtBoundConf>  (190) 
nan

>  <Num_Resolved_Atoms>  (190) 
nan

>  <Num_Not_Resolved_Atoms>  (190) 
nan

$$$$
CHEMBL3736122
     RDKit          3D

  0  0  0  0  0  0  0  0  0  0999 V3000
M  V30 BEGIN CTAB
M  V30 COUNTS 61 64 0 0 0
M  V30 BEGIN ATOM
M  V30 1 C 1.146276 -3.244519 5.573730 0
M  V30 2 O 1.903251 -2.431503 4.705513 0
M  V30 3 C 3.255111 -2.704892 4.812954 0
M  V30 4 C 4.050212 -1.847936 3.898625 0
M  V30 5 N 3.764609 -1.979849 2.519857 0
M  V30 6 C 4.634583 -1.130516 1.724072 0
M  V30 7 C 4.314058 0.324138 1.796514 0
M  V30 8 C 2.864774 0.646575 1.514984 0
M  V30 9 C 2.527531 0.625077 0.066715 0
M  V30 10 N 1.163260 0.921044 -0.264504 0
M  V30 11 C 0.458464 2.105102 0.001427 0
M  V30 12 O 1.263527 2.886888 0.597927 0
M  V30 13 C -0.880332 2.570084 -0.246417 0
M  V30 14 N -1.152403 3.835696 0.160703 0
M  V30 15 N -2.426239 4.115161 -0.138709 0
M  V30 16 C -3.046501 3.089948 -0.737943 0
M  V30 17 C -4.298804 2.818905 -1.244663 0
M  V30 18 C -4.524051 1.565997 -1.805193 0
M  V30 19 C -3.524157 0.613296 -1.856270 0
M  V30 20 C -3.768080 -0.715124 -2.451090 0
M  V30 21 C -4.629240 -0.987920 -3.493580 0
M  V30 22 C -4.761948 -2.283912 -3.952984 0
M  V30 23 C -4.036152 -3.334371 -3.379399 0
M  V30 24 O -4.257620 -4.588997 -3.929521 0
M  V30 25 C -3.611802 -5.763546 -3.475913 0
M  V30 26 C -3.174790 -3.062559 -2.336978 0
M  V30 27 C -3.050765 -1.763708 -1.886764 0
M  V30 28 C -2.288948 0.913149 -1.343926 0
M  V30 29 C -2.055065 2.136970 -0.792108 0
M  V30 30 C 2.039258 -0.310447 2.338714 0
M  V30 31 C 2.435465 -1.746563 2.080718 0
M  V30 32 H 1.424059 -3.096100 6.637273 0
M  V30 33 H 1.310634 -4.282958 5.279373 0
M  V30 34 H 0.076886 -3.012406 5.450327 0
M  V30 35 H 3.506608 -2.527037 5.897583 0
M  V30 36 H 3.427477 -3.790410 4.677912 0
M  V30 37 H 4.078044 -0.780627 4.252336 0
M  V30 38 H 5.127638 -2.171984 4.027695 0
M  V30 39 H 5.661806 -1.267591 2.104869 0
M  V30 40 H 4.578959 -1.532036 0.692748 0
M  V30 41 H 5.018835 0.857332 1.153834 0
M  V30 42 H 4.522183 0.663839 2.846206 0
M  V30 43 H 2.696778 1.662311 1.919330 0
M  V30 44 H 3.187656 1.368717 -0.461381 0
M  V30 45 H 2.793772 -0.367452 -0.338469 0
M  V30 46 H 0.596139 0.204859 -0.759281 0
M  V30 47 H -2.871719 5.037929 0.078667 0
M  V30 48 H -5.048414 3.595420 -1.182113 0
M  V30 49 H -5.507659 1.363148 -2.199399 0
M  V30 50 H -5.155404 -0.133141 -3.887038 0
M  V30 51 H -5.447980 -2.447972 -4.771011 0
M  V30 52 H -4.155690 -6.658105 -3.769570 0
M  V30 53 H -3.440275 -5.730102 -2.362060 0
M  V30 54 H -2.569949 -5.853627 -3.899502 0
M  V30 55 H -2.631859 -3.908817 -1.922403 0
M  V30 56 H -2.333141 -1.690924 -1.054697 0
M  V30 57 H -1.535511 0.154947 -1.396733 0
M  V30 58 H 0.965863 -0.220687 2.179938 0
M  V30 59 H 2.252198 -0.059227 3.397214 0
M  V30 60 H 2.459296 -1.902182 0.956037 0
M  V30 61 H 1.651471 -2.407402 2.431252 0
M  V30 END ATOM
M  V30 BEGIN BOND
M  V30 1 1 1 2
M  V30 2 1 2 3
M  V30 3 1 3 4
M  V30 4 1 4 5
M  V30 5 1 5 6
M  V30 6 1 6 7
M  V30 7 1 7 8
M  V30 8 1 8 9
M  V30 9 1 9 10
M  V30 10 1 10 11
M  V30 11 2 11 12
M  V30 12 1 11 13
M  V30 13 2 13 14
M  V30 14 1 14 15
M  V30 15 1 15 16
M  V30 16 2 16 17
M  V30 17 1 17 18
M  V30 18 2 18 19
M  V30 19 1 19 20
M  V30 20 2 20 21
M  V30 21 1 21 22
M  V30 22 2 22 23
M  V30 23 1 23 24
M  V30 24 1 24 25
M  V30 25 1 23 26
M  V30 26 2 26 27
M  V30 27 1 19 28
M  V30 28 2 28 29
M  V30 29 1 8 30
M  V30 30 1 30 31
M  V30 31 1 31 5
M  V30 32 1 29 13
M  V30 33 1 29 16
M  V30 34 1 27 20
M  V30 35 1 1 32
M  V30 36 1 1 33
M  V30 37 1 1 34
M  V30 38 1 3 35
M  V30 39 1 3 36
M  V30 40 1 4 37
M  V30 41 1 4 38
M  V30 42 1 6 39
M  V30 43 1 6 40
M  V30 44 1 7 41
M  V30 45 1 7 42
M  V30 46 1 8 43
M  V30 47 1 9 44
M  V30 48 1 9 45
M  V30 49 1 10 46
M  V30 50 1 15 47
M  V30 51 1 17 48
M  V30 52 1 18 49
M  V30 53 1 21 50
M  V30 54 1 22 51
M  V30 55 1 25 52
M  V30 56 1 25 53
M  V30 57 1 25 54
M  V30 58 1 26 55
M  V30 59 1 27 56
M  V30 60 1 28 57
M  V30 61 1 30 58
M  V30 62 1 30 59
M  V30 63 1 31 60
M  V30 64 1 31 61
M  V30 END BOND
M  V30 END CTAB
M  END
>  <Dataset>  (191) 
ChEMBL_Kinases

>  <Ligand_Instance>  (191) 
nan

>  <PDB_ID>  (191) 
nan

>  <Standardized_SMILES>  (191) 
COCCN1CCC(CNC(=O)c2n[nH]c3ccc(-c4ccc(OC)cc4)cc23)CC1

>  <Name>  (191) 
nan

>  <Pocket>  (191) 
nan

>  <ATP_Site>  (191) 
nan

>  <Peripheral>  (191) 
nan

>  <Num_H_Atoms_ProtBoundConf>  (191) 
nan

>  <Num_Resolved_Atoms>  (191) 
nan

>  <Num_Not_Resolved_Atoms>  (191) 
nan

$$$$
CHEMBL3736117
     RDKit          3D

  0  0  0  0  0  0  0  0  0  0999 V3000
M  V30 BEGIN CTAB
M  V30 COUNTS 53 57 0 0 0
M  V30 BEGIN ATOM
M  V30 1 C -1.483628 1.242366 5.297861 0
M  V30 2 O -1.342066 0.829196 3.950272 0
M  V30 3 C -0.606944 -0.326332 3.720331 0
M  V30 4 C -0.026252 -1.062987 4.741423 0
M  V30 5 C 0.710921 -2.225008 4.485632 0
M  V30 6 C 0.866049 -2.652549 3.183154 0
M  V30 7 C 0.275438 -1.896447 2.191937 0
M  V30 8 C -0.473238 -0.725308 2.388327 0
M  V30 9 C -1.089133 0.048575 1.318584 0
M  V30 10 N -0.463459 1.273858 0.952200 0
M  V30 11 C 0.881641 1.042439 0.507442 0
M  V30 12 C 1.313569 2.034269 -0.555148 0
M  V30 13 N 0.693557 3.322662 -0.379354 0
M  V30 14 C -0.724156 3.140878 -0.620454 0 CFG=2
M  V30 15 C -1.536823 4.190126 0.074672 0
M  V30 16 C -1.197628 1.783188 -0.204796 0
M  V30 17 O 0.553633 -2.499349 0.975391 0
M  V30 18 C 1.311657 -3.636449 1.111583 0
M  V30 19 C 1.717667 -4.402529 0.113605 0
M  V30 20 C 1.462212 -4.224910 -1.308688 0
M  V30 21 N 2.498786 -4.399896 -2.183659 0
M  V30 22 N 2.084121 -4.206619 -3.424281 0
M  V30 23 C 0.776509 -3.899508 -3.443566 0
M  V30 24 N -0.142290 -3.615877 -4.383750 0
M  V30 25 C -1.409278 -3.356123 -3.975523 0
M  V30 26 C -1.834877 -3.361196 -2.643627 0
M  V30 27 C -0.867832 -3.655579 -1.706530 0
M  V30 28 C 0.398024 -3.913300 -2.127675 0
M  V30 29 C 1.540830 -3.776355 2.543216 0
M  V30 30 O 2.189730 -4.685003 3.103214 0
M  V30 31 H -1.856063 0.366341 5.898244 0
M  V30 32 H -2.174326 2.102723 5.405318 0
M  V30 33 H -0.500315 1.552118 5.698460 0
M  V30 34 H -0.143144 -0.735014 5.764502 0
M  V30 35 H 1.169725 -2.810752 5.266035 0
M  V30 36 H -2.157975 0.244468 1.629141 0
M  V30 37 H -1.217795 -0.584614 0.390964 0
M  V30 38 H 1.617351 1.142658 1.352490 0
M  V30 39 H 1.063145 0.038170 0.076529 0
M  V30 40 H 1.130958 1.629625 -1.580606 0
M  V30 41 H 2.405071 2.162709 -0.468636 0
M  V30 42 H 0.829416 3.605792 0.626655 0
M  V30 43 H -0.873030 3.199390 -1.735499 0
M  V30 44 H -2.039903 4.817829 -0.686783 0
M  V30 45 H -2.335283 3.718022 0.694627 0
M  V30 46 H -0.854317 4.787859 0.705044 0
M  V30 47 H -1.066442 1.016737 -1.017268 0
M  V30 48 H -2.263503 1.808625 0.044013 0
M  V30 49 H 2.304357 -5.248121 0.453047 0
M  V30 50 H 2.670556 -4.275867 -4.294436 0
M  V30 51 H -2.155505 -3.125946 -4.735761 0
M  V30 52 H -2.861122 -3.142071 -2.429078 0
M  V30 53 H -1.182529 -3.670894 -0.691194 0
M  V30 END ATOM
M  V30 BEGIN BOND
M  V30 1 1 1 2
M  V30 2 1 2 3
M  V30 3 2 3 4
M  V30 4 1 4 5
M  V30 5 2 5 6
M  V30 6 1 6 7
M  V30 7 2 7 8
M  V30 8 1 8 9
M  V30 9 1 9 10
M  V30 10 1 10 11
M  V30 11 1 11 12
M  V30 12 1 12 13
M  V30 13 1 13 14
M  V30 14 1 14 15
M  V30 15 1 14 16
M  V30 16 1 7 17
M  V30 17 1 17 18
M  V30 18 2 18 19
M  V30 19 1 19 20
M  V30 20 2 20 21
M  V30 21 1 21 22
M  V30 22 1 22 23
M  V30 23 2 23 24
M  V30 24 1 24 25
M  V30 25 2 25 26
M  V30 26 1 26 27
M  V30 27 2 27 28
M  V30 28 1 18 29
M  V30 29 2 29 30
M  V30 30 1 8 3
M  V30 31 1 16 10
M  V30 32 1 28 20
M  V30 33 1 29 6
M  V30 34 1 28 23
M  V30 35 1 1 31
M  V30 36 1 1 32
M  V30 37 1 1 33
M  V30 38 1 4 34
M  V30 39 1 5 35
M  V30 40 1 9 36
M  V30 41 1 9 37
M  V30 42 1 11 38
M  V30 43 1 11 39
M  V30 44 1 12 40
M  V30 45 1 12 41
M  V30 46 1 13 42
M  V30 47 1 14 43 CFG=3
M  V30 48 1 15 44
M  V30 49 1 15 45
M  V30 50 1 15 46
M  V30 51 1 16 47
M  V30 52 1 16 48
M  V30 53 1 19 49
M  V30 54 1 22 50
M  V30 55 1 25 51
M  V30 56 1 26 52
M  V30 57 1 27 53
M  V30 END BOND
M  V30 END CTAB
M  END
>  <Dataset>  (192) 
ChEMBL_Kinases

>  <Ligand_Instance>  (192) 
nan

>  <PDB_ID>  (192) 
nan

>  <Standardized_SMILES>  (192) 
COc1ccc2c(c1CN1CCN[C@H](C)C1)O/C(=C\c1n[nH]c3ncccc13)C2=O

>  <Name>  (192) 
nan

>  <Pocket>  (192) 
nan

>  <ATP_Site>  (192) 
nan

>  <Peripheral>  (192) 
nan

>  <Num_H_Atoms_ProtBoundConf>  (192) 
nan

>  <Num_Resolved_Atoms>  (192) 
nan

>  <Num_Not_Resolved_Atoms>  (192) 
nan

$$$$
CHEMBL3736103
     RDKit          3D

  0  0  0  0  0  0  0  0  0  0999 V3000
M  V30 BEGIN CTAB
M  V30 COUNTS 60 65 0 0 0
M  V30 BEGIN ATOM
M  V30 1 C 3.333692 -5.917335 4.870734 0
M  V30 2 O 2.356623 -4.968388 4.484482 0
M  V30 3 C 2.603965 -4.004369 3.515640 0
M  V30 4 C 1.593963 -3.119211 3.204493 0
M  V30 5 C 1.851502 -2.167806 2.241201 0
M  V30 6 C 3.057625 -2.034489 1.558044 0
M  V30 7 C 3.223347 -1.029021 0.596738 0
M  V30 8 C 2.050810 -0.182291 0.382315 0
M  V30 9 N 1.933617 1.058128 0.936975 0
M  V30 10 C 0.726643 1.559805 0.551023 0
M  V30 11 C 0.141795 2.780262 0.850149 0
M  V30 12 C -1.118052 3.037695 0.315153 0
M  V30 13 C -1.696168 2.067455 -0.471130 0
M  V30 14 N -2.976183 2.253432 -1.062217 0
M  V30 15 C -3.865626 3.391535 -0.934870 0
M  V30 16 C -5.093650 2.944035 -0.203623 0
M  V30 17 N -5.498073 1.614206 -0.414728 0
M  V30 18 C -5.997524 0.972412 0.775233 0
M  V30 19 C -4.822367 0.794157 -1.307685 0
M  V30 20 C -3.553668 1.237380 -1.919569 0
M  V30 21 N -1.065180 0.915804 -0.712190 0
M  V30 22 N 0.132835 0.620932 -0.228583 0
M  V30 23 C 0.916529 -0.464971 -0.355388 0
M  V30 24 C 0.650615 -1.693530 -1.117705 0
M  V30 25 C -0.313614 -2.634329 -0.768423 0
M  V30 26 C -0.449495 -3.733764 -1.602639 0
M  V30 27 N 0.314356 -3.920551 -2.732388 0
M  V30 28 C 1.237699 -2.948150 -3.000761 0
M  V30 29 C 1.466834 -1.799192 -2.237651 0
M  V30 30 C 4.443650 -0.948890 -0.038275 0
M  V30 31 C 5.441182 -1.851254 0.293239 0
M  V30 32 C 5.291866 -2.846570 1.238507 0
M  V30 33 C 4.073871 -2.936325 1.882244 0
M  V30 34 C 3.811708 -3.897089 2.856352 0
M  V30 35 H 4.341518 -5.472988 4.972139 0
M  V30 36 H 3.422191 -6.706679 4.083442 0
M  V30 37 H 3.008765 -6.369174 5.832108 0
M  V30 38 H 0.640132 -3.185287 3.708641 0
M  V30 39 H 1.015309 -1.492244 2.029533 0
M  V30 40 H 0.690109 3.465100 1.480501 0
M  V30 41 H -1.582793 3.966404 0.534044 0
M  V30 42 H -3.337662 4.222550 -0.431398 0
M  V30 43 H -4.079835 3.739587 -1.969709 0
M  V30 44 H -5.920370 3.635836 -0.464097 0
M  V30 45 H -4.893516 3.097756 0.882409 0
M  V30 46 H -6.830463 1.598293 1.161387 0
M  V30 47 H -5.152267 0.888227 1.492172 0
M  V30 48 H -6.302613 -0.050168 0.487510 0
M  V30 49 H -5.521147 0.526383 -2.155546 0
M  V30 50 H -4.639304 -0.210111 -0.815792 0
M  V30 51 H -3.747978 1.699490 -2.904982 0
M  V30 52 H -2.867729 0.380230 -2.071332 0
M  V30 53 H -0.883859 -2.456223 0.110174 0
M  V30 54 H -1.210968 -4.443260 -1.295170 0
M  V30 55 H 1.828372 -3.129900 -3.913712 0
M  V30 56 H 2.228422 -1.113836 -2.565138 0
M  V30 57 H 4.533258 -0.164667 -0.767647 0
M  V30 58 H 6.391596 -1.766095 -0.225851 0
M  V30 59 H 6.032574 -3.553665 1.514667 0
M  V30 60 H 4.589806 -4.600232 3.111822 0
M  V30 END ATOM
M  V30 BEGIN BOND
M  V30 1 1 1 2
M  V30 2 1 2 3
M  V30 3 2 3 4
M  V30 4 1 4 5
M  V30 5 2 5 6
M  V30 6 1 6 7
M  V30 7 1 7 8
M  V30 8 1 8 9
M  V30 9 2 9 10
M  V30 10 1 10 11
M  V30 11 2 11 12
M  V30 12 1 12 13
M  V30 13 1 13 14
M  V30 14 1 14 15
M  V30 15 1 15 16
M  V30 16 1 16 17
M  V30 17 1 17 18
M  V30 18 1 17 19
M  V30 19 1 19 20
M  V30 20 2 13 21
M  V30 21 1 21 22
M  V30 22 1 22 23
M  V30 23 1 23 24
M  V30 24 2 24 25
M  V30 25 1 25 26
M  V30 26 2 26 27
M  V30 27 1 27 28
M  V30 28 2 28 29
M  V30 29 2 7 30
M  V30 30 1 30 31
M  V30 31 2 31 32
M  V30 32 1 32 33
M  V30 33 2 33 34
M  V30 34 1 34 3
M  V30 35 1 33 6
M  V30 36 2 23 8
M  V30 37 1 29 24
M  V30 38 1 22 10
M  V30 39 1 20 14
M  V30 40 1 1 35
M  V30 41 1 1 36
M  V30 42 1 1 37
M  V30 43 1 4 38
M  V30 44 1 5 39
M  V30 45 1 11 40
M  V30 46 1 12 41
M  V30 47 1 15 42
M  V30 48 1 15 43
M  V30 49 1 16 44
M  V30 50 1 16 45
M  V30 51 1 18 46
M  V30 52 1 18 47
M  V30 53 1 18 48
M  V30 54 1 19 49
M  V30 55 1 19 50
M  V30 56 1 20 51
M  V30 57 1 20 52
M  V30 58 1 25 53
M  V30 59 1 26 54
M  V30 60 1 28 55
M  V30 61 1 29 56
M  V30 62 1 30 57
M  V30 63 1 31 58
M  V30 64 1 32 59
M  V30 65 1 34 60
M  V30 END BOND
M  V30 END CTAB
M  END
>  <Dataset>  (193) 
ChEMBL_Kinases

>  <Ligand_Instance>  (193) 
nan

>  <PDB_ID>  (193) 
nan

>  <Standardized_SMILES>  (193) 
COc1ccc2c(-c3nc4ccc(N5CCN(C)CC5)nn4c3-c3ccncc3)cccc2c1

>  <Name>  (193) 
nan

>  <Pocket>  (193) 
nan

>  <ATP_Site>  (193) 
nan

>  <Peripheral>  (193) 
nan

>  <Num_H_Atoms_ProtBoundConf>  (193) 
nan

>  <Num_Resolved_Atoms>  (193) 
nan

>  <Num_Not_Resolved_Atoms>  (193) 
nan

$$$$
CHEMBL3736086
     RDKit          3D

  0  0  0  0  0  0  0  0  0  0999 V3000
M  V30 BEGIN CTAB
M  V30 COUNTS 53 56 0 0 0
M  V30 BEGIN ATOM
M  V30 1 C 2.471652 -2.964547 6.646087 0
M  V30 2 O 2.288732 -2.281999 5.446792 0
M  V30 3 C 3.219131 -2.272457 4.404618 0
M  V30 4 C 4.417396 -2.951177 4.480947 0
M  V30 5 C 5.344010 -2.945720 3.450902 0
M  V30 6 C 5.025133 -2.225170 2.321844 0
M  V30 7 N 5.586874 -1.949809 1.137325 0
M  V30 8 N 4.818334 -1.167695 0.375614 0
M  V30 9 C 3.681603 -0.885818 1.047578 0
M  V30 10 C 2.734277 -0.048639 0.367864 0
M  V30 11 O 3.020065 0.362489 -0.808939 0
M  V30 12 N 1.472379 0.484176 0.675089 0
M  V30 13 C 0.960147 1.275527 -0.395450 0
M  V30 14 C -0.402938 1.856011 -0.086982 0
M  V30 15 C -1.432068 0.812841 0.181612 0
M  V30 16 C -2.760274 1.130238 -0.519417 0
M  V30 17 N -2.526183 1.182086 -1.931572 0
M  V30 18 C -2.554776 -0.082054 -2.591607 0
M  V30 19 C -3.815425 -0.806986 -2.484215 0
M  V30 20 N -4.100116 -1.673574 -1.497747 0
M  V30 21 C -5.339990 -2.149976 -1.715947 0
M  V30 22 C -5.982109 -3.120594 -0.837535 0
M  V30 23 O -5.345072 -3.527823 0.167694 0
M  V30 24 O -7.262718 -3.604176 -1.074778 0
M  V30 25 C -5.804817 -1.552477 -2.860164 0
M  V30 26 O -4.872902 -0.764600 -3.284550 0
M  V30 27 C -1.494790 2.061841 -2.340978 0
M  V30 28 C -0.863973 2.789273 -1.185050 0
M  V30 29 C 3.831905 -1.546224 2.239542 0
M  V30 30 C 2.921810 -1.559274 3.266967 0
M  V30 31 H 3.099627 -3.855584 6.592542 0
M  V30 32 H 1.480136 -3.279269 7.080224 0
M  V30 33 H 2.868192 -2.229723 7.406308 0
M  V30 34 H 4.677191 -3.512752 5.348741 0
M  V30 35 H 6.285452 -3.460116 3.472197 0
M  V30 36 H 6.525055 -2.301397 0.827200 0
M  V30 37 H 1.121022 0.222098 1.613945 0
M  V30 38 H 0.880606 0.711610 -1.339270 0
M  V30 39 H 1.703968 2.102772 -0.590622 0
M  V30 40 H -0.255060 2.503220 0.825500 0
M  V30 41 H -1.125848 -0.213528 -0.121149 0
M  V30 42 H -1.678601 0.749801 1.263951 0
M  V30 43 H -3.427926 0.275529 -0.310538 0
M  V30 44 H -3.206880 2.026608 -0.092941 0
M  V30 45 H -2.254565 0.087257 -3.647192 0
M  V30 46 H -1.731982 -0.693572 -2.156180 0
M  V30 47 H -7.699976 -4.333625 -0.537970 0
M  V30 48 H -6.799194 -1.810219 -3.205389 0
M  V30 49 H -0.677330 1.475105 -2.851687 0
M  V30 50 H -1.800346 2.816444 -3.082770 0
M  V30 51 H -1.615831 3.462965 -0.711226 0
M  V30 52 H -0.015884 3.413082 -1.535449 0
M  V30 53 H 1.998944 -1.044378 3.223838 0
M  V30 END ATOM
M  V30 BEGIN BOND
M  V30 1 1 1 2
M  V30 2 1 2 3
M  V30 3 2 3 4
M  V30 4 1 4 5
M  V30 5 2 5 6
M  V30 6 1 6 7
M  V30 7 1 7 8
M  V30 8 2 8 9
M  V30 9 1 9 10
M  V30 10 2 10 11
M  V30 11 1 10 12
M  V30 12 1 12 13
M  V30 13 1 13 14
M  V30 14 1 14 15
M  V30 15 1 15 16
M  V30 16 1 16 17
M  V30 17 1 17 18
M  V30 18 1 18 19
M  V30 19 2 19 20
M  V30 20 1 20 21
M  V30 21 1 21 22
M  V30 22 2 22 23
M  V30 23 1 22 24
M  V30 24 2 21 25
M  V30 25 1 25 26
M  V30 26 1 17 27
M  V30 27 1 27 28
M  V30 28 1 9 29
M  V30 29 2 29 30
M  V30 30 1 30 3
M  V30 31 1 29 6
M  V30 32 1 28 14
M  V30 33 1 26 19
M  V30 34 1 1 31
M  V30 35 1 1 32
M  V30 36 1 1 33
M  V30 37 1 4 34
M  V30 38 1 5 35
M  V30 39 1 7 36
M  V30 40 1 12 37
M  V30 41 1 13 38
M  V30 42 1 13 39
M  V30 43 1 14 40
M  V30 44 1 15 41
M  V30 45 1 15 42
M  V30 46 1 16 43
M  V30 47 1 16 44
M  V30 48 1 18 45
M  V30 49 1 18 46
M  V30 50 1 24 47
M  V30 51 1 25 48
M  V30 52 1 27 49
M  V30 53 1 27 50
M  V30 54 1 28 51
M  V30 55 1 28 52
M  V30 56 1 30 53
M  V30 END BOND
M  V30 END CTAB
M  END
>  <Dataset>  (194) 
ChEMBL_Kinases

>  <Ligand_Instance>  (194) 
nan

>  <PDB_ID>  (194) 
nan

>  <Standardized_SMILES>  (194) 
COc1ccc2[nH]nc(C(=O)NCC3CCN(Cc4nc(C(=O)O)co4)CC3)c2c1

>  <Name>  (194) 
nan

>  <Pocket>  (194) 
nan

>  <ATP_Site>  (194) 
nan

>  <Peripheral>  (194) 
nan

>  <Num_H_Atoms_ProtBoundConf>  (194) 
nan

>  <Num_Resolved_Atoms>  (194) 
nan

>  <Num_Not_Resolved_Atoms>  (194) 
nan

$$$$
CHEMBL3736036
     RDKit          3D

  0  0  0  0  0  0  0  0  0  0999 V3000
M  V30 BEGIN CTAB
M  V30 COUNTS 70 74 0 0 0
M  V30 BEGIN ATOM
M  V30 1 O -2.320111 -0.158909 0.602985 0
M  V30 2 C -2.984554 -1.089707 1.163818 0
M  V30 3 N -2.131353 -1.919060 1.968792 0
M  V30 4 C -0.800796 -1.409042 1.865601 0
M  V30 5 N -0.279432 -0.468636 2.695711 0
M  V30 6 C 0.992312 -0.205085 2.334317 0
M  V30 7 C 1.938652 0.656615 2.847435 0
M  V30 8 C 3.188952 0.754163 2.302017 0
M  V30 9 C 4.307244 1.625094 2.738994 0
M  V30 10 N 4.224476 2.872675 2.039879 0
M  V30 11 C 4.258928 2.789594 0.620871 0
M  V30 12 C 4.024576 4.171068 0.017248 0
M  V30 13 C 2.638804 4.682158 0.335239 0
M  V30 14 C 2.151930 4.047344 1.612291 0
M  V30 15 C 3.270450 3.773397 2.594651 0
M  V30 16 C 3.434147 -0.074477 1.199002 0
M  V30 17 C 2.499311 -0.942032 0.673002 0
M  V30 18 C 1.246980 -1.015103 1.247997 0
M  V30 19 N 0.160716 -1.751963 0.955244 0
M  V30 20 C 0.022273 -2.717196 -0.105807 0 CFG=1
M  V30 21 C 0.171131 -2.146142 -1.487538 0
M  V30 22 C -0.586505 -3.079605 -2.442245 0
M  V30 23 C -0.387847 -4.499131 -1.990911 0 CFG=1
M  V30 24 C -0.424707 -5.471937 -3.144772 0
M  V30 25 O -1.643495 -5.419624 -3.810098 0
M  V30 26 C 0.904230 -4.694639 -1.233206 0
M  V30 27 C 0.914592 -3.937478 0.076148 0
M  V30 28 C -4.441573 -1.321644 1.030754 0
M  V30 29 C -5.159073 -2.330600 1.638499 0
M  V30 30 C -6.516169 -2.396140 1.401441 0
M  V30 31 C -7.167726 -1.493328 0.584704 0
M  V30 32 C -6.422157 -0.476593 -0.022983 0
M  V30 33 C -7.086665 0.524057 -0.916023 0
M  V30 34 F -7.330548 1.719628 -0.296934 0
M  V30 35 F -6.259209 0.774675 -2.006202 0
M  V30 36 F -8.208213 -0.080449 -1.429548 0
M  V30 37 C -5.059734 -0.386239 0.196520 0
M  V30 38 H -2.576170 -2.727848 2.483768 0
M  V30 39 H 1.729785 1.271350 3.683666 0
M  V30 40 H 4.176372 1.773741 3.833692 0
M  V30 41 H 5.263146 1.086004 2.538061 0
M  V30 42 H 3.447703 2.153240 0.183797 0
M  V30 43 H 5.237694 2.438466 0.283985 0
M  V30 44 H 4.150540 4.063132 -1.093279 0
M  V30 45 H 4.753526 4.856989 0.463172 0
M  V30 46 H 1.932381 4.496999 -0.504501 0
M  V30 47 H 2.724181 5.797484 0.441098 0
M  V30 48 H 1.550906 3.142949 1.416860 0
M  V30 49 H 1.488649 4.808246 2.111701 0
M  V30 50 H 3.748938 4.759341 2.794304 0
M  V30 51 H 2.852560 3.361225 3.512074 0
M  V30 52 H 4.424730 -0.040589 0.715779 0
M  V30 53 H 2.783271 -1.541751 -0.180955 0
M  V30 54 H -1.020129 -3.138148 -0.069555 0
M  V30 55 H 1.211120 -2.156588 -1.876257 0
M  V30 56 H -0.205252 -1.115943 -1.526906 0
M  V30 57 H -1.661547 -2.762094 -2.362090 0
M  V30 58 H -0.208204 -2.892202 -3.461725 0
M  V30 59 H -1.215556 -4.780400 -1.310180 0
M  V30 60 H 0.400690 -5.342669 -3.850212 0
M  V30 61 H -0.364994 -6.488141 -2.700948 0
M  V30 62 H -2.212163 -4.673194 -3.539975 0
M  V30 63 H 1.799409 -4.516934 -1.848773 0
M  V30 64 H 0.933126 -5.782365 -0.956280 0
M  V30 65 H 0.460760 -4.558563 0.900808 0
M  V30 66 H 1.920543 -3.699056 0.413684 0
M  V30 67 H -4.587024 -3.001239 2.263959 0
M  V30 68 H -7.042836 -3.202803 1.897310 0
M  V30 69 H -8.232372 -1.554439 0.406122 0
M  V30 70 H -4.521848 0.425767 -0.300595 0
M  V30 END ATOM
M  V30 BEGIN BOND
M  V30 1 2 1 2
M  V30 2 1 2 3
M  V30 3 1 3 4
M  V30 4 2 4 5
M  V30 5 1 5 6
M  V30 6 2 6 7
M  V30 7 1 7 8
M  V30 8 1 8 9
M  V30 9 1 9 10
M  V30 10 1 10 11
M  V30 11 1 11 12
M  V30 12 1 12 13
M  V30 13 1 13 14
M  V30 14 1 14 15
M  V30 15 2 8 16
M  V30 16 1 16 17
M  V30 17 2 17 18
M  V30 18 1 18 19
M  V30 19 1 19 20
M  V30 20 1 20 21
M  V30 21 1 21 22
M  V30 22 1 22 23
M  V30 23 1 23 24
M  V30 24 1 24 25
M  V30 25 1 23 26
M  V30 26 1 26 27
M  V30 27 1 2 28
M  V30 28 2 28 29
M  V30 29 1 29 30
M  V30 30 2 30 31
M  V30 31 1 31 32
M  V30 32 1 32 33
M  V30 33 1 33 34
M  V30 34 1 33 35
M  V30 35 1 33 36
M  V30 36 2 32 37
M  V30 37 1 19 4
M  V30 38 1 27 20
M  V30 39 1 37 28
M  V30 40 1 18 6
M  V30 41 1 15 10
M  V30 42 1 3 38
M  V30 43 1 7 39
M  V30 44 1 9 40
M  V30 45 1 9 41
M  V30 46 1 11 42
M  V30 47 1 11 43
M  V30 48 1 12 44
M  V30 49 1 12 45
M  V30 50 1 13 46
M  V30 51 1 13 47
M  V30 52 1 14 48
M  V30 53 1 14 49
M  V30 54 1 15 50
M  V30 55 1 15 51
M  V30 56 1 16 52
M  V30 57 1 17 53
M  V30 58 1 20 54 CFG=3
M  V30 59 1 21 55
M  V30 60 1 21 56
M  V30 61 1 22 57
M  V30 62 1 22 58
M  V30 63 1 23 59 CFG=1
M  V30 64 1 24 60
M  V30 65 1 24 61
M  V30 66 1 25 62
M  V30 67 1 26 63
M  V30 68 1 26 64
M  V30 69 1 27 65
M  V30 70 1 27 66
M  V30 71 1 29 67
M  V30 72 1 30 68
M  V30 73 1 31 69
M  V30 74 1 37 70
M  V30 END BOND
M  V30 END CTAB
M  END
>  <Dataset>  (195) 
ChEMBL_Kinases

>  <Ligand_Instance>  (195) 
nan

>  <PDB_ID>  (195) 
nan

>  <Standardized_SMILES>  (195) 
O=C(Nc1nc2cc(CN3CCCCC3)ccc2n1[C@H]1CC[C@@H](CO)CC1)c1cccc(C(F)(F)F)c1

>  <Name>  (195) 
nan

>  <Pocket>  (195) 
nan

>  <ATP_Site>  (195) 
nan

>  <Peripheral>  (195) 
nan

>  <Num_H_Atoms_ProtBoundConf>  (195) 
nan

>  <Num_Resolved_Atoms>  (195) 
nan

>  <Num_Not_Resolved_Atoms>  (195) 
nan

$$$$
CHEMBL576218
     RDKit          3D

  0  0  0  0  0  0  0  0  0  0999 V3000
M  V30 BEGIN CTAB
M  V30 COUNTS 48 51 0 0 0
M  V30 BEGIN ATOM
M  V30 1 C -1.162328 1.282830 -0.330441 0
M  V30 2 N 0.023279 1.365992 0.492949 0
M  V30 3 C 1.126429 2.007779 0.073818 0
M  V30 4 O 1.110054 2.556630 -1.075353 0
M  V30 5 C 2.227003 2.030575 0.931942 0
M  V30 6 C 3.359440 2.757188 0.362194 0
M  V30 7 C 3.695991 4.109727 0.468444 0
M  V30 8 Cl 2.603167 5.025671 1.460151 0
M  V30 9 C 4.808547 4.582806 -0.184192 0
M  V30 10 C 5.648478 3.799240 -0.963248 0
M  V30 11 C 5.270069 2.476129 -1.031697 0
M  V30 12 C 4.165391 1.910019 -0.408370 0
M  V30 13 Cl 3.880121 0.198430 -0.640575 0
M  V30 14 C 2.250659 1.442488 2.168578 0
M  V30 15 C 1.101947 0.804355 2.544677 0
M  V30 16 C 0.980495 0.155300 3.766151 0
M  V30 17 N -0.156618 -0.491367 4.145690 0
M  V30 18 C -1.228162 -0.519924 3.321591 0
M  V30 19 N -2.520576 -1.107755 3.381056 0
M  V30 20 C -2.626975 -2.252288 2.503607 0
M  V30 21 C -1.520869 -2.731204 1.812882 0
M  V30 22 C -1.581505 -3.817835 0.924584 0
M  V30 23 C -2.805075 -4.431649 0.738080 0
M  V30 24 C -2.818755 -5.573934 -0.216641 0
M  V30 25 C -3.025354 -4.973395 -1.619133 0
M  V30 26 O -3.059319 -5.913972 -2.610751 0
M  V30 27 C -3.936729 -3.967461 1.424709 0
M  V30 28 C -3.832217 -2.891020 2.292606 0
M  V30 29 N -1.134655 0.111329 2.116245 0
M  V30 30 C -0.024888 0.757385 1.714361 0
M  V30 31 H -0.834487 1.046834 -1.380096 0
M  V30 32 H -1.675731 2.258456 -0.377741 0
M  V30 33 H -1.877958 0.522657 0.058273 0
M  V30 34 H 5.018284 5.659250 -0.060564 0
M  V30 35 H 6.504534 4.206368 -1.450840 0
M  V30 36 H 5.913220 1.824469 -1.646486 0
M  V30 37 H 3.106791 1.476041 2.801872 0
M  V30 38 H 1.799318 0.148020 4.461631 0
M  V30 39 H -3.348658 -0.855916 3.925137 0
M  V30 40 H -0.541689 -2.288289 1.922416 0
M  V30 41 H -0.710968 -4.153173 0.414194 0
M  V30 42 H -1.847748 -6.081605 -0.247749 0
M  V30 43 H -3.591305 -6.328545 0.018960 0
M  V30 44 H -2.142834 -4.274243 -1.729966 0
M  V30 45 H -3.930751 -4.340180 -1.560089 0
M  V30 46 H -2.344568 -5.674378 -3.283722 0
M  V30 47 H -4.864472 -4.486233 1.237376 0
M  V30 48 H -4.703999 -2.528817 2.828208 0
M  V30 END ATOM
M  V30 BEGIN BOND
M  V30 1 1 1 2
M  V30 2 1 2 3
M  V30 3 2 3 4
M  V30 4 1 3 5
M  V30 5 1 5 6
M  V30 6 2 6 7
M  V30 7 1 7 8
M  V30 8 1 7 9
M  V30 9 2 9 10
M  V30 10 1 10 11
M  V30 11 2 11 12
M  V30 12 1 12 13
M  V30 13 2 5 14
M  V30 14 1 14 15
M  V30 15 2 15 16
M  V30 16 1 16 17
M  V30 17 2 17 18
M  V30 18 1 18 19
M  V30 19 1 19 20
M  V30 20 2 20 21
M  V30 21 1 21 22
M  V30 22 2 22 23
M  V30 23 1 23 24
M  V30 24 1 24 25
M  V30 25 1 25 26
M  V30 26 1 23 27
M  V30 27 2 27 28
M  V30 28 1 18 29
M  V30 29 2 29 30
M  V30 30 1 30 2
M  V30 31 1 12 6
M  V30 32 1 30 15
M  V30 33 1 28 20
M  V30 34 1 1 31
M  V30 35 1 1 32
M  V30 36 1 1 33
M  V30 37 1 9 34
M  V30 38 1 10 35
M  V30 39 1 11 36
M  V30 40 1 14 37
M  V30 41 1 16 38
M  V30 42 1 19 39
M  V30 43 1 21 40
M  V30 44 1 22 41
M  V30 45 1 24 42
M  V30 46 1 24 43
M  V30 47 1 25 44
M  V30 48 1 25 45
M  V30 49 1 26 46
M  V30 50 1 27 47
M  V30 51 1 28 48
M  V30 END BOND
M  V30 END CTAB
M  END
>  <Dataset>  (196) 
ChEMBL_Kinases

>  <Ligand_Instance>  (196) 
nan

>  <PDB_ID>  (196) 
nan

>  <Standardized_SMILES>  (196) 
Cn1c(=O)c(-c2c(Cl)cccc2Cl)cc2cnc(Nc3ccc(CCO)cc3)nc21

>  <Name>  (196) 
nan

>  <Pocket>  (196) 
nan

>  <ATP_Site>  (196) 
nan

>  <Peripheral>  (196) 
nan

>  <Num_H_Atoms_ProtBoundConf>  (196) 
nan

>  <Num_Resolved_Atoms>  (196) 
nan

>  <Num_Not_Resolved_Atoms>  (196) 
nan

$$$$
CHEMBL3735986
     RDKit          3D

  0  0  0  0  0  0  0  0  0  0999 V3000
M  V30 BEGIN CTAB
M  V30 COUNTS 59 63 0 0 0
M  V30 BEGIN ATOM
M  V30 1 O 3.376690 -3.611557 6.491508 0
M  V30 2 C 3.145316 -3.425349 5.280205 0
M  V30 3 O 2.455199 -4.458239 4.700799 0
M  V30 4 C 3.586130 -2.214938 4.598585 0
M  V30 5 C 4.276474 -1.210067 5.233062 0
M  V30 6 O 4.505994 -0.286442 4.317889 0
M  V30 7 C 3.987036 -0.688222 3.165322 0
M  V30 8 C 3.996694 0.024776 1.838604 0
M  V30 9 N 2.852017 0.865693 1.686871 0
M  V30 10 C 2.874403 1.548471 0.397808 0
M  V30 11 C 1.680446 2.475628 0.263194 0
M  V30 12 C 0.681249 2.150151 1.356527 0
M  V30 13 C -0.614116 2.917635 1.154933 0
M  V30 14 N -1.196819 2.564266 -0.125139 0
M  V30 15 C -1.587641 1.263499 -0.490872 0
M  V30 16 O -1.451504 0.293951 0.296426 0
M  V30 17 C -2.172812 1.000081 -1.819674 0
M  V30 18 N -2.408068 1.882920 -2.810368 0
M  V30 19 N -2.949202 1.249867 -3.859131 0
M  V30 20 C -3.086039 -0.062014 -3.592556 0
M  V30 21 C -3.557452 -1.185989 -4.242001 0
M  V30 22 C -3.557039 -2.446158 -3.659266 0
M  V30 23 C -3.063149 -2.585999 -2.370686 0
M  V30 24 C -3.073808 -3.917498 -1.782769 0
M  V30 25 C -4.083989 -4.857107 -1.788604 0
M  V30 26 C -3.902486 -6.074663 -1.170862 0
M  V30 27 C -2.713545 -6.368495 -0.541372 0
M  V30 28 C -1.676668 -5.433444 -0.522335 0
M  V30 29 F -0.545732 -5.809193 0.119292 0
M  V30 30 C -1.873384 -4.200696 -1.153206 0
M  V30 31 F -0.779211 -3.413454 -1.044478 0
M  V30 32 C -2.592148 -1.462562 -1.721982 0
M  V30 33 C -2.597555 -0.216650 -2.310578 0
M  V30 34 C 1.336686 2.479017 2.660447 0
M  V30 35 C 2.704283 1.841945 2.732077 0
M  V30 36 N 3.396701 -1.907920 3.311250 0
M  V30 37 H 1.609463 -4.863033 5.080652 0
M  V30 38 H 4.585184 -1.159601 6.278844 0
M  V30 39 H 3.979890 -0.723533 1.019065 0
M  V30 40 H 4.968532 0.555408 1.796392 0
M  V30 41 H 2.853367 0.765482 -0.376583 0
M  V30 42 H 3.808703 2.141352 0.275830 0
M  V30 43 H 2.021112 3.514254 0.300535 0
M  V30 44 H 1.218727 2.273881 -0.724722 0
M  V30 45 H 0.479198 1.067104 1.347780 0
M  V30 46 H -1.318980 2.712383 1.967468 0
M  V30 47 H -0.403816 4.005167 1.151331 0
M  V30 48 H -1.356537 3.309279 -0.866028 0
M  V30 49 H -3.238812 1.669987 -4.770948 0
M  V30 50 H -3.927079 -1.004097 -5.242021 0
M  V30 51 H -3.934058 -3.291754 -4.203430 0
M  V30 52 H -4.970204 -4.524762 -2.308185 0
M  V30 53 H -4.722596 -6.777264 -1.202471 0
M  V30 54 H -2.579087 -7.334129 -0.055339 0
M  V30 55 H -2.226686 -1.662530 -0.723708 0
M  V30 56 H 0.726716 2.001651 3.474700 0
M  V30 57 H 1.370878 3.569988 2.867878 0
M  V30 58 H 3.464753 2.636891 2.594134 0
M  V30 59 H 2.887250 1.381694 3.729458 0
M  V30 END ATOM
M  V30 BEGIN BOND
M  V30 1 2 1 2
M  V30 2 1 2 3
M  V30 3 1 2 4
M  V30 4 2 4 5
M  V30 5 1 5 6
M  V30 6 1 6 7
M  V30 7 1 7 8
M  V30 8 1 8 9
M  V30 9 1 9 10
M  V30 10 1 10 11
M  V30 11 1 11 12
M  V30 12 1 12 13
M  V30 13 1 13 14
M  V30 14 1 14 15
M  V30 15 2 15 16
M  V30 16 1 15 17
M  V30 17 2 17 18
M  V30 18 1 18 19
M  V30 19 1 19 20
M  V30 20 2 20 21
M  V30 21 1 21 22
M  V30 22 2 22 23
M  V30 23 1 23 24
M  V30 24 2 24 25
M  V30 25 1 25 26
M  V30 26 2 26 27
M  V30 27 1 27 28
M  V30 28 1 28 29
M  V30 29 2 28 30
M  V30 30 1 30 31
M  V30 31 1 23 32
M  V30 32 2 32 33
M  V30 33 1 12 34
M  V30 34 1 34 35
M  V30 35 2 7 36
M  V30 36 1 36 4
M  V30 37 1 35 9
M  V30 38 1 33 17
M  V30 39 1 33 20
M  V30 40 1 30 24
M  V30 41 1 3 37
M  V30 42 1 5 38
M  V30 43 1 8 39
M  V30 44 1 8 40
M  V30 45 1 10 41
M  V30 46 1 10 42
M  V30 47 1 11 43
M  V30 48 1 11 44
M  V30 49 1 12 45
M  V30 50 1 13 46
M  V30 51 1 13 47
M  V30 52 1 14 48
M  V30 53 1 19 49
M  V30 54 1 21 50
M  V30 55 1 22 51
M  V30 56 1 25 52
M  V30 57 1 26 53
M  V30 58 1 27 54
M  V30 59 1 32 55
M  V30 60 1 34 56
M  V30 61 1 34 57
M  V30 62 1 35 58
M  V30 63 1 35 59
M  V30 END BOND
M  V30 END CTAB
M  END
>  <Dataset>  (197) 
ChEMBL_Kinases

>  <Ligand_Instance>  (197) 
nan

>  <PDB_ID>  (197) 
nan

>  <Standardized_SMILES>  (197) 
O=C(O)c1coc(CN2CCC(CNC(=O)c3n[nH]c4ccc(-c5cccc(F)c5F)cc34)CC2)n1

>  <Name>  (197) 
nan

>  <Pocket>  (197) 
nan

>  <ATP_Site>  (197) 
nan

>  <Peripheral>  (197) 
nan

>  <Num_H_Atoms_ProtBoundConf>  (197) 
nan

>  <Num_Resolved_Atoms>  (197) 
nan

>  <Num_Not_Resolved_Atoms>  (197) 
nan

$$$$
CHEMBL3735984
     RDKit          3D

  0  0  0  0  0  0  0  0  0  0999 V3000
M  V30 BEGIN CTAB
M  V30 COUNTS 57 60 0 0 0
M  V30 BEGIN ATOM
M  V30 1 C 2.889109 -5.661774 2.848757 0
M  V30 2 O 2.541798 -4.632651 1.910098 0
M  V30 3 C 2.921753 -3.337939 2.272482 0
M  V30 4 C 3.587580 -3.128304 3.470974 0
M  V30 5 C 3.979225 -1.845117 3.858606 0
M  V30 6 C 3.670193 -0.796191 2.988936 0
M  V30 7 N 3.917296 0.530961 3.093327 0
M  V30 8 N 3.421229 1.090238 2.005668 0
M  V30 9 C 2.855412 0.205090 1.180597 0
M  V30 10 C 2.204089 0.430118 -0.103498 0
M  V30 11 O 1.730217 -0.550312 -0.730239 0
M  V30 12 N 2.057461 1.695117 -0.717559 0
M  V30 13 C 1.466068 2.140700 -1.927855 0
M  V30 14 C 0.010787 1.946552 -2.112779 0
M  V30 15 C -0.864812 2.628493 -1.082202 0
M  V30 16 C -2.152101 1.907920 -0.856112 0
M  V30 17 N -2.764652 1.334510 -2.009100 0
M  V30 18 C -3.919969 0.570057 -1.669242 0
M  V30 19 C -3.686700 -0.555681 -0.744288 0
M  V30 20 C -3.353242 -1.837188 -1.129488 0
M  V30 21 C -3.136582 -2.889736 -0.264523 0
M  V30 22 C -3.250858 -2.688403 1.075361 0
M  V30 23 C -3.011796 -3.829309 1.993014 0
M  V30 24 F -1.706474 -3.815537 2.448263 0
M  V30 25 F -3.890215 -3.774916 3.081932 0
M  V30 26 F -3.232285 -5.023470 1.339805 0
M  V30 27 C -3.577231 -1.452768 1.545924 0
M  V30 28 C -3.784394 -0.432373 0.643882 0
M  V30 29 C -1.880485 0.727385 -2.959998 0
M  V30 30 C -0.503028 0.561747 -2.274355 0
M  V30 31 C 3.004598 -1.019114 1.794572 0
M  V30 32 C 2.621159 -2.296556 1.420775 0
M  V30 33 H 2.570255 -6.653318 2.529556 0
M  V30 34 H 3.996864 -5.632129 3.047515 0
M  V30 35 H 2.406165 -5.363475 3.805118 0
M  V30 36 H 3.835430 -3.927580 4.157603 0
M  V30 37 H 4.502926 -1.612951 4.781503 0
M  V30 38 H 4.403968 1.012739 3.880590 0
M  V30 39 H 2.505518 2.441845 -0.094630 0
M  V30 40 H 1.666635 3.235913 -2.065645 0
M  V30 41 H 1.966545 1.686030 -2.834645 0
M  V30 42 H -0.245890 2.486585 -3.083115 0
M  V30 43 H -0.311766 2.605337 -0.114204 0
M  V30 44 H -1.040603 3.698239 -1.317134 0
M  V30 45 H -2.869377 2.662288 -0.455261 0
M  V30 46 H -2.031197 1.152797 -0.046978 0
M  V30 47 H -4.692763 1.283367 -1.269335 0
M  V30 48 H -4.398659 0.182070 -2.613844 0
M  V30 49 H -3.250955 -2.049092 -2.185974 0
M  V30 50 H -2.874803 -3.884185 -0.626668 0
M  V30 51 H -3.671583 -1.278179 2.611455 0
M  V30 52 H -4.044005 0.528697 1.080883 0
M  V30 53 H -2.219224 -0.238480 -3.368234 0
M  V30 54 H -1.754928 1.415261 -3.832901 0
M  V30 55 H -0.796105 0.089334 -1.288745 0
M  V30 56 H 0.144194 -0.047638 -2.896408 0
M  V30 57 H 2.102226 -2.508779 0.498852 0
M  V30 END ATOM
M  V30 BEGIN BOND
M  V30 1 1 1 2
M  V30 2 1 2 3
M  V30 3 2 3 4
M  V30 4 1 4 5
M  V30 5 2 5 6
M  V30 6 1 6 7
M  V30 7 1 7 8
M  V30 8 2 8 9
M  V30 9 1 9 10
M  V30 10 2 10 11
M  V30 11 1 10 12
M  V30 12 1 12 13
M  V30 13 1 13 14
M  V30 14 1 14 15
M  V30 15 1 15 16
M  V30 16 1 16 17
M  V30 17 1 17 18
M  V30 18 1 18 19
M  V30 19 2 19 20
M  V30 20 1 20 21
M  V30 21 2 21 22
M  V30 22 1 22 23
M  V30 23 1 23 24
M  V30 24 1 23 25
M  V30 25 1 23 26
M  V30 26 1 22 27
M  V30 27 2 27 28
M  V30 28 1 17 29
M  V30 29 1 29 30
M  V30 30 1 9 31
M  V30 31 2 31 32
M  V30 32 1 32 3
M  V30 33 1 31 6
M  V30 34 1 30 14
M  V30 35 1 28 19
M  V30 36 1 1 33
M  V30 37 1 1 34
M  V30 38 1 1 35
M  V30 39 1 4 36
M  V30 40 1 5 37
M  V30 41 1 7 38
M  V30 42 1 12 39
M  V30 43 1 13 40
M  V30 44 1 13 41
M  V30 45 1 14 42
M  V30 46 1 15 43
M  V30 47 1 15 44
M  V30 48 1 16 45
M  V30 49 1 16 46
M  V30 50 1 18 47
M  V30 51 1 18 48
M  V30 52 1 20 49
M  V30 53 1 21 50
M  V30 54 1 27 51
M  V30 55 1 28 52
M  V30 56 1 29 53
M  V30 57 1 29 54
M  V30 58 1 30 55
M  V30 59 1 30 56
M  V30 60 1 32 57
M  V30 END BOND
M  V30 END CTAB
M  END
>  <Dataset>  (198) 
ChEMBL_Kinases

>  <Ligand_Instance>  (198) 
nan

>  <PDB_ID>  (198) 
nan

>  <Standardized_SMILES>  (198) 
COc1ccc2[nH]nc(C(=O)NCC3CCN(Cc4ccc(C(F)(F)F)cc4)CC3)c2c1

>  <Name>  (198) 
nan

>  <Pocket>  (198) 
nan

>  <ATP_Site>  (198) 
nan

>  <Peripheral>  (198) 
nan

>  <Num_H_Atoms_ProtBoundConf>  (198) 
nan

>  <Num_Resolved_Atoms>  (198) 
nan

>  <Num_Not_Resolved_Atoms>  (198) 
nan

$$$$
CHEMBL511419
     RDKit          3D

  0  0  0  0  0  0  0  0  0  0999 V3000
M  V30 BEGIN CTAB
M  V30 COUNTS 47 50 0 0 0
M  V30 BEGIN ATOM
M  V30 1 C -3.369480 -2.400279 -0.713448 0
M  V30 2 C -2.101836 -2.681760 0.072064 0 CFG=1
M  V30 3 N -1.511431 -1.385073 0.402446 0
M  V30 4 C -1.148438 -0.533981 -0.676577 0
M  V30 5 C -0.249134 -0.051729 -1.631484 0
M  V30 6 N 1.047368 -0.678460 -1.612105 0
M  V30 7 C 2.161866 -0.220752 -0.846370 0
M  V30 8 C 3.364736 -0.904870 -0.895820 0
M  V30 9 C 4.388121 -0.392988 -0.126079 0
M  V30 10 N 4.259946 0.704092 0.639322 0
M  V30 11 C 3.092432 1.388438 0.702415 0
M  V30 12 C 2.969270 2.577965 1.537646 0
M  V30 13 C 1.830896 3.343195 1.671874 0
M  V30 14 C 1.763365 4.461908 2.475274 0
M  V30 15 C 2.874133 4.868137 3.198753 0
M  V30 16 C 4.013933 4.111491 3.071480 0
M  V30 17 C 4.064831 2.995113 2.263391 0
M  V30 18 C 2.049571 0.901133 -0.056497 0
M  V30 19 C -1.221821 0.827487 -2.078173 0
M  V30 20 O -0.790269 1.539437 -3.043715 0
M  V30 21 C -2.119061 0.341723 -1.120678 0
M  V30 22 O -3.230794 0.961582 -1.224839 0
M  V30 23 C -2.371591 -3.477758 1.284391 0
M  V30 24 C -2.965118 -2.896754 2.390037 0
M  V30 25 C -3.202741 -3.671001 3.506217 0
M  V30 26 C -2.849007 -5.024255 3.520734 0
M  V30 27 C -2.255561 -5.617627 2.423397 0
M  V30 28 C -2.019535 -4.829881 1.302180 0
M  V30 29 H -3.889952 -1.538347 -0.239804 0
M  V30 30 H -3.983923 -3.335065 -0.605546 0
M  V30 31 H -3.143516 -2.179711 -1.775620 0
M  V30 32 H -1.430826 -3.238136 -0.607459 0
M  V30 33 H -1.362000 -1.095527 1.401620 0
M  V30 34 H 1.153225 -1.529722 -2.211509 0
M  V30 35 H 3.405959 -1.772332 -1.523826 0
M  V30 36 H 5.320126 -0.934386 -0.172838 0
M  V30 37 H 0.953880 3.043166 1.116127 0
M  V30 38 H 0.819800 5.026300 2.535163 0
M  V30 39 H 2.803135 5.747817 3.823659 0
M  V30 40 H 4.864307 4.466309 3.657602 0
M  V30 41 H 5.017999 2.448006 2.220230 0
M  V30 42 H 1.095368 1.388555 -0.058379 0
M  V30 43 H -3.254989 -1.859799 2.426284 0
M  V30 44 H -3.672256 -3.254008 4.409605 0
M  V30 45 H -3.025254 -5.668742 4.395022 0
M  V30 46 H -1.993983 -6.664563 2.466059 0
M  V30 47 H -1.561664 -5.248614 0.429370 0
M  V30 END ATOM
M  V30 BEGIN BOND
M  V30 1 1 1 2
M  V30 2 1 2 3
M  V30 3 1 3 4
M  V30 4 2 4 5
M  V30 5 1 5 6
M  V30 6 1 6 7
M  V30 7 2 7 8
M  V30 8 1 8 9
M  V30 9 2 9 10
M  V30 10 1 10 11
M  V30 11 1 11 12
M  V30 12 2 12 13
M  V30 13 1 13 14
M  V30 14 2 14 15
M  V30 15 1 15 16
M  V30 16 2 16 17
M  V30 17 2 11 18
M  V30 18 1 5 19
M  V30 19 2 19 20
M  V30 20 1 19 21
M  V30 21 2 21 22
M  V30 22 1 2 23
M  V30 23 2 23 24
M  V30 24 1 24 25
M  V30 25 2 25 26
M  V30 26 1 26 27
M  V30 27 2 27 28
M  V30 28 1 21 4
M  V30 29 1 28 23
M  V30 30 1 18 7
M  V30 31 1 17 12
M  V30 32 1 1 29
M  V30 33 1 1 30
M  V30 34 1 1 31
M  V30 35 1 2 32 CFG=3
M  V30 36 1 3 33
M  V30 37 1 6 34
M  V30 38 1 8 35
M  V30 39 1 9 36
M  V30 40 1 13 37
M  V30 41 1 14 38
M  V30 42 1 15 39
M  V30 43 1 16 40
M  V30 44 1 17 41
M  V30 45 1 18 42
M  V30 46 1 24 43
M  V30 47 1 25 44
M  V30 48 1 26 45
M  V30 49 1 27 46
M  V30 50 1 28 47
M  V30 END BOND
M  V30 END CTAB
M  END
>  <Dataset>  (199) 
ChEMBL_Kinases

>  <Ligand_Instance>  (199) 
nan

>  <PDB_ID>  (199) 
nan

>  <Standardized_SMILES>  (199) 
C[C@@H](Nc1c(Nc2ccnc(-c3ccccc3)c2)c(=O)c1=O)c1ccccc1

>  <Name>  (199) 
nan

>  <Pocket>  (199) 
nan

>  <ATP_Site>  (199) 
nan

>  <Peripheral>  (199) 
nan

>  <Num_H_Atoms_ProtBoundConf>  (199) 
nan

>  <Num_Resolved_Atoms>  (199) 
nan

>  <Num_Not_Resolved_Atoms>  (199) 
nan

$$$$
CHEMBL3735967
     RDKit          3D

  0  0  0  0  0  0  0  0  0  0999 V3000
M  V30 BEGIN CTAB
M  V30 COUNTS 56 59 0 0 0
M  V30 BEGIN ATOM
M  V30 1 C 0.070127 -2.111629 4.188217 0
M  V30 2 O 1.023009 -2.180986 3.168879 0
M  V30 3 C 2.314666 -2.063269 3.668418 0
M  V30 4 C 3.310287 -2.145792 2.512161 0
M  V30 5 N 3.066673 -1.121183 1.602769 0
M  V30 6 C 3.289082 0.224789 1.916975 0
M  V30 7 C 2.465516 1.079914 0.933564 0
M  V30 8 C 2.936844 0.862968 -0.469770 0
M  V30 9 C 2.116451 1.636647 -1.482347 0
M  V30 10 N 0.741811 1.278323 -1.471999 0
M  V30 11 C -0.233280 1.821436 -2.295113 0
M  V30 12 O 0.302315 2.694174 -3.060505 0
M  V30 13 C -1.650992 1.578881 -2.418750 0
M  V30 14 N -2.318314 2.387708 -3.277027 0
M  V30 15 N -3.603664 2.044809 -3.287695 0
M  V30 16 C -3.850627 1.015131 -2.457116 0
M  V30 17 C -4.912575 0.241805 -2.049184 0
M  V30 18 C -4.749746 -0.780922 -1.134109 0
M  V30 19 C -3.494750 -1.029956 -0.620392 0
M  V30 20 C -3.309899 -2.109635 0.347438 0
M  V30 21 C -2.115332 -2.795571 0.392385 0
M  V30 22 C -1.792110 -3.843192 1.254139 0
M  V30 23 C -2.809785 -4.179798 2.123801 0
M  V30 24 N -4.009186 -3.530854 2.117693 0
M  V30 25 C -4.275291 -2.519889 1.261643 0
M  V30 26 C -2.436308 -0.253754 -1.031540 0
M  V30 27 C -2.589012 0.748633 -1.926028 0
M  V30 28 C 3.036806 -0.588880 -0.759448 0
M  V30 29 C 2.440174 -1.400207 0.363390 0
M  V30 30 H -0.969067 -2.201896 3.800252 0
M  V30 31 H 0.202971 -2.960353 4.901318 0
M  V30 32 H 0.169495 -1.176776 4.789373 0
M  V30 33 H 2.497952 -2.898886 4.392998 0
M  V30 34 H 2.459073 -1.074416 4.141236 0
M  V30 35 H 3.088502 -3.129812 1.998796 0
M  V30 36 H 4.344517 -2.258576 2.885295 0
M  V30 37 H 4.349791 0.545864 1.931132 0
M  V30 38 H 2.870093 0.484678 2.909358 0
M  V30 39 H 1.414080 0.788441 1.038610 0
M  V30 40 H 2.568338 2.140458 1.261726 0
M  V30 41 H 3.969987 1.332258 -0.506761 0
M  V30 42 H 2.528335 1.362300 -2.487081 0
M  V30 43 H 2.357364 2.691771 -1.346565 0
M  V30 44 H 0.454467 0.572256 -0.803755 0
M  V30 45 H -4.346468 2.501964 -3.859319 0
M  V30 46 H -5.829574 0.548850 -2.533214 0
M  V30 47 H -5.636490 -1.339241 -0.868107 0
M  V30 48 H -1.341207 -2.492813 -0.314843 0
M  V30 49 H -0.826596 -4.311675 1.206173 0
M  V30 50 H -2.627010 -4.997975 2.832515 0
M  V30 51 H -5.217822 -2.012375 1.260595 0
M  V30 52 H -1.494637 -0.487025 -0.609955 0
M  V30 53 H 4.125370 -0.864329 -0.826425 0
M  V30 54 H 2.626674 -0.878307 -1.749121 0
M  V30 55 H 1.356385 -1.181968 0.526733 0
M  V30 56 H 2.566090 -2.467984 0.041434 0
M  V30 END ATOM
M  V30 BEGIN BOND
M  V30 1 1 1 2
M  V30 2 1 2 3
M  V30 3 1 3 4
M  V30 4 1 4 5
M  V30 5 1 5 6
M  V30 6 1 6 7
M  V30 7 1 7 8
M  V30 8 1 8 9
M  V30 9 1 9 10
M  V30 10 1 10 11
M  V30 11 2 11 12
M  V30 12 1 11 13
M  V30 13 2 13 14
M  V30 14 1 14 15
M  V30 15 1 15 16
M  V30 16 2 16 17
M  V30 17 1 17 18
M  V30 18 2 18 19
M  V30 19 1 19 20
M  V30 20 2 20 21
M  V30 21 1 21 22
M  V30 22 2 22 23
M  V30 23 1 23 24
M  V30 24 2 24 25
M  V30 25 1 19 26
M  V30 26 2 26 27
M  V30 27 1 8 28
M  V30 28 1 28 29
M  V30 29 1 29 5
M  V30 30 1 27 13
M  V30 31 1 27 16
M  V30 32 1 25 20
M  V30 33 1 1 30
M  V30 34 1 1 31
M  V30 35 1 1 32
M  V30 36 1 3 33
M  V30 37 1 3 34
M  V30 38 1 4 35
M  V30 39 1 4 36
M  V30 40 1 6 37
M  V30 41 1 6 38
M  V30 42 1 7 39
M  V30 43 1 7 40
M  V30 44 1 8 41
M  V30 45 1 9 42
M  V30 46 1 9 43
M  V30 47 1 10 44
M  V30 48 1 15 45
M  V30 49 1 17 46
M  V30 50 1 18 47
M  V30 51 1 21 48
M  V30 52 1 22 49
M  V30 53 1 23 50
M  V30 54 1 25 51
M  V30 55 1 26 52
M  V30 56 1 28 53
M  V30 57 1 28 54
M  V30 58 1 29 55
M  V30 59 1 29 56
M  V30 END BOND
M  V30 END CTAB
M  END
>  <Dataset>  (200) 
ChEMBL_Kinases

>  <Ligand_Instance>  (200) 
nan

>  <PDB_ID>  (200) 
nan

>  <Standardized_SMILES>  (200) 
COCCN1CCC(CNC(=O)c2n[nH]c3ccc(-c4cccnc4)cc23)CC1

>  <Name>  (200) 
nan

>  <Pocket>  (200) 
nan

>  <ATP_Site>  (200) 
nan

>  <Peripheral>  (200) 
nan

>  <Num_H_Atoms_ProtBoundConf>  (200) 
nan

>  <Num_Resolved_Atoms>  (200) 
nan

>  <Num_Not_Resolved_Atoms>  (200) 
nan

$$$$
CHEMBL3735962
     RDKit          3D

  0  0  0  0  0  0  0  0  0  0999 V3000
M  V30 BEGIN CTAB
M  V30 COUNTS 54 57 0 0 0
M  V30 BEGIN ATOM
M  V30 1 C 2.084160 -7.612118 -1.304305 0
M  V30 2 O 1.581049 -6.304888 -1.181774 0
M  V30 3 C 2.166475 -5.220352 -1.802401 0
M  V30 4 C 3.288983 -5.373490 -2.582901 0
M  V30 5 C 3.851678 -4.255423 -3.193456 0
M  V30 6 C 3.300067 -2.982379 -3.029790 0
M  V30 7 N 3.580399 -1.747019 -3.459240 0
M  V30 8 N 2.714958 -0.867760 -2.997668 0
M  V30 9 C 1.790844 -1.473054 -2.220664 0
M  V30 10 C 0.633718 -0.991403 -1.479634 0
M  V30 11 O -0.138673 -1.734484 -0.785189 0
M  V30 12 N 0.247321 0.365749 -1.457257 0
M  V30 13 C -0.924794 0.610887 -0.664637 0
M  V30 14 C -1.321826 2.066518 -0.652354 0
M  V30 15 C -0.263916 2.959065 -0.096008 0
M  V30 16 C -0.435958 3.277126 1.364053 0
M  V30 17 N -1.116304 2.169879 1.995913 0
M  V30 18 C -0.953449 2.174748 3.432786 0
M  V30 19 C -1.631277 1.079679 4.127553 0
M  V30 20 C -2.943082 1.140016 4.601234 0
M  V30 21 C -3.620858 0.136322 5.260798 0
M  V30 22 C -2.958718 -1.028874 5.476605 0
M  V30 23 C -1.669456 -1.208195 5.059180 0
M  V30 24 C -1.056425 -0.165689 4.408617 0
M  V30 25 C -2.475028 1.981176 1.583463 0
M  V30 26 C -2.597182 2.253701 0.116002 0
M  V30 27 C 2.170436 -2.807447 -2.248168 0
M  V30 28 C 1.657700 -3.956955 -1.667822 0
M  V30 29 H 1.661984 -8.058478 -2.248028 0
M  V30 30 H 3.201703 -7.646788 -1.315819 0
M  V30 31 H 1.718366 -8.230258 -0.438454 0
M  V30 32 H 3.768165 -6.306587 -2.757352 0
M  V30 33 H 4.725557 -4.230005 -3.827895 0
M  V30 34 H 4.380009 -1.495921 -4.081673 0
M  V30 35 H 0.816915 1.069288 -1.996568 0
M  V30 36 H -0.753864 0.311268 0.397295 0
M  V30 37 H -1.804640 0.026851 -1.006840 0
M  V30 38 H -1.538058 2.387892 -1.699604 0
M  V30 39 H 0.779440 2.627681 -0.323437 0
M  V30 40 H -0.345868 3.954529 -0.622638 0
M  V30 41 H -0.886283 4.265663 1.565427 0
M  V30 42 H 0.580160 3.305995 1.838136 0
M  V30 43 H -1.274578 3.167791 3.832938 0
M  V30 44 H 0.148489 2.114005 3.631588 0
M  V30 45 H -3.492973 2.077435 4.434045 0
M  V30 46 H -4.625900 0.266930 5.589311 0
M  V30 47 H -3.485898 -1.808346 5.989272 0
M  V30 48 H -1.172070 -2.132190 5.241315 0
M  V30 49 H -0.024648 -0.328719 4.082240 0
M  V30 50 H -2.768833 0.939805 1.829803 0
M  V30 51 H -3.189856 2.637373 2.121073 0
M  V30 52 H -3.359576 1.613174 -0.375934 0
M  V30 53 H -2.900922 3.334853 -0.005489 0
M  V30 54 H 0.773297 -3.872033 -1.046947 0
M  V30 END ATOM
M  V30 BEGIN BOND
M  V30 1 1 1 2
M  V30 2 1 2 3
M  V30 3 2 3 4
M  V30 4 1 4 5
M  V30 5 2 5 6
M  V30 6 1 6 7
M  V30 7 1 7 8
M  V30 8 2 8 9
M  V30 9 1 9 10
M  V30 10 2 10 11
M  V30 11 1 10 12
M  V30 12 1 12 13
M  V30 13 1 13 14
M  V30 14 1 14 15
M  V30 15 1 15 16
M  V30 16 1 16 17
M  V30 17 1 17 18
M  V30 18 1 18 19
M  V30 19 2 19 20
M  V30 20 1 20 21
M  V30 21 2 21 22
M  V30 22 1 22 23
M  V30 23 2 23 24
M  V30 24 1 17 25
M  V30 25 1 25 26
M  V30 26 1 9 27
M  V30 27 2 27 28
M  V30 28 1 28 3
M  V30 29 1 27 6
M  V30 30 1 26 14
M  V30 31 1 24 19
M  V30 32 1 1 29
M  V30 33 1 1 30
M  V30 34 1 1 31
M  V30 35 1 4 32
M  V30 36 1 5 33
M  V30 37 1 7 34
M  V30 38 1 12 35
M  V30 39 1 13 36
M  V30 40 1 13 37
M  V30 41 1 14 38
M  V30 42 1 15 39
M  V30 43 1 15 40
M  V30 44 1 16 41
M  V30 45 1 16 42
M  V30 46 1 18 43
M  V30 47 1 18 44
M  V30 48 1 20 45
M  V30 49 1 21 46
M  V30 50 1 22 47
M  V30 51 1 23 48
M  V30 52 1 24 49
M  V30 53 1 25 50
M  V30 54 1 25 51
M  V30 55 1 26 52
M  V30 56 1 26 53
M  V30 57 1 28 54
M  V30 END BOND
M  V30 END CTAB
M  END
>  <Dataset>  (201) 
ChEMBL_Kinases

>  <Ligand_Instance>  (201) 
nan

>  <PDB_ID>  (201) 
nan

>  <Standardized_SMILES>  (201) 
COc1ccc2[nH]nc(C(=O)NCC3CCN(Cc4ccccc4)CC3)c2c1

>  <Name>  (201) 
nan

>  <Pocket>  (201) 
nan

>  <ATP_Site>  (201) 
nan

>  <Peripheral>  (201) 
nan

>  <Num_H_Atoms_ProtBoundConf>  (201) 
nan

>  <Num_Resolved_Atoms>  (201) 
nan

>  <Num_Not_Resolved_Atoms>  (201) 
nan

$$$$
CHEMBL511472
     RDKit          3D

  0  0  0  0  0  0  0  0  0  0999 V3000
M  V30 BEGIN CTAB
M  V30 COUNTS 56 59 0 0 0
M  V30 BEGIN ATOM
M  V30 1 C 6.820049 -0.847364 3.879005 0
M  V30 2 N 6.185483 -1.530977 2.772208 0
M  V30 3 C 6.802802 -2.734844 2.299571 0
M  V30 4 C 4.997242 -1.015539 2.187569 0
M  V30 5 C 4.445116 0.148609 2.681632 0
M  V30 6 C 3.293916 0.692742 2.151660 0
M  V30 7 C 2.641736 0.074627 1.083628 0
M  V30 8 C 1.407175 0.565461 0.436744 0
M  V30 9 O 0.938771 -0.076307 -0.493966 0
M  V30 10 O 0.856234 1.669845 0.880677 0
M  V30 11 C -0.149356 2.548909 0.756700 0
M  V30 12 C -1.526124 2.011577 1.015459 0
M  V30 13 C -2.539218 3.173712 1.083942 0
M  V30 14 O -2.190638 4.063836 2.078753 0
M  V30 15 C -2.016953 1.011671 0.023019 0
M  V30 16 C -1.983565 -0.243099 0.817141 0
M  V30 17 C -2.423648 -1.471280 0.486121 0
M  V30 18 C -3.043976 -1.846717 -0.753607 0
M  V30 19 C -2.718034 -1.480461 -2.038843 0
M  V30 20 C -3.403313 -1.896866 -3.157026 0
M  V30 21 C -4.491449 -2.733531 -3.038741 0
M  V30 22 C -5.219433 -3.185258 -4.112281 0
M  V30 23 C -6.298761 -4.025522 -3.871806 0
M  V30 24 C -6.650666 -4.412577 -2.578952 0
M  V30 25 C -5.880522 -3.925573 -1.541597 0
M  V30 26 C -4.784469 -3.076888 -1.736065 0
M  V30 27 N -4.123539 -2.676683 -0.642414 0
M  V30 28 C -1.370333 0.028874 2.141650 0
M  V30 29 O -0.778748 -0.762050 2.938316 0
M  V30 30 O -1.607219 1.417365 2.312243 0
M  V30 31 C 3.244866 -1.089118 0.633355 0
M  V30 32 C 4.392254 -1.667032 1.132309 0
M  V30 33 H 7.483323 -1.521112 4.460453 0
M  V30 34 H 7.322467 0.089501 3.584257 0
M  V30 35 H 6.010269 -0.565725 4.593513 0
M  V30 36 H 7.357558 -2.613411 1.344129 0
M  V30 37 H 7.483516 -3.180369 3.059301 0
M  V30 38 H 5.991328 -3.495123 2.146888 0
M  V30 39 H 4.860973 0.717878 3.507615 0
M  V30 40 H 2.839777 1.600368 2.517181 0
M  V30 41 H -0.179671 3.106037 -0.230071 0
M  V30 42 H 0.002357 3.344264 1.554042 0
M  V30 43 H -2.564656 3.704150 0.102146 0
M  V30 44 H -3.530131 2.745856 1.337997 0
M  V30 45 H -1.605873 3.693687 2.777989 0
M  V30 46 H -1.395128 1.055669 -0.854518 0
M  V30 47 H -3.087023 1.255468 -0.256444 0
M  V30 48 H -2.303146 -2.288636 1.221008 0
M  V30 49 H -1.880098 -0.842355 -2.150183 0
M  V30 50 H -3.082611 -1.562508 -4.135622 0
M  V30 51 H -4.933413 -2.875277 -5.111293 0
M  V30 52 H -6.883230 -4.389243 -4.723392 0
M  V30 53 H -7.484700 -5.059618 -2.418127 0
M  V30 54 H -6.178625 -4.245203 -0.538072 0
M  V30 55 H 2.773171 -1.615143 -0.203905 0
M  V30 56 H 4.781385 -2.574557 0.711551 0
M  V30 END ATOM
M  V30 BEGIN BOND
M  V30 1 1 1 2
M  V30 2 1 2 3
M  V30 3 1 2 4
M  V30 4 2 4 5
M  V30 5 1 5 6
M  V30 6 2 6 7
M  V30 7 1 7 8
M  V30 8 2 8 9
M  V30 9 1 8 10
M  V30 10 1 10 11
M  V30 11 1 11 12
M  V30 12 1 12 13
M  V30 13 1 13 14
M  V30 14 1 12 15
M  V30 15 1 15 16
M  V30 16 2 16 17
M  V30 17 1 17 18
M  V30 18 2 18 19
M  V30 19 1 19 20
M  V30 20 2 20 21
M  V30 21 1 21 22
M  V30 22 2 22 23
M  V30 23 1 23 24
M  V30 24 2 24 25
M  V30 25 1 25 26
M  V30 26 2 26 27
M  V30 27 1 16 28
M  V30 28 2 28 29
M  V30 29 1 28 30
M  V30 30 1 7 31
M  V30 31 2 31 32
M  V30 32 1 32 4
M  V30 33 1 30 12
M  V30 34 1 27 18
M  V30 35 1 26 21
M  V30 36 1 1 33
M  V30 37 1 1 34
M  V30 38 1 1 35
M  V30 39 1 3 36
M  V30 40 1 3 37
M  V30 41 1 3 38
M  V30 42 1 5 39
M  V30 43 1 6 40
M  V30 44 1 11 41
M  V30 45 1 11 42
M  V30 46 1 13 43
M  V30 47 1 13 44
M  V30 48 1 14 45
M  V30 49 1 15 46
M  V30 50 1 15 47
M  V30 51 1 17 48
M  V30 52 1 19 49
M  V30 53 1 20 50
M  V30 54 1 22 51
M  V30 55 1 23 52
M  V30 56 1 24 53
M  V30 57 1 25 54
M  V30 58 1 31 55
M  V30 59 1 32 56
M  V30 END BOND
M  V30 END CTAB
M  END
>  <Dataset>  (202) 
ChEMBL_Kinases

>  <Ligand_Instance>  (202) 
nan

>  <PDB_ID>  (202) 
nan

>  <Standardized_SMILES>  (202) 
CN(C)c1ccc(C(=O)OCC2(CO)C/C(=C\c3ccc4ccccc4n3)C(=O)O2)cc1

>  <Name>  (202) 
nan

>  <Pocket>  (202) 
nan

>  <ATP_Site>  (202) 
nan

>  <Peripheral>  (202) 
nan

>  <Num_H_Atoms_ProtBoundConf>  (202) 
nan

>  <Num_Resolved_Atoms>  (202) 
nan

>  <Num_Not_Resolved_Atoms>  (202) 
nan

$$$$
CHEMBL3735882
     RDKit          3D

  0  0  0  0  0  0  0  0  0  0999 V3000
M  V30 BEGIN CTAB
M  V30 COUNTS 66 69 0 0 0
M  V30 BEGIN ATOM
M  V30 1 C 4.146173 -3.908316 5.079994 0
M  V30 2 O 3.641071 -2.886702 4.284878 0
M  V30 3 C 4.279710 -2.239156 3.241210 0
M  V30 4 C 5.562417 -2.517039 2.818428 0
M  V30 5 C 6.150074 -1.828626 1.757701 0
M  V30 6 C 5.431067 -0.842846 1.112331 0
M  V30 7 N 5.589081 0.015459 0.101536 0
M  V30 8 N 4.513407 0.770441 -0.104444 0
M  V30 9 C 3.560434 0.430700 0.796943 0
M  V30 10 C 2.313055 1.140201 0.724553 0
M  V30 11 O 2.146355 1.959752 -0.236148 0
M  V30 12 N 1.137143 1.176719 1.488791 0
M  V30 13 C 0.070206 2.044565 1.074015 0
M  V30 14 C -1.072483 1.912277 2.048883 0
M  V30 15 C -1.549378 0.505538 2.076255 0
M  V30 16 C -2.114220 0.146247 0.692624 0
M  V30 17 N -3.199360 0.993122 0.450523 0
M  V30 18 C -4.310194 0.404561 -0.216912 0
M  V30 19 C -4.023470 0.066253 -1.661471 0
M  V30 20 N -2.970994 -0.901933 -1.798413 0
M  V30 21 C -2.587062 -1.041130 -3.220530 0
M  V30 22 C -1.281203 -1.807441 -3.204143 0 CFG=1
M  V30 23 C -0.186890 -0.768516 -3.386912 0
M  V30 24 O -1.104267 -2.472775 -2.004647 0
M  V30 25 C -2.236548 -3.143383 -1.551672 0 CFG=1
M  V30 26 C -1.888728 -3.657638 -0.152779 0
M  V30 27 C -3.462663 -2.255255 -1.486112 0
M  V30 28 C -3.473060 2.032904 1.369616 0
M  V30 29 C -2.218598 2.830241 1.724969 0
M  V30 30 C 4.148809 -0.567278 1.537911 0
M  V30 31 C 3.581162 -1.248548 2.579981 0
M  V30 32 H 3.358012 -4.680361 5.334984 0
M  V30 33 H 4.915745 -4.469622 4.519569 0
M  V30 34 H 4.535544 -3.596385 6.072554 0
M  V30 35 H 6.117258 -3.285959 3.325349 0
M  V30 36 H 7.146670 -2.020291 1.402504 0
M  V30 37 H 6.461764 0.089357 -0.469694 0
M  V30 38 H 1.156419 0.555268 2.312484 0
M  V30 39 H -0.221369 1.896586 0.028522 0
M  V30 40 H 0.419664 3.118933 1.143074 0
M  V30 41 H -0.656809 2.128098 3.068543 0
M  V30 42 H -2.403690 0.337748 2.767147 0
M  V30 43 H -0.735024 -0.158219 2.370339 0
M  V30 44 H -1.348592 0.230663 -0.103361 0
M  V30 45 H -2.322883 -0.944405 0.779680 0
M  V30 46 H -5.230064 1.055710 -0.149438 0
M  V30 47 H -4.636053 -0.553575 0.282921 0
M  V30 48 H -3.707496 1.019724 -2.140357 0
M  V30 49 H -4.955696 -0.240628 -2.189454 0
M  V30 50 H -2.479464 -0.059549 -3.695181 0
M  V30 51 H -3.339403 -1.659142 -3.716624 0
M  V30 52 H -1.224272 -2.506611 -4.065134 0
M  V30 53 H 0.813944 -1.204074 -3.362149 0
M  V30 54 H -0.386089 -0.216738 -4.328282 0
M  V30 55 H -0.294901 -0.009110 -2.561582 0
M  V30 56 H -2.418101 -3.969877 -2.249318 0
M  V30 57 H -1.711796 -4.737239 -0.197952 0
M  V30 58 H -1.020721 -3.146417 0.270805 0
M  V30 59 H -2.769002 -3.513089 0.519397 0
M  V30 60 H -4.256207 -2.579506 -2.194268 0
M  V30 61 H -3.841188 -2.242005 -0.460193 0
M  V30 62 H -3.994451 1.716947 2.293410 0
M  V30 63 H -4.146084 2.791714 0.879295 0
M  V30 64 H -2.466436 3.404327 2.641688 0
M  V30 65 H -1.976069 3.571829 0.938882 0
M  V30 66 H 2.582574 -1.040801 2.912121 0
M  V30 END ATOM
M  V30 BEGIN BOND
M  V30 1 1 1 2
M  V30 2 1 2 3
M  V30 3 2 3 4
M  V30 4 1 4 5
M  V30 5 2 5 6
M  V30 6 1 6 7
M  V30 7 1 7 8
M  V30 8 2 8 9
M  V30 9 1 9 10
M  V30 10 2 10 11
M  V30 11 1 10 12
M  V30 12 1 12 13
M  V30 13 1 13 14
M  V30 14 1 14 15
M  V30 15 1 15 16
M  V30 16 1 16 17
M  V30 17 1 17 18
M  V30 18 1 18 19
M  V30 19 1 19 20
M  V30 20 1 20 21
M  V30 21 1 21 22
M  V30 22 1 22 23
M  V30 23 1 22 24
M  V30 24 1 24 25
M  V30 25 1 25 26
M  V30 26 1 25 27
M  V30 27 1 17 28
M  V30 28 1 28 29
M  V30 29 1 9 30
M  V30 30 2 30 31
M  V30 31 1 31 3
M  V30 32 1 30 6
M  V30 33 1 29 14
M  V30 34 1 27 20
M  V30 35 1 1 32
M  V30 36 1 1 33
M  V30 37 1 1 34
M  V30 38 1 4 35
M  V30 39 1 5 36
M  V30 40 1 7 37
M  V30 41 1 12 38
M  V30 42 1 13 39
M  V30 43 1 13 40
M  V30 44 1 14 41
M  V30 45 1 15 42
M  V30 46 1 15 43
M  V30 47 1 16 44
M  V30 48 1 16 45
M  V30 49 1 18 46
M  V30 50 1 18 47
M  V30 51 1 19 48
M  V30 52 1 19 49
M  V30 53 1 21 50
M  V30 54 1 21 51
M  V30 55 1 22 52 CFG=3
M  V30 56 1 23 53
M  V30 57 1 23 54
M  V30 58 1 23 55
M  V30 59 1 25 56 CFG=3
M  V30 60 1 26 57
M  V30 61 1 26 58
M  V30 62 1 26 59
M  V30 63 1 27 60
M  V30 64 1 27 61
M  V30 65 1 28 62
M  V30 66 1 28 63
M  V30 67 1 29 64
M  V30 68 1 29 65
M  V30 69 1 31 66
M  V30 END BOND
M  V30 END CTAB
M  END
>  <Dataset>  (203) 
ChEMBL_Kinases

>  <Ligand_Instance>  (203) 
nan

>  <PDB_ID>  (203) 
nan

>  <Standardized_SMILES>  (203) 
COc1ccc2[nH]nc(C(=O)NCC3CCN(CCN4C[C@@H](C)O[C@@H](C)C4)CC3)c2c1

>  <Name>  (203) 
nan

>  <Pocket>  (203) 
nan

>  <ATP_Site>  (203) 
nan

>  <Peripheral>  (203) 
nan

>  <Num_H_Atoms_ProtBoundConf>  (203) 
nan

>  <Num_Resolved_Atoms>  (203) 
nan

>  <Num_Not_Resolved_Atoms>  (203) 
nan

$$$$
CHEMBL3735863
     RDKit          3D

  0  0  0  0  0  0  0  0  0  0999 V3000
M  V30 BEGIN CTAB
M  V30 COUNTS 56 59 0 0 0
M  V30 BEGIN ATOM
M  V30 1 C 3.115525 -5.945918 3.040806 0
M  V30 2 O 2.743046 -4.863572 2.212505 0
M  V30 3 C 3.180930 -3.566116 2.448283 0
M  V30 4 C 4.019438 -3.301176 3.535170 0
M  V30 5 C 4.465827 -2.021645 3.788271 0
M  V30 6 C 4.102664 -0.952775 2.979079 0
M  V30 7 N 4.379617 0.384814 2.984100 0
M  V30 8 N 3.743264 0.897103 1.957852 0
M  V30 9 C 3.054505 -0.028761 1.265927 0
M  V30 10 C 2.240889 0.209826 0.081909 0
M  V30 11 O 1.693642 -0.764255 -0.437524 0
M  V30 12 N 2.047325 1.484369 -0.496009 0
M  V30 13 C 1.317617 1.970943 -1.602659 0
M  V30 14 C -0.154472 1.861364 -1.615467 0
M  V30 15 C -0.879009 2.569684 -0.501580 0
M  V30 16 C -2.267669 2.066360 -0.273428 0
M  V30 17 N -2.815367 1.211970 -1.214364 0
M  V30 18 C -4.184785 0.915681 -1.182710 0
M  V30 19 C -4.618415 0.086986 0.009471 0
M  V30 20 C -3.956810 -1.221643 0.074147 0
M  V30 21 C -4.606752 -2.267836 -0.591017 0
M  V30 22 C -4.079628 -3.550725 -0.598849 0
M  V30 23 N -2.922677 -3.786759 0.046158 0
M  V30 24 C -2.236670 -2.826358 0.711336 0
M  V30 25 C -2.781060 -1.560662 0.704467 0
M  V30 26 C -2.103148 0.679952 -2.287710 0
M  V30 27 C -0.659219 0.452302 -1.758842 0
M  V30 28 C 3.274090 -1.224040 1.907907 0
M  V30 29 C 2.831650 -2.494833 1.657618 0
M  V30 30 H 4.231733 -5.945894 3.061649 0
M  V30 31 H 2.655539 -5.767768 4.035364 0
M  V30 32 H 2.762844 -6.862077 2.535033 0
M  V30 33 H 4.308130 -4.144643 4.177801 0
M  V30 34 H 5.113632 -1.855915 4.640718 0
M  V30 35 H 4.992186 0.803017 3.714997 0
M  V30 36 H 2.594810 2.208790 0.066920 0
M  V30 37 H 1.672861 1.438075 -2.547606 0
M  V30 38 H 1.625099 3.041412 -1.796606 0
M  V30 39 H -0.479517 2.373408 -2.582861 0
M  V30 40 H -0.851731 3.655979 -0.720802 0
M  V30 41 H -0.294644 2.418182 0.426515 0
M  V30 42 H -2.929119 2.974365 -0.170253 0
M  V30 43 H -2.358223 1.579670 0.738413 0
M  V30 44 H -4.813437 1.833480 -1.172171 0
M  V30 45 H -4.529877 0.346099 -2.089395 0
M  V30 46 H -4.474454 0.671290 0.967043 0
M  V30 47 H -5.717686 -0.039246 -0.063188 0
M  V30 48 H -5.550051 -2.136389 -1.132703 0
M  V30 49 H -4.588657 -4.375750 -1.121855 0
M  V30 50 H -1.308802 -3.003593 1.232135 0
M  V30 51 H -2.282762 -0.753520 1.217409 0
M  V30 52 H -2.445285 -0.301872 -2.607540 0
M  V30 53 H -2.002507 1.396574 -3.156195 0
M  V30 54 H -0.790306 0.014012 -0.741058 0
M  V30 55 H -0.043624 -0.097985 -2.447293 0
M  V30 56 H 2.183005 -2.689846 0.813530 0
M  V30 END ATOM
M  V30 BEGIN BOND
M  V30 1 1 1 2
M  V30 2 1 2 3
M  V30 3 2 3 4
M  V30 4 1 4 5
M  V30 5 2 5 6
M  V30 6 1 6 7
M  V30 7 1 7 8
M  V30 8 2 8 9
M  V30 9 1 9 10
M  V30 10 2 10 11
M  V30 11 1 10 12
M  V30 12 1 12 13
M  V30 13 1 13 14
M  V30 14 1 14 15
M  V30 15 1 15 16
M  V30 16 1 16 17
M  V30 17 1 17 18
M  V30 18 1 18 19
M  V30 19 1 19 20
M  V30 20 2 20 21
M  V30 21 1 21 22
M  V30 22 2 22 23
M  V30 23 1 23 24
M  V30 24 2 24 25
M  V30 25 1 17 26
M  V30 26 1 26 27
M  V30 27 1 9 28
M  V30 28 2 28 29
M  V30 29 1 29 3
M  V30 30 1 28 6
M  V30 31 1 27 14
M  V30 32 1 25 20
M  V30 33 1 1 30
M  V30 34 1 1 31
M  V30 35 1 1 32
M  V30 36 1 4 33
M  V30 37 1 5 34
M  V30 38 1 7 35
M  V30 39 1 12 36
M  V30 40 1 13 37
M  V30 41 1 13 38
M  V30 42 1 14 39
M  V30 43 1 15 40
M  V30 44 1 15 41
M  V30 45 1 16 42
M  V30 46 1 16 43
M  V30 47 1 18 44
M  V30 48 1 18 45
M  V30 49 1 19 46
M  V30 50 1 19 47
M  V30 51 1 21 48
M  V30 52 1 22 49
M  V30 53 1 24 50
M  V30 54 1 25 51
M  V30 55 1 26 52
M  V30 56 1 26 53
M  V30 57 1 27 54
M  V30 58 1 27 55
M  V30 59 1 29 56
M  V30 END BOND
M  V30 END CTAB
M  END
>  <Dataset>  (204) 
ChEMBL_Kinases

>  <Ligand_Instance>  (204) 
nan

>  <PDB_ID>  (204) 
nan

>  <Standardized_SMILES>  (204) 
COc1ccc2[nH]nc(C(=O)NCC3CCN(CCc4ccncc4)CC3)c2c1

>  <Name>  (204) 
nan

>  <Pocket>  (204) 
nan

>  <ATP_Site>  (204) 
nan

>  <Peripheral>  (204) 
nan

>  <Num_H_Atoms_ProtBoundConf>  (204) 
nan

>  <Num_Resolved_Atoms>  (204) 
nan

>  <Num_Not_Resolved_Atoms>  (204) 
nan

$$$$
CHEMBL3735861
     RDKit          3D

  0  0  0  0  0  0  0  0  0  0999 V3000
M  V30 BEGIN CTAB
M  V30 COUNTS 53 57 0 0 0
M  V30 BEGIN ATOM
M  V30 1 C -0.650402 1.159591 5.434445 0
M  V30 2 O -0.741977 0.748303 4.068163 0
M  V30 3 C -0.114441 -0.465247 3.781709 0
M  V30 4 C 0.568123 -1.294617 4.647553 0
M  V30 5 C 1.116668 -2.455691 4.153506 0
M  V30 6 C 1.033009 -2.855949 2.837973 0
M  V30 7 C 0.342853 -2.003070 2.000181 0
M  V30 8 C -0.233794 -0.817341 2.436166 0
M  V30 9 C -0.951520 0.002633 1.433278 0
M  V30 10 N -0.211648 1.158945 1.066912 0
M  V30 11 C 1.121549 0.917027 0.563102 0
M  V30 12 C 1.741996 2.105373 -0.063524 0
M  V30 13 N 1.067533 3.341092 0.000209 0
M  V30 14 C -0.287440 3.398882 0.378608 0 CFG=1
M  V30 15 C -1.013041 4.471720 -0.419093 0
M  V30 16 C -0.943154 2.048929 0.179007 0
M  V30 17 O 0.374564 -2.582915 0.741920 0
M  V30 18 C 1.060675 -3.772805 0.752384 0
M  V30 19 C 1.242347 -4.531827 -0.308434 0
M  V30 20 C 0.794502 -4.329016 -1.675258 0
M  V30 21 N 1.597052 -4.501679 -2.762945 0
M  V30 22 N 0.877572 -4.251898 -3.865602 0
M  V30 23 C -0.402572 -3.910957 -3.569653 0
M  V30 24 N -1.461365 -3.590906 -4.329643 0
M  V30 25 C -2.635124 -3.302745 -3.715952 0
M  V30 26 C -2.750757 -3.335469 -2.319703 0
M  V30 27 C -1.634781 -3.669368 -1.598873 0
M  V30 28 C -0.430634 -3.966389 -2.182028 0
M  V30 29 C 1.531508 -4.024329 2.113613 0
M  V30 30 O 2.195693 -4.995695 2.554692 0
M  V30 31 H -1.304316 2.044206 5.651057 0
M  V30 32 H 0.401625 1.408737 5.721501 0
M  V30 33 H -1.000385 0.357234 6.117406 0
M  V30 34 H 0.610485 -0.946130 5.662130 0
M  V30 35 H 1.643921 -3.073879 4.866279 0
M  V30 36 H -1.889585 0.355892 1.942309 0
M  V30 37 H -1.305537 -0.614079 0.591763 0
M  V30 38 H 1.733980 0.541740 1.388295 0
M  V30 39 H 1.088118 0.095524 -0.211212 0
M  V30 40 H 2.055538 1.900362 -1.134314 0
M  V30 41 H 2.745601 2.272779 0.436909 0
M  V30 42 H 1.223533 3.934485 -0.862410 0
M  V30 43 H -0.372426 3.629648 1.477493 0
M  V30 44 H -0.439783 5.416068 -0.476371 0
M  V30 45 H -1.984681 4.673608 0.098595 0
M  V30 46 H -1.233609 4.119090 -1.453116 0
M  V30 47 H -0.764265 1.778872 -0.895054 0
M  V30 48 H -1.997413 2.020451 0.446209 0
M  V30 49 H 1.810489 -5.450530 -0.148552 0
M  V30 50 H 1.248216 -4.309448 -4.846682 0
M  V30 51 H -3.491395 -3.045915 -4.302440 0
M  V30 52 H -3.682290 -3.110479 -1.805837 0
M  V30 53 H -1.712749 -3.706798 -0.529071 0
M  V30 END ATOM
M  V30 BEGIN BOND
M  V30 1 1 1 2
M  V30 2 1 2 3
M  V30 3 2 3 4
M  V30 4 1 4 5
M  V30 5 2 5 6
M  V30 6 1 6 7
M  V30 7 2 7 8
M  V30 8 1 8 9
M  V30 9 1 9 10
M  V30 10 1 10 11
M  V30 11 1 11 12
M  V30 12 1 12 13
M  V30 13 1 13 14
M  V30 14 1 14 15
M  V30 15 1 14 16
M  V30 16 1 7 17
M  V30 17 1 17 18
M  V30 18 2 18 19
M  V30 19 1 19 20
M  V30 20 2 20 21
M  V30 21 1 21 22
M  V30 22 1 22 23
M  V30 23 2 23 24
M  V30 24 1 24 25
M  V30 25 2 25 26
M  V30 26 1 26 27
M  V30 27 2 27 28
M  V30 28 1 18 29
M  V30 29 2 29 30
M  V30 30 1 8 3
M  V30 31 1 16 10
M  V30 32 1 28 20
M  V30 33 1 29 6
M  V30 34 1 28 23
M  V30 35 1 1 31
M  V30 36 1 1 32
M  V30 37 1 1 33
M  V30 38 1 4 34
M  V30 39 1 5 35
M  V30 40 1 9 36
M  V30 41 1 9 37
M  V30 42 1 11 38
M  V30 43 1 11 39
M  V30 44 1 12 40
M  V30 45 1 12 41
M  V30 46 1 13 42
M  V30 47 1 14 43 CFG=1
M  V30 48 1 15 44
M  V30 49 1 15 45
M  V30 50 1 15 46
M  V30 51 1 16 47
M  V30 52 1 16 48
M  V30 53 1 19 49
M  V30 54 1 22 50
M  V30 55 1 25 51
M  V30 56 1 26 52
M  V30 57 1 27 53
M  V30 END BOND
M  V30 END CTAB
M  END
>  <Dataset>  (205) 
ChEMBL_Kinases

>  <Ligand_Instance>  (205) 
nan

>  <PDB_ID>  (205) 
nan

>  <Standardized_SMILES>  (205) 
COc1ccc2c(c1CN1CCN[C@@H](C)C1)O/C(=C\c1n[nH]c3ncccc13)C2=O

>  <Name>  (205) 
nan

>  <Pocket>  (205) 
nan

>  <ATP_Site>  (205) 
nan

>  <Peripheral>  (205) 
nan

>  <Num_H_Atoms_ProtBoundConf>  (205) 
nan

>  <Num_Resolved_Atoms>  (205) 
nan

>  <Num_Not_Resolved_Atoms>  (205) 
nan

$$$$
CHEMBL3735856
     RDKit          3D

  0  0  0  0  0  0  0  0  0  0999 V3000
M  V30 BEGIN CTAB
M  V30 COUNTS 60 64 0 0 0
M  V30 BEGIN ATOM
M  V30 1 O 5.894277 -2.501262 -2.674663 0
M  V30 2 C 5.489603 -1.372455 -3.066031 0
M  V30 3 O 5.476485 -1.126881 -4.424859 0
M  V30 4 C 5.062921 -0.401123 -2.068836 0
M  V30 5 C 5.081116 -0.659472 -0.714995 0
M  V30 6 C 4.605714 0.502624 -0.117954 0
M  V30 7 C 4.333031 1.384544 -1.161795 0
M  V30 8 C 3.804669 2.734131 -0.871885 0
M  V30 9 N 2.375837 2.805276 -0.829213 0
M  V30 10 C 1.747661 2.418683 -2.068415 0
M  V30 11 C 0.302953 2.827872 -1.984661 0
M  V30 12 C -0.428390 2.188942 -0.824283 0
M  V30 13 C -0.969853 0.885125 -1.299494 0
M  V30 14 N -1.697255 0.116635 -0.349317 0
M  V30 15 C -2.873227 0.488752 0.323390 0
M  V30 16 O -3.165570 1.657921 -0.088283 0
M  V30 17 C -3.748937 -0.110888 1.295664 0
M  V30 18 N -4.809196 0.623322 1.685074 0
M  V30 19 N -5.507730 -0.083587 2.583947 0
M  V30 20 C -4.965350 -1.284843 2.830172 0
M  V30 21 C -5.243970 -2.373567 3.624006 0
M  V30 22 C -4.418504 -3.478738 3.608749 0
M  V30 23 C -3.306295 -3.433070 2.760126 0
M  V30 24 C -2.428021 -4.612595 2.745846 0
M  V30 25 C -2.025931 -5.061283 1.490891 0
M  V30 26 C -1.204507 -6.159791 1.413237 0
M  V30 27 C -0.756117 -6.844989 2.540148 0
M  V30 28 C -1.194633 -6.342882 3.734295 0
M  V30 29 C -2.016294 -5.250738 3.903309 0
M  V30 30 F -2.429684 -4.781631 5.086817 0
M  V30 31 C -3.013882 -2.350255 1.959269 0
M  V30 32 C -3.861032 -1.278678 2.008711 0
M  V30 33 C 0.395679 2.084773 0.421661 0
M  V30 34 C 1.868004 1.921392 0.194191 0
M  V30 35 O 4.619124 0.806166 -2.299747 0
M  V30 36 H 5.847607 -1.828325 -5.068104 0
M  V30 37 H 5.385991 -1.550145 -0.161595 0
M  V30 38 H 4.493464 0.634933 0.937311 0
M  V30 39 H 4.185817 3.132236 0.096926 0
M  V30 40 H 4.184416 3.444944 -1.640161 0
M  V30 41 H 1.819386 1.305864 -2.167106 0
M  V30 42 H 2.185965 2.947087 -2.925797 0
M  V30 43 H 0.295725 3.936255 -1.821537 0
M  V30 44 H -0.247983 2.544373 -2.906976 0
M  V30 45 H -1.271537 2.870171 -0.596462 0
M  V30 46 H -1.657843 1.114793 -2.165180 0
M  V30 47 H -0.182513 0.254860 -1.738558 0
M  V30 48 H -1.370773 -0.833720 -0.082624 0
M  V30 49 H -6.381014 0.284522 3.032337 0
M  V30 50 H -6.132183 -2.301164 4.242982 0
M  V30 51 H -4.634035 -4.321453 4.223138 0
M  V30 52 H -2.347777 -4.561719 0.576135 0
M  V30 53 H -0.867681 -6.541890 0.446920 0
M  V30 54 H -0.116753 -7.698614 2.460373 0
M  V30 55 H -0.856074 -6.863456 4.628970 0
M  V30 56 H -2.157410 -2.368463 1.334674 0
M  V30 57 H 0.236423 2.906509 1.130795 0
M  V30 58 H 0.052530 1.160630 0.964781 0
M  V30 59 H 2.100830 0.848879 -0.031461 0
M  V30 60 H 2.399400 2.200502 1.130014 0
M  V30 END ATOM
M  V30 BEGIN BOND
M  V30 1 2 1 2
M  V30 2 1 2 3
M  V30 3 1 2 4
M  V30 4 2 4 5
M  V30 5 1 5 6
M  V30 6 2 6 7
M  V30 7 1 7 8
M  V30 8 1 8 9
M  V30 9 1 9 10
M  V30 10 1 10 11
M  V30 11 1 11 12
M  V30 12 1 12 13
M  V30 13 1 13 14
M  V30 14 1 14 15
M  V30 15 2 15 16
M  V30 16 1 15 17
M  V30 17 2 17 18
M  V30 18 1 18 19
M  V30 19 1 19 20
M  V30 20 2 20 21
M  V30 21 1 21 22
M  V30 22 2 22 23
M  V30 23 1 23 24
M  V30 24 2 24 25
M  V30 25 1 25 26
M  V30 26 2 26 27
M  V30 27 1 27 28
M  V30 28 2 28 29
M  V30 29 1 29 30
M  V30 30 1 23 31
M  V30 31 2 31 32
M  V30 32 1 12 33
M  V30 33 1 33 34
M  V30 34 1 7 35
M  V30 35 1 35 4
M  V30 36 1 34 9
M  V30 37 1 32 17
M  V30 38 1 32 20
M  V30 39 1 29 24
M  V30 40 1 3 36
M  V30 41 1 5 37
M  V30 42 1 6 38
M  V30 43 1 8 39
M  V30 44 1 8 40
M  V30 45 1 10 41
M  V30 46 1 10 42
M  V30 47 1 11 43
M  V30 48 1 11 44
M  V30 49 1 12 45
M  V30 50 1 13 46
M  V30 51 1 13 47
M  V30 52 1 14 48
M  V30 53 1 19 49
M  V30 54 1 21 50
M  V30 55 1 22 51
M  V30 56 1 25 52
M  V30 57 1 26 53
M  V30 58 1 27 54
M  V30 59 1 28 55
M  V30 60 1 31 56
M  V30 61 1 33 57
M  V30 62 1 33 58
M  V30 63 1 34 59
M  V30 64 1 34 60
M  V30 END BOND
M  V30 END CTAB
M  END
>  <Dataset>  (206) 
ChEMBL_Kinases

>  <Ligand_Instance>  (206) 
nan

>  <PDB_ID>  (206) 
nan

>  <Standardized_SMILES>  (206) 
O=C(O)c1ccc(CN2CCC(CNC(=O)c3n[nH]c4ccc(-c5ccccc5F)cc34)CC2)o1

>  <Name>  (206) 
nan

>  <Pocket>  (206) 
nan

>  <ATP_Site>  (206) 
nan

>  <Peripheral>  (206) 
nan

>  <Num_H_Atoms_ProtBoundConf>  (206) 
nan

>  <Num_Resolved_Atoms>  (206) 
nan

>  <Num_Not_Resolved_Atoms>  (206) 
nan

$$$$
CHEMBL3735837
     RDKit          3D

  0  0  0  0  0  0  0  0  0  0999 V3000
M  V30 BEGIN CTAB
M  V30 COUNTS 55 58 0 0 0
M  V30 BEGIN ATOM
M  V30 1 C 1.394548 2.136340 6.130308 0
M  V30 2 O 2.641586 1.513331 6.359051 0
M  V30 3 C 3.394730 0.915215 5.371517 0
M  V30 4 C 4.589686 0.366208 5.833850 0
M  V30 5 C 5.454481 -0.273419 4.938961 0
M  V30 6 C 5.105320 -0.347567 3.613780 0
M  V30 7 N 5.615360 -0.844977 2.476851 0
M  V30 8 N 4.838493 -0.636036 1.425314 0
M  V30 9 C 3.724748 0.041658 1.835938 0
M  V30 10 C 2.760293 0.358410 0.819727 0
M  V30 11 O 3.028761 -0.023417 -0.366186 0
M  V30 12 N 1.529470 1.016342 0.790264 0
M  V30 13 C 0.559412 1.337285 -0.183610 0
M  V30 14 C -0.139288 0.256502 -0.903264 0
M  V30 15 C -0.927145 -0.699521 -0.039855 0
M  V30 16 C -1.438166 -1.828827 -0.901738 0
M  V30 17 N -1.581684 -1.535264 -2.280569 0
M  V30 18 C -2.798814 -0.968455 -2.721833 0
M  V30 19 C -3.980949 -1.863925 -2.451958 0
M  V30 20 C -4.719119 -1.817348 -1.287152 0
M  V30 21 C -5.782612 -2.686892 -1.149364 0
M  V30 22 C -6.079689 -3.581383 -2.182338 0
M  V30 23 O -7.142394 -4.471747 -2.080065 0
M  V30 24 C -5.326445 -3.605456 -3.332251 0
M  V30 25 C -4.259156 -2.746581 -3.493264 0
M  V30 26 C -0.381937 -1.098591 -2.928446 0
M  V30 27 C 0.614944 -0.532776 -1.909645 0
M  V30 28 C 3.919052 0.203632 3.185907 0
M  V30 29 C 3.081590 0.822898 4.051871 0
M  V30 30 H 0.793566 2.057684 7.059454 0
M  V30 31 H 0.840696 1.680854 5.304779 0
M  V30 32 H 1.525721 3.229308 5.896149 0
M  V30 33 H 4.910155 0.397253 6.862338 0
M  V30 34 H 6.393768 -0.717317 5.240760 0
M  V30 35 H 6.541371 -1.352869 2.416949 0
M  V30 36 H 1.247238 1.362937 1.733805 0
M  V30 37 H 1.069796 1.978019 -0.953263 0
M  V30 38 H -0.242110 2.028910 0.212307 0
M  V30 39 H -0.954479 0.791437 -1.509039 0
M  V30 40 H -1.800781 -0.205730 0.437262 0
M  V30 41 H -0.288427 -1.081755 0.783128 0
M  V30 42 H -2.329119 -2.316859 -0.456493 0
M  V30 43 H -0.637389 -2.625426 -0.831482 0
M  V30 44 H -3.088926 -0.000073 -2.245126 0
M  V30 45 H -2.713642 -0.741003 -3.803820 0
M  V30 46 H -4.438937 -1.101094 -0.522204 0
M  V30 47 H -6.382924 -2.670457 -0.237307 0
M  V30 48 H -6.926848 -5.462070 -2.043233 0
M  V30 49 H -5.565121 -4.305466 -4.131554 0
M  V30 50 H -3.698331 -2.792970 -4.396306 0
M  V30 51 H -0.629643 -0.341567 -3.678156 0
M  V30 52 H 0.060331 -1.969212 -3.453531 0
M  V30 53 H 1.351584 0.019021 -2.514775 0
M  V30 54 H 1.043532 -1.461132 -1.440003 0
M  V30 55 H 2.168929 1.253000 3.754808 0
M  V30 END ATOM
M  V30 BEGIN BOND
M  V30 1 1 1 2
M  V30 2 1 2 3
M  V30 3 2 3 4
M  V30 4 1 4 5
M  V30 5 2 5 6
M  V30 6 1 6 7
M  V30 7 1 7 8
M  V30 8 2 8 9
M  V30 9 1 9 10
M  V30 10 2 10 11
M  V30 11 1 10 12
M  V30 12 1 12 13
M  V30 13 1 13 14
M  V30 14 1 14 15
M  V30 15 1 15 16
M  V30 16 1 16 17
M  V30 17 1 17 18
M  V30 18 1 18 19
M  V30 19 2 19 20
M  V30 20 1 20 21
M  V30 21 2 21 22
M  V30 22 1 22 23
M  V30 23 1 22 24
M  V30 24 2 24 25
M  V30 25 1 17 26
M  V30 26 1 26 27
M  V30 27 1 9 28
M  V30 28 2 28 29
M  V30 29 1 29 3
M  V30 30 1 28 6
M  V30 31 1 27 14
M  V30 32 1 25 19
M  V30 33 1 1 30
M  V30 34 1 1 31
M  V30 35 1 1 32
M  V30 36 1 4 33
M  V30 37 1 5 34
M  V30 38 1 7 35
M  V30 39 1 12 36
M  V30 40 1 13 37
M  V30 41 1 13 38
M  V30 42 1 14 39
M  V30 43 1 15 40
M  V30 44 1 15 41
M  V30 45 1 16 42
M  V30 46 1 16 43
M  V30 47 1 18 44
M  V30 48 1 18 45
M  V30 49 1 20 46
M  V30 50 1 21 47
M  V30 51 1 23 48
M  V30 52 1 24 49
M  V30 53 1 25 50
M  V30 54 1 26 51
M  V30 55 1 26 52
M  V30 56 1 27 53
M  V30 57 1 27 54
M  V30 58 1 29 55
M  V30 END BOND
M  V30 END CTAB
M  END
>  <Dataset>  (207) 
ChEMBL_Kinases

>  <Ligand_Instance>  (207) 
nan

>  <PDB_ID>  (207) 
nan

>  <Standardized_SMILES>  (207) 
COc1ccc2[nH]nc(C(=O)NCC3CCN(Cc4ccc(O)cc4)CC3)c2c1

>  <Name>  (207) 
nan

>  <Pocket>  (207) 
nan

>  <ATP_Site>  (207) 
nan

>  <Peripheral>  (207) 
nan

>  <Num_H_Atoms_ProtBoundConf>  (207) 
nan

>  <Num_Resolved_Atoms>  (207) 
nan

>  <Num_Not_Resolved_Atoms>  (207) 
nan

$$$$
CHEMBL3736035
     RDKit          3D

  0  0  0  0  0  0  0  0  0  0999 V3000
M  V30 BEGIN CTAB
M  V30 COUNTS 63 67 0 0 0
M  V30 BEGIN ATOM
M  V30 1 C 1.363406 1.724507 7.725228 0
M  V30 2 O 2.422231 0.802211 7.549540 0
M  V30 3 C 2.524754 -0.001991 6.416770 0
M  V30 4 C 3.606042 -0.886303 6.326662 0
M  V30 5 C 3.743646 -1.701853 5.217929 0
M  V30 6 C 2.796184 -1.619573 4.215861 0
M  V30 7 C 2.834657 -2.434785 2.988196 0
M  V30 8 C 3.363573 -3.722607 2.992706 0
M  V30 9 C 3.372003 -4.438400 1.807843 0
M  V30 10 C 2.876827 -3.919579 0.632881 0
M  V30 11 N 2.752710 -4.360455 -0.635959 0
M  V30 12 N 2.193285 -3.455588 -1.421256 0
M  V30 13 C 1.931466 -2.383932 -0.682863 0
M  V30 14 C 1.325313 -1.094782 -1.010251 0
M  V30 15 O 1.127035 -0.142501 -0.189272 0
M  V30 16 N 0.877395 -0.764879 -2.341572 0
M  V30 17 C 0.320718 0.575594 -2.366386 0
M  V30 18 C -0.159468 0.979492 -3.717889 0
M  V30 19 C -1.232348 0.102602 -4.273042 0
M  V30 20 C -2.439983 0.042999 -3.370098 0
M  V30 21 N -2.479581 1.217550 -2.564640 0
M  V30 22 C -3.742549 1.407771 -1.884858 0
M  V30 23 C -4.059525 0.270509 -0.989497 0
M  V30 24 C -3.725388 0.117157 0.353081 0
M  V30 25 C -4.265706 -1.115692 0.684775 0
M  V30 26 C -4.865776 -1.588422 -0.462229 0
M  V30 27 C -5.553360 -2.882696 -0.503910 0
M  V30 28 O -5.607306 -3.596303 0.526762 0
M  V30 29 O -6.160544 -3.354784 -1.673671 0
M  V30 30 O -4.740367 -0.753716 -1.466414 0
M  V30 31 C -2.155554 2.390951 -3.318451 0
M  V30 32 C -0.680899 2.393068 -3.648142 0
M  V30 33 C 2.348976 -2.648223 0.604427 0
M  V30 34 C 2.351040 -1.953162 1.797923 0
M  V30 35 C 1.721000 -0.736489 4.311283 0
M  V30 36 N 1.628166 0.037785 5.409028 0
M  V30 37 H 0.443821 1.282519 7.297514 0
M  V30 38 H 1.587686 2.737342 7.354380 0
M  V30 39 H 1.203341 1.813848 8.821601 0
M  V30 40 H 4.349128 -0.939213 7.130927 0
M  V30 41 H 4.561689 -2.404457 5.096758 0
M  V30 42 H 3.760171 -4.144310 3.922964 0
M  V30 43 H 3.773778 -5.434924 1.781328 0
M  V30 44 H 3.083927 -5.324885 -0.902745 0
M  V30 45 H 0.987848 -1.469493 -3.104590 0
M  V30 46 H -0.400439 0.683355 -1.554280 0
M  V30 47 H 1.156483 1.290657 -2.108310 0
M  V30 48 H 0.717165 0.961740 -4.403286 0
M  V30 49 H -1.570188 0.438206 -5.282247 0
M  V30 50 H -0.812756 -0.918076 -4.394876 0
M  V30 51 H -3.374992 -0.071526 -3.993290 0
M  V30 52 H -2.389685 -0.899175 -2.789358 0
M  V30 53 H -4.587642 1.641502 -2.529276 0
M  V30 54 H -3.578868 2.289960 -1.201444 0
M  V30 55 H -3.170568 0.835383 0.936346 0
M  V30 56 H -4.198025 -1.565456 1.665159 0
M  V30 57 H -6.066902 -4.346063 -1.896182 0
M  V30 58 H -2.805917 2.589123 -4.183692 0
M  V30 59 H -2.291157 3.262542 -2.611379 0
M  V30 60 H -0.063366 2.909894 -2.883729 0
M  V30 61 H -0.466879 2.895312 -4.613649 0
M  V30 62 H 1.950415 -0.949459 1.843334 0
M  V30 63 H 0.934392 -0.602396 3.581816 0
M  V30 END ATOM
M  V30 BEGIN BOND
M  V30 1 1 1 2
M  V30 2 1 2 3
M  V30 3 2 3 4
M  V30 4 1 4 5
M  V30 5 2 5 6
M  V30 6 1 6 7
M  V30 7 2 7 8
M  V30 8 1 8 9
M  V30 9 2 9 10
M  V30 10 1 10 11
M  V30 11 1 11 12
M  V30 12 2 12 13
M  V30 13 1 13 14
M  V30 14 2 14 15
M  V30 15 1 14 16
M  V30 16 1 16 17
M  V30 17 1 17 18
M  V30 18 1 18 19
M  V30 19 1 19 20
M  V30 20 1 20 21
M  V30 21 1 21 22
M  V30 22 1 22 23
M  V30 23 2 23 24
M  V30 24 1 24 25
M  V30 25 2 25 26
M  V30 26 1 26 27
M  V30 27 2 27 28
M  V30 28 1 27 29
M  V30 29 1 26 30
M  V30 30 1 21 31
M  V30 31 1 31 32
M  V30 32 1 13 33
M  V30 33 2 33 34
M  V30 34 1 6 35
M  V30 35 2 35 36
M  V30 36 1 36 3
M  V30 37 1 34 7
M  V30 38 1 33 10
M  V30 39 1 32 18
M  V30 40 1 30 23
M  V30 41 1 1 37
M  V30 42 1 1 38
M  V30 43 1 1 39
M  V30 44 1 4 40
M  V30 45 1 5 41
M  V30 46 1 8 42
M  V30 47 1 9 43
M  V30 48 1 11 44
M  V30 49 1 16 45
M  V30 50 1 17 46
M  V30 51 1 17 47
M  V30 52 1 18 48
M  V30 53 1 19 49
M  V30 54 1 19 50
M  V30 55 1 20 51
M  V30 56 1 20 52
M  V30 57 1 22 53
M  V30 58 1 22 54
M  V30 59 1 24 55
M  V30 60 1 25 56
M  V30 61 1 29 57
M  V30 62 1 31 58
M  V30 63 1 31 59
M  V30 64 1 32 60
M  V30 65 1 32 61
M  V30 66 1 34 62
M  V30 67 1 35 63
M  V30 END BOND
M  V30 END CTAB
M  END
>  <Dataset>  (208) 
ChEMBL_Kinases

>  <Ligand_Instance>  (208) 
nan

>  <PDB_ID>  (208) 
nan

>  <Standardized_SMILES>  (208) 
COc1ccc(-c2ccc3[nH]nc(C(=O)NCC4CCN(Cc5ccc(C(=O)O)o5)CC4)c3c2)cn1

>  <Name>  (208) 
nan

>  <Pocket>  (208) 
nan

>  <ATP_Site>  (208) 
nan

>  <Peripheral>  (208) 
nan

>  <Num_H_Atoms_ProtBoundConf>  (208) 
nan

>  <Num_Resolved_Atoms>  (208) 
nan

>  <Num_Not_Resolved_Atoms>  (208) 
nan

$$$$
CHEMBL3752910
     RDKit          3D

  0  0  0  0  0  0  0  0  0  0999 V3000
M  V30 BEGIN CTAB
M  V30 COUNTS 57 61 0 0 0
M  V30 BEGIN ATOM
M  V30 1 C 0.811751 -3.589988 2.492754 0
M  V30 2 C 1.177820 -2.158530 2.354854 0
M  V30 3 C 2.380220 -1.632021 2.768976 0
M  V30 4 C 2.643236 -0.269404 2.613534 0
M  V30 5 C 1.716456 0.578512 2.047280 0
M  V30 6 C 2.033665 1.988251 1.909504 0
M  V30 7 O 3.231395 2.283609 2.259503 0
M  V30 8 N 1.213553 3.028584 1.456124 0
M  V30 9 C 1.470618 4.411223 1.303777 0
M  V30 10 C 2.660615 5.047793 1.550578 0
M  V30 11 C 2.869274 6.399307 1.398464 0
M  V30 12 C 1.790214 7.179652 0.960727 0
M  V30 13 C 0.580745 6.558270 0.706296 0
M  V30 14 C -0.607015 7.334026 0.242809 0
M  V30 15 F -1.676412 6.863706 1.019272 0
M  V30 16 F -0.907310 7.073484 -1.080598 0
M  V30 17 F -0.494931 8.678817 0.516638 0
M  V30 18 C 0.434958 5.203717 0.877173 0
M  V30 19 C 0.515562 -0.017026 1.646497 0
M  V30 20 C 0.219987 -1.357124 1.783117 0
M  V30 21 N -1.073038 -1.721160 1.280859 0
M  V30 22 C -1.284594 -2.680317 0.243342 0
M  V30 23 N -1.648095 -3.928885 0.529284 0
M  V30 24 C -1.819030 -4.786190 -0.492758 0
M  V30 25 C -2.220023 -6.153783 -0.199312 0
M  V30 26 C -2.434259 -7.087916 -1.212397 0
M  V30 27 C -2.823064 -8.391796 -0.925115 0
M  V30 28 C -3.007730 -8.798973 0.364721 0
M  V30 29 N -2.805127 -7.915079 1.328901 0
M  V30 30 C -2.425870 -6.638317 1.074329 0
M  V30 31 N -1.636851 -4.429342 -1.773675 0
M  V30 32 C -1.270402 -3.188430 -2.131323 0
M  V30 33 C -1.096260 -2.311343 -1.086887 0
M  V30 34 C -0.722874 -1.112861 -1.689195 0
M  V30 35 N -0.693059 -1.328746 -3.031379 0
M  V30 36 N -1.020910 -2.576023 -3.312067 0
M  V30 37 C -1.130250 -3.289304 -4.566416 0
M  V30 38 H -0.224090 -3.704069 2.909989 0
M  V30 39 H 1.538562 -4.021869 3.239669 0
M  V30 40 H 0.932620 -4.154681 1.569137 0
M  V30 41 H 3.093610 -2.314029 3.210919 0
M  V30 42 H 3.633185 0.048505 2.976975 0
M  V30 43 H 0.279815 2.636310 1.210648 0
M  V30 44 H 3.501191 4.501191 1.880352 0
M  V30 45 H 3.797640 6.895463 1.590021 0
M  V30 46 H 1.822837 8.250491 0.801094 0
M  V30 47 H -0.530804 4.760061 0.665798 0
M  V30 48 H -0.189888 0.679371 1.205782 0
M  V30 49 H -1.859947 -1.217447 1.744691 0
M  V30 50 H -2.278228 -6.731024 -2.230418 0
M  V30 51 H -2.953221 -9.006845 -1.804358 0
M  V30 52 H -3.311263 -9.832747 0.491168 0
M  V30 53 H -2.280276 -5.976388 1.914619 0
M  V30 54 H -0.499917 -0.187730 -1.168872 0
M  V30 55 H -2.184158 -3.370005 -4.883576 0
M  V30 56 H -0.558969 -2.744548 -5.358951 0
M  V30 57 H -0.619651 -4.290155 -4.501783 0
M  V30 END ATOM
M  V30 BEGIN BOND
M  V30 1 1 1 2
M  V30 2 2 2 3
M  V30 3 1 3 4
M  V30 4 2 4 5
M  V30 5 1 5 6
M  V30 6 2 6 7
M  V30 7 1 6 8
M  V30 8 1 8 9
M  V30 9 2 9 10
M  V30 10 1 10 11
M  V30 11 2 11 12
M  V30 12 1 12 13
M  V30 13 1 13 14
M  V30 14 1 14 15
M  V30 15 1 14 16
M  V30 16 1 14 17
M  V30 17 2 13 18
M  V30 18 1 5 19
M  V30 19 2 19 20
M  V30 20 1 20 21
M  V30 21 1 21 22
M  V30 22 2 22 23
M  V30 23 1 23 24
M  V30 24 1 24 25
M  V30 25 2 25 26
M  V30 26 1 26 27
M  V30 27 2 27 28
M  V30 28 1 28 29
M  V30 29 2 29 30
M  V30 30 2 24 31
M  V30 31 1 31 32
M  V30 32 2 32 33
M  V30 33 1 33 34
M  V30 34 2 34 35
M  V30 35 1 35 36
M  V30 36 1 36 37
M  V30 37 1 20 2
M  V30 38 1 33 22
M  V30 39 1 18 9
M  V30 40 1 30 25
M  V30 41 1 36 32
M  V30 42 1 1 38
M  V30 43 1 1 39
M  V30 44 1 1 40
M  V30 45 1 3 41
M  V30 46 1 4 42
M  V30 47 1 8 43
M  V30 48 1 10 44
M  V30 49 1 11 45
M  V30 50 1 12 46
M  V30 51 1 18 47
M  V30 52 1 19 48
M  V30 53 1 21 49
M  V30 54 1 26 50
M  V30 55 1 27 51
M  V30 56 1 28 52
M  V30 57 1 30 53
M  V30 58 1 34 54
M  V30 59 1 37 55
M  V30 60 1 37 56
M  V30 61 1 37 57
M  V30 END BOND
M  V30 END CTAB
M  END
>  <Dataset>  (209) 
ChEMBL_Kinases

>  <Ligand_Instance>  (209) 
nan

>  <PDB_ID>  (209) 
nan

>  <Standardized_SMILES>  (209) 
Cc1ccc(C(=O)Nc2cccc(C(F)(F)F)c2)cc1Nc1nc(-c2cccnc2)nc2c1cnn2C

>  <Name>  (209) 
nan

>  <Pocket>  (209) 
nan

>  <ATP_Site>  (209) 
nan

>  <Peripheral>  (209) 
nan

>  <Num_H_Atoms_ProtBoundConf>  (209) 
nan

>  <Num_Resolved_Atoms>  (209) 
nan

>  <Num_Not_Resolved_Atoms>  (209) 
nan

$$$$
CHEMBL3752854
     RDKit          3D

  0  0  0  0  0  0  0  0  0  0999 V3000
M  V30 BEGIN CTAB
M  V30 COUNTS 39 41 0 0 0
M  V30 BEGIN ATOM
M  V30 1 C 1.239481 -6.094199 5.468744 0
M  V30 2 O 1.429159 -5.798240 4.099828 0
M  V30 3 C 1.302345 -4.504281 3.588559 0
M  V30 4 C 1.502586 -4.280590 2.226376 0
M  V30 5 C 1.364852 -2.985405 1.775188 0
M  V30 6 C 1.045267 -1.914767 2.581456 0
M  V30 7 C 0.893709 -0.537281 2.112905 0
M  V30 8 C 1.232732 0.453425 3.015139 0
M  V30 9 N 1.109780 1.741964 2.628408 0
M  V30 10 C 0.663427 2.043558 1.382248 0
M  V30 11 C 0.320952 1.049349 0.469768 0
M  V30 12 C -0.144031 1.491330 -0.842607 0
M  V30 13 C -0.838703 2.681798 -0.940205 0
M  V30 14 C -1.288660 3.128030 -2.164433 0
M  V30 15 C -0.976728 2.290212 -3.202280 0
M  V30 16 C -1.414246 2.695488 -4.523722 0
M  V30 17 N -2.114056 3.913467 -4.782734 0
M  V30 18 O -1.642001 2.742442 -5.745708 0
M  V30 19 C -0.289651 1.095545 -3.166810 0
M  V30 20 C 0.147549 0.678402 -1.919973 0
M  V30 21 C 0.438135 -0.258625 0.841998 0
M  V30 22 C 0.860308 -2.215986 3.931110 0
M  V30 23 C 0.979650 -3.493860 4.471029 0
M  V30 24 H 1.773666 -5.359824 6.111867 0
M  V30 25 H 1.755182 -7.070267 5.653800 0
M  V30 26 H 0.154091 -6.172386 5.744261 0
M  V30 27 H 1.753920 -5.073076 1.547597 0
M  V30 28 H 1.518785 -2.800156 0.719845 0
M  V30 29 H 1.596727 0.258460 4.029106 0
M  V30 30 H 0.617283 3.105194 1.217472 0
M  V30 31 H -1.021811 3.253684 -0.041333 0
M  V30 32 H -1.830884 4.040523 -2.299764 0
M  V30 33 H -2.872463 4.542343 -4.375886 0
M  V30 34 H -2.873006 4.529607 -4.362732 0
M  V30 35 H -0.093126 0.503980 -4.050508 0
M  V30 36 H 0.687071 -0.227427 -1.771285 0
M  V30 37 H 0.176503 -1.030932 0.144969 0
M  V30 38 H 0.603858 -1.419415 4.643369 0
M  V30 39 H 0.819315 -3.642888 5.531055 0
M  V30 END ATOM
M  V30 BEGIN BOND
M  V30 1 1 1 2
M  V30 2 1 2 3
M  V30 3 2 3 4
M  V30 4 1 4 5
M  V30 5 2 5 6
M  V30 6 1 6 7
M  V30 7 2 7 8
M  V30 8 1 8 9
M  V30 9 2 9 10
M  V30 10 1 10 11
M  V30 11 1 11 12
M  V30 12 2 12 13
M  V30 13 1 13 14
M  V30 14 2 14 15
M  V30 15 1 15 16
M  V30 16 1 16 17
M  V30 17 2 16 18
M  V30 18 1 15 19
M  V30 19 2 19 20
M  V30 20 2 11 21
M  V30 21 1 6 22
M  V30 22 2 22 23
M  V30 23 1 23 3
M  V30 24 1 21 7
M  V30 25 1 20 12
M  V30 26 1 1 24
M  V30 27 1 1 25
M  V30 28 1 1 26
M  V30 29 1 4 27
M  V30 30 1 5 28
M  V30 31 1 8 29
M  V30 32 1 10 30
M  V30 33 1 13 31
M  V30 34 1 14 32
M  V30 35 1 17 33
M  V30 36 1 17 34
M  V30 37 1 19 35
M  V30 38 1 20 36
M  V30 39 1 21 37
M  V30 40 1 22 38
M  V30 41 1 23 39
M  V30 END BOND
M  V30 END CTAB
M  END
>  <Dataset>  (210) 
ChEMBL_Kinases

>  <Ligand_Instance>  (210) 
nan

>  <PDB_ID>  (210) 
nan

>  <Standardized_SMILES>  (210) 
COc1ccc(-c2cncc(-c3ccc(C(N)=O)cc3)c2)cc1

>  <Name>  (210) 
nan

>  <Pocket>  (210) 
nan

>  <ATP_Site>  (210) 
nan

>  <Peripheral>  (210) 
nan

>  <Num_H_Atoms_ProtBoundConf>  (210) 
nan

>  <Num_Resolved_Atoms>  (210) 
nan

>  <Num_Not_Resolved_Atoms>  (210) 
nan

$$$$
CHEMBL5086342
     RDKit          3D

  0  0  0  0  0  0  0  0  0  0999 V3000
M  V30 BEGIN CTAB
M  V30 COUNTS 40 42 0 0 0
M  V30 BEGIN ATOM
M  V30 1 C 1.481473 -4.605448 3.390686 0
M  V30 2 C 1.502044 -4.143479 2.183260 0
M  V30 3 C 1.061210 -3.317509 1.099370 0
M  V30 4 O 1.896179 -3.699817 0.212483 0
M  V30 5 N 0.128607 -2.345940 0.753209 0
M  V30 6 C 0.297078 -1.789456 -0.575089 0
M  V30 7 O 1.150552 -2.450352 -1.278429 0
M  V30 8 C -0.347495 -0.624100 -1.196511 0
M  V30 9 C -0.388276 0.682552 -0.639719 0
M  V30 10 C 0.478193 1.811160 -0.969239 0
M  V30 11 C 0.103433 2.789712 -1.927876 0
M  V30 12 C 0.792264 3.897545 -2.339735 0
M  V30 13 C 2.018053 4.097804 -1.747785 0
M  V30 14 C 2.435526 3.179440 -0.808804 0
M  V30 15 C 1.721135 2.040295 -0.389538 0
M  V30 16 C 2.290726 1.145363 0.597434 0
M  V30 17 F 3.548709 1.719553 0.945312 0
M  V30 18 F 2.816653 -0.032213 0.029861 0
M  V30 19 F 1.766999 1.023642 1.811792 0
M  V30 20 S -0.843396 0.886067 1.106753 0
M  V30 21 C -1.293886 -0.633603 1.892936 0
M  V30 22 C -2.252613 -0.501810 2.875367 0
M  V30 23 C -2.725562 -1.592041 3.582730 0
M  V30 24 C -2.257452 -2.887158 3.339595 0
M  V30 25 C -1.298416 -3.083220 2.368717 0
M  V30 26 C -0.856921 -1.939526 1.685917 0
M  V30 27 H 0.806601 -4.320246 4.192460 0
M  V30 28 H 0.862763 -4.405673 4.280838 0
M  V30 29 H 2.242474 -4.886777 2.385855 0
M  V30 30 H -1.411058 -1.037408 -1.326378 0
M  V30 31 H -0.080712 -0.698380 -2.292629 0
M  V30 32 H -1.409277 1.101833 -1.029042 0
M  V30 33 H -0.875314 2.673169 -2.434543 0
M  V30 34 H 0.402531 4.573370 -3.081127 0
M  V30 35 H 2.616118 4.950612 -2.023330 0
M  V30 36 H 3.429174 3.415355 -0.383968 0
M  V30 37 H -2.640031 0.483202 3.092724 0
M  V30 38 H -3.479605 -1.512013 4.360558 0
M  V30 39 H -2.594192 -3.769338 3.863425 0
M  V30 40 H -0.890808 -4.043611 2.098286 0
M  V30 END ATOM
M  V30 BEGIN BOND
M  V30 1 2 1 2
M  V30 2 1 2 3
M  V30 3 2 3 4
M  V30 4 1 3 5
M  V30 5 1 5 6
M  V30 6 2 6 7
M  V30 7 1 6 8
M  V30 8 1 8 9
M  V30 9 1 9 10
M  V30 10 2 10 11
M  V30 11 1 11 12
M  V30 12 2 12 13
M  V30 13 1 13 14
M  V30 14 2 14 15
M  V30 15 1 15 16
M  V30 16 1 16 17
M  V30 17 1 16 18
M  V30 18 1 16 19
M  V30 19 1 9 20
M  V30 20 1 20 21
M  V30 21 2 21 22
M  V30 22 1 22 23
M  V30 23 2 23 24
M  V30 24 1 24 25
M  V30 25 2 25 26
M  V30 26 1 26 5
M  V30 27 1 15 10
M  V30 28 1 26 21
M  V30 29 1 1 27
M  V30 30 1 1 28
M  V30 31 1 2 29
M  V30 32 1 8 30
M  V30 33 1 8 31
M  V30 34 1 9 32
M  V30 35 1 11 33
M  V30 36 1 12 34
M  V30 37 1 13 35
M  V30 38 1 14 36
M  V30 39 1 22 37
M  V30 40 1 23 38
M  V30 41 1 24 39
M  V30 42 1 25 40
M  V30 END BOND
M  V30 END CTAB
M  END
>  <Dataset>  (211) 
ChEMBL_Kinases

>  <Ligand_Instance>  (211) 
nan

>  <PDB_ID>  (211) 
nan

>  <Standardized_SMILES>  (211) 
C=CC(=O)N1C(=O)CC(c2ccccc2C(F)(F)F)Sc2ccccc21

>  <Name>  (211) 
nan

>  <Pocket>  (211) 
nan

>  <ATP_Site>  (211) 
nan

>  <Peripheral>  (211) 
nan

>  <Num_H_Atoms_ProtBoundConf>  (211) 
nan

>  <Num_Resolved_Atoms>  (211) 
nan

>  <Num_Not_Resolved_Atoms>  (211) 
nan

$$$$
CHEMBL5086352
     RDKit          3D

  0  0  0  0  0  0  0  0  0  0999 V3000
M  V30 BEGIN CTAB
M  V30 COUNTS 88 91 0 0 0
M  V30 BEGIN ATOM
M  V30 1 C 1.709908 -5.895550 2.490849 0
M  V30 2 C 2.817021 -5.250863 1.651976 0
M  V30 3 N 3.260794 -6.213094 0.638656 0
M  V30 4 C 4.420552 -7.003789 0.619924 0
M  V30 5 O 5.250519 -6.940061 1.575804 0
M  V30 6 C 4.726683 -7.920770 -0.468906 0
M  V30 7 C 4.021732 -8.130334 -1.639349 0
M  V30 8 N 4.655563 -9.059888 -2.381907 0
M  V30 9 N 5.750306 -9.444345 -1.703268 0
M  V30 10 C 6.612550 -10.455953 -2.299199 0
M  V30 11 C 5.813099 -8.761430 -0.533679 0
M  V30 12 N 6.854534 -8.969035 0.382353 0
M  V30 13 C 2.282079 -4.076717 0.931443 0
M  V30 14 C 1.123942 -3.501002 1.468664 0
M  V30 15 C 0.518197 -2.396160 0.857582 0
M  V30 16 C 1.038815 -1.834798 -0.292444 0
M  V30 17 C 0.426590 -0.669891 -0.953506 0
M  V30 18 O 0.898942 -0.360472 -2.083548 0
M  V30 19 N -0.659161 0.128885 -0.407414 0
M  V30 20 C -1.140896 1.220179 -1.188282 0 CFG=1
M  V30 21 C -2.579614 1.235523 -1.542000 0
M  V30 22 C -3.599923 1.298214 -0.491332 0
M  V30 23 C -3.711014 0.276065 0.545709 0
M  V30 24 C -4.916762 0.681846 1.433203 0
M  V30 25 C -6.196760 0.578523 0.671381 0
M  V30 26 C -6.283027 -0.639863 -0.195929 0
M  V30 27 C -5.254975 -1.666581 0.217725 0
M  V30 28 C -3.833621 -1.140280 0.155114 0
M  V30 29 C -0.712902 2.543270 -0.582481 0
M  V30 30 O -0.058299 2.473862 0.490835 0
M  V30 31 N -1.054766 3.759811 -1.227701 0
M  V30 32 C -0.746867 5.092554 -0.817130 0
M  V30 33 C 0.071268 5.719991 -1.929313 0
M  V30 34 C 0.435901 7.141447 -1.652103 0
M  V30 35 C -0.096193 7.497947 -0.275230 0
M  V30 36 N -1.512972 7.275030 -0.186272 0
M  V30 37 S -1.988746 7.727052 1.409496 0
M  V30 38 C -1.183085 6.731008 2.638901 0
M  V30 39 O -1.502102 9.147533 1.598204 0
M  V30 40 O -3.466317 7.671054 1.518185 0
M  V30 41 C -1.942138 5.957754 -0.566186 0
M  V30 42 C 2.177187 -2.397787 -0.820523 0
M  V30 43 C 2.759058 -3.482159 -0.208291 0
M  V30 44 H 1.644458 -5.343509 3.427093 0
M  V30 45 H 0.779975 -6.036899 1.941273 0
M  V30 46 H 2.131175 -6.914670 2.730197 0
M  V30 47 H 3.589650 -4.972231 2.363831 0
M  V30 48 H 2.624449 -6.325714 -0.179273 0
M  V30 49 H 3.095995 -7.619724 -1.914604 0
M  V30 50 H 5.941648 -11.311787 -2.604777 0
M  V30 51 H 6.990479 -10.053335 -3.260803 0
M  V30 52 H 7.390203 -10.827691 -1.619217 0
M  V30 53 H 7.144427 -9.872003 0.776048 0
M  V30 54 H 7.536246 -8.303591 0.847682 0
M  V30 55 H 0.668423 -3.903724 2.382240 0
M  V30 56 H -0.362218 -2.020748 1.332579 0
M  V30 57 H -0.865970 -0.297402 0.514607 0
M  V30 58 H -0.577596 1.202738 -2.167565 0
M  V30 59 H -2.722668 2.175655 -2.172269 0
M  V30 60 H -2.821450 0.436886 -2.319949 0
M  V30 61 H -3.463700 2.306306 0.026021 0
M  V30 62 H -4.604059 1.433979 -0.979232 0
M  V30 63 H -2.855699 0.418044 1.276455 0
M  V30 64 H -4.741389 1.750888 1.672287 0
M  V30 65 H -4.909378 0.149655 2.386735 0
M  V30 66 H -7.029209 0.568707 1.432154 0
M  V30 67 H -6.407439 1.464790 0.039521 0
M  V30 68 H -6.227045 -0.414726 -1.278248 0
M  V30 69 H -7.270171 -1.117985 -0.047930 0
M  V30 70 H -5.407985 -2.542701 -0.455674 0
M  V30 71 H -5.498647 -1.999199 1.251259 0
M  V30 72 H -3.275663 -1.756045 0.921657 0
M  V30 73 H -3.377970 -1.423198 -0.806483 0
M  V30 74 H -1.594123 3.822973 -2.116803 0
M  V30 75 H -0.172482 5.023164 0.137913 0
M  V30 76 H 0.934402 5.075813 -2.204734 0
M  V30 77 H -0.600203 5.709071 -2.835624 0
M  V30 78 H 0.012033 7.862926 -2.377758 0
M  V30 79 H 1.542229 7.219683 -1.605195 0
M  V30 80 H 0.073433 8.585972 -0.143983 0
M  V30 81 H 0.481887 6.984781 0.531697 0
M  V30 82 H -1.504806 5.672392 2.619153 0
M  V30 83 H -1.400929 7.158265 3.626891 0
M  V30 84 H -0.083857 6.822664 2.492627 0
M  V30 85 H -2.620653 5.600208 0.211601 0
M  V30 86 H -2.537183 6.055732 -1.518731 0
M  V30 87 H 2.631629 -1.997042 -1.723179 0
M  V30 88 H 3.659185 -3.935958 -0.614848 0
M  V30 END ATOM
M  V30 BEGIN BOND
M  V30 1 1 1 2
M  V30 2 1 2 3
M  V30 3 1 3 4
M  V30 4 2 4 5
M  V30 5 1 4 6
M  V30 6 1 6 7
M  V30 7 2 7 8
M  V30 8 1 8 9
M  V30 9 1 9 10
M  V30 10 1 9 11
M  V30 11 1 11 12
M  V30 12 1 2 13
M  V30 13 2 13 14
M  V30 14 1 14 15
M  V30 15 2 15 16
M  V30 16 1 16 17
M  V30 17 2 17 18
M  V30 18 1 17 19
M  V30 19 1 19 20
M  V30 20 1 20 21
M  V30 21 1 21 22
M  V30 22 1 22 23
M  V30 23 1 23 24
M  V30 24 1 24 25
M  V30 25 1 25 26
M  V30 26 1 26 27
M  V30 27 1 27 28
M  V30 28 1 20 29
M  V30 29 2 29 30
M  V30 30 1 29 31
M  V30 31 1 31 32
M  V30 32 1 32 33
M  V30 33 1 33 34
M  V30 34 1 34 35
M  V30 35 1 35 36
M  V30 36 1 36 37
M  V30 37 1 37 38
M  V30 38 2 37 39
M  V30 39 2 37 40
M  V30 40 1 36 41
M  V30 41 1 16 42
M  V30 42 2 42 43
M  V30 43 2 11 6
M  V30 44 1 43 13
M  V30 45 1 28 23
M  V30 46 1 41 32
M  V30 47 1 1 44
M  V30 48 1 1 45
M  V30 49 1 1 46
M  V30 50 1 2 47
M  V30 51 1 3 48
M  V30 52 1 7 49
M  V30 53 1 10 50
M  V30 54 1 10 51
M  V30 55 1 10 52
M  V30 56 1 12 53
M  V30 57 1 12 54
M  V30 58 1 14 55
M  V30 59 1 15 56
M  V30 60 1 19 57
M  V30 61 1 20 58 CFG=3
M  V30 62 1 21 59
M  V30 63 1 21 60
M  V30 64 1 22 61
M  V30 65 1 22 62
M  V30 66 1 23 63
M  V30 67 1 24 64
M  V30 68 1 24 65
M  V30 69 1 25 66
M  V30 70 1 25 67
M  V30 71 1 26 68
M  V30 72 1 26 69
M  V30 73 1 27 70
M  V30 74 1 27 71
M  V30 75 1 28 72
M  V30 76 1 28 73
M  V30 77 1 31 74
M  V30 78 1 32 75
M  V30 79 1 33 76
M  V30 80 1 33 77
M  V30 81 1 34 78
M  V30 82 1 34 79
M  V30 83 1 35 80
M  V30 84 1 35 81
M  V30 85 1 38 82
M  V30 86 1 38 83
M  V30 87 1 38 84
M  V30 88 1 41 85
M  V30 89 1 41 86
M  V30 90 1 42 87
M  V30 91 1 43 88
M  V30 END BOND
M  V30 END CTAB
M  END
>  <Dataset>  (212) 
ChEMBL_Kinases

>  <Ligand_Instance>  (212) 
nan

>  <PDB_ID>  (212) 
nan

>  <Standardized_SMILES>  (212) 
CC(NC(=O)c1cnn(C)c1N)c1ccc(C(=O)N[C@@H](CCC2CCCCC2)C(=O)NC2CCCN(S(C)(=O)=O)C2)cc1

>  <Name>  (212) 
nan

>  <Pocket>  (212) 
nan

>  <ATP_Site>  (212) 
nan

>  <Peripheral>  (212) 
nan

>  <Num_H_Atoms_ProtBoundConf>  (212) 
nan

>  <Num_Resolved_Atoms>  (212) 
nan

>  <Num_Not_Resolved_Atoms>  (212) 
nan

$$$$
CHEMBL5086355
     RDKit          3D

  0  0  0  0  0  0  0  0  0  0999 V3000
M  V30 BEGIN CTAB
M  V30 COUNTS 28 30 0 0 0
M  V30 BEGIN ATOM
M  V30 1 C -1.633584 -1.059743 2.474956 0
M  V30 2 N -0.784708 -0.459648 1.491318 0
M  V30 3 C 0.225787 -1.106659 0.878177 0
M  V30 4 N 0.683088 -2.452146 1.031988 0
M  V30 5 C 1.543616 -2.604232 2.068228 0
M  V30 6 C 1.930596 -3.938201 2.137090 0
M  V30 7 C 1.274082 -4.589157 1.105838 0
M  V30 8 C 0.514310 -3.658153 0.440943 0
M  V30 9 C 0.820283 -0.223541 -0.000336 0
M  V30 10 C 1.938854 -0.481676 -0.866738 0
M  V30 11 N 2.850632 -0.678133 -1.552641 0
M  V30 12 C 0.167282 0.983436 0.072677 0
M  V30 13 C 0.344675 2.192121 -0.576702 0
M  V30 14 N 1.373201 2.377594 -1.546587 0
M  V30 15 N -0.485509 3.228005 -0.279588 0
M  V30 16 C -1.464031 3.037224 0.649020 0
M  V30 17 N -1.632761 1.857250 1.279105 0
M  V30 18 C -0.839460 0.791890 1.026123 0
M  V30 19 H -1.519064 -2.137393 2.552075 0
M  V30 20 H -2.686589 -0.822059 2.218662 0
M  V30 21 H -1.453387 -0.527484 3.443217 0
M  V30 22 H 1.992233 -1.968939 2.832684 0
M  V30 23 H 2.583988 -4.519390 2.777757 0
M  V30 24 H 1.245857 -5.613317 0.748897 0
M  V30 25 H -0.166918 -3.624721 -0.406666 0
M  V30 26 H 2.362017 2.081739 -1.305930 0
M  V30 27 H 1.143203 2.798280 -2.473145 0
M  V30 28 H -2.122088 3.864069 0.882189 0
M  V30 END ATOM
M  V30 BEGIN BOND
M  V30 1 1 1 2
M  V30 2 1 2 3
M  V30 3 1 3 4
M  V30 4 1 4 5
M  V30 5 2 5 6
M  V30 6 1 6 7
M  V30 7 2 7 8
M  V30 8 2 3 9
M  V30 9 1 9 10
M  V30 10 3 10 11
M  V30 11 1 9 12
M  V30 12 2 12 13
M  V30 13 1 13 14
M  V30 14 1 13 15
M  V30 15 2 15 16
M  V30 16 1 16 17
M  V30 17 2 17 18
M  V30 18 1 18 2
M  V30 19 1 8 4
M  V30 20 1 18 12
M  V30 21 1 1 19
M  V30 22 1 1 20
M  V30 23 1 1 21
M  V30 24 1 5 22
M  V30 25 1 6 23
M  V30 26 1 7 24
M  V30 27 1 8 25
M  V30 28 1 14 26
M  V30 29 1 14 27
M  V30 30 1 16 28
M  V30 END BOND
M  V30 END CTAB
M  END
>  <Dataset>  (213) 
ChEMBL_Kinases

>  <Ligand_Instance>  (213) 
nan

>  <PDB_ID>  (213) 
nan

>  <Standardized_SMILES>  (213) 
Cn1c(-n2cccc2)c(C#N)c2c(N)ncnc21

>  <Name>  (213) 
nan

>  <Pocket>  (213) 
nan

>  <ATP_Site>  (213) 
nan

>  <Peripheral>  (213) 
nan

>  <Num_H_Atoms_ProtBoundConf>  (213) 
nan

>  <Num_Resolved_Atoms>  (213) 
nan

>  <Num_Not_Resolved_Atoms>  (213) 
nan

$$$$
CHEMBL5086379
     RDKit          3D

  0  0  0  0  0  0  0  0  0  0999 V3000
M  V30 BEGIN CTAB
M  V30 COUNTS 56 60 0 0 0
M  V30 BEGIN ATOM
M  V30 1 O 2.607957 -4.929164 0.725412 0
M  V30 2 S 3.271263 -3.769939 -0.029542 0
M  V30 3 O 4.379696 -4.302759 -0.869039 0
M  V30 4 N 3.802350 -2.593752 1.091048 0
M  V30 5 C 2.725588 -2.147702 1.969779 0
M  V30 6 C 3.324993 -1.091701 2.913821 0
M  V30 7 C 3.708258 0.103996 2.031488 0
M  V30 8 N 2.578765 0.695174 1.456530 0
M  V30 9 C 1.429558 1.273044 0.860709 0
M  V30 10 N 1.257617 2.295792 -0.027831 0
M  V30 11 C -0.010867 2.572644 -0.381328 0
M  V30 12 C -1.049940 1.845392 0.143390 0
M  V30 13 C -0.930317 0.818811 1.030297 0
M  V30 14 C -1.956540 0.020518 1.693477 0
M  V30 15 C -3.127586 -0.265155 1.055483 0
M  V30 16 C -3.801331 0.006647 -0.200808 0
M  V30 17 C -4.931280 0.821415 -0.157819 0
M  V30 18 C -5.687010 1.167406 -1.289627 0
M  V30 19 C -5.219120 0.625460 -2.472264 0
M  V30 20 C -4.111722 -0.188083 -2.604225 0
M  V30 21 C -3.405218 -0.492204 -1.438721 0
M  V30 22 N -3.897594 -1.045710 1.824424 0
M  V30 23 C -3.151739 -1.249778 3.004955 0
M  V30 24 S -3.134157 -2.041355 4.598666 0
M  V30 25 C -1.418741 -1.390888 5.066198 0
M  V30 26 C -1.040739 -0.597873 3.876051 0
M  V30 27 N -1.930438 -0.563168 2.891575 0
M  V30 28 N 0.366144 0.593061 1.343436 0
M  V30 29 C 2.049673 -3.051615 -1.080613 0
M  V30 30 C 0.673454 -3.143933 -1.219639 0
M  V30 31 C 0.060748 -2.368478 -2.149905 0
M  V30 32 C 0.681296 -1.479281 -2.987254 0
M  V30 33 F -0.062672 -0.760546 -3.889586 0
M  V30 34 C 2.068598 -1.357866 -2.881842 0
M  V30 35 C 2.716096 -2.148892 -1.930150 0
M  V30 36 H 4.564485 -2.935167 1.684474 0
M  V30 37 H 2.322565 -2.945419 2.593386 0
M  V30 38 H 1.978990 -1.633697 1.346559 0
M  V30 39 H 4.219323 -1.512933 3.388917 0
M  V30 40 H 2.555004 -0.735932 3.617112 0
M  V30 41 H 4.370056 0.741393 2.613077 0
M  V30 42 H 4.365494 -0.290064 1.175425 0
M  V30 43 H 2.662744 1.617457 2.005624 0
M  V30 44 H -0.119475 3.380707 -1.074808 0
M  V30 45 H -2.061557 2.069275 -0.144231 0
M  V30 46 H -5.309084 1.249955 0.790243 0
M  V30 47 H -6.572468 1.792479 -1.317450 0
M  V30 48 H -5.755487 0.835312 -3.408339 0
M  V30 49 H -3.725360 -0.619144 -3.503103 0
M  V30 50 H -2.535566 -1.079527 -1.302946 0
M  V30 51 H -0.712799 -1.495341 5.969600 0
M  V30 52 H -0.074749 -0.150116 3.959669 0
M  V30 53 H 0.344674 -3.870672 -0.502778 0
M  V30 54 H -0.992134 -2.532525 -2.179061 0
M  V30 55 H 2.484134 -0.652148 -3.561779 0
M  V30 56 H 3.779673 -1.899274 -1.993291 0
M  V30 END ATOM
M  V30 BEGIN BOND
M  V30 1 2 1 2
M  V30 2 2 2 3
M  V30 3 1 2 4
M  V30 4 1 4 5
M  V30 5 1 5 6
M  V30 6 1 6 7
M  V30 7 1 7 8
M  V30 8 1 8 9
M  V30 9 2 9 10
M  V30 10 1 10 11
M  V30 11 2 11 12
M  V30 12 1 12 13
M  V30 13 1 13 14
M  V30 14 2 14 15
M  V30 15 1 15 16
M  V30 16 2 16 17
M  V30 17 1 17 18
M  V30 18 2 18 19
M  V30 19 1 19 20
M  V30 20 2 20 21
M  V30 21 1 15 22
M  V30 22 2 22 23
M  V30 23 1 23 24
M  V30 24 1 24 25
M  V30 25 2 25 26
M  V30 26 1 26 27
M  V30 27 2 13 28
M  V30 28 1 2 29
M  V30 29 2 29 30
M  V30 30 1 30 31
M  V30 31 2 31 32
M  V30 32 1 32 33
M  V30 33 1 32 34
M  V30 34 2 34 35
M  V30 35 1 28 9
M  V30 36 1 35 29
M  V30 37 1 27 14
M  V30 38 1 21 16
M  V30 39 1 27 23
M  V30 40 1 4 36
M  V30 41 1 5 37
M  V30 42 1 5 38
M  V30 43 1 6 39
M  V30 44 1 6 40
M  V30 45 1 7 41
M  V30 46 1 7 42
M  V30 47 1 8 43
M  V30 48 1 11 44
M  V30 49 1 12 45
M  V30 50 1 17 46
M  V30 51 1 18 47
M  V30 52 1 19 48
M  V30 53 1 20 49
M  V30 54 1 21 50
M  V30 55 1 25 51
M  V30 56 1 26 52
M  V30 57 1 30 53
M  V30 58 1 31 54
M  V30 59 1 34 55
M  V30 60 1 35 56
M  V30 END BOND
M  V30 END CTAB
M  END
>  <Dataset>  (214) 
ChEMBL_Kinases

>  <Ligand_Instance>  (214) 
nan

>  <PDB_ID>  (214) 
nan

>  <Standardized_SMILES>  (214) 
O=S(=O)(NCCCNc1nccc(-c2c(-c3ccccc3)nc3sccn23)n1)c1ccc(F)cc1

>  <Name>  (214) 
nan

>  <Pocket>  (214) 
nan

>  <ATP_Site>  (214) 
nan

>  <Peripheral>  (214) 
nan

>  <Num_H_Atoms_ProtBoundConf>  (214) 
nan

>  <Num_Resolved_Atoms>  (214) 
nan

>  <Num_Not_Resolved_Atoms>  (214) 
nan

$$$$
CHEMBL5086422
     RDKit          3D

  0  0  0  0  0  0  0  0  0  0999 V3000
M  V30 BEGIN CTAB
M  V30 COUNTS 47 50 0 0 0
M  V30 BEGIN ATOM
M  V30 1 C 1.281692 -0.136591 3.191005 0
M  V30 2 N 1.234491 -0.756096 1.855371 0
M  V30 3 C 2.180970 -0.574548 0.814513 0
M  V30 4 N 2.940050 -1.671509 0.639303 0
M  V30 5 C 3.938779 -1.713048 -0.279231 0
M  V30 6 N 4.176420 -0.621875 -1.038292 0
M  V30 7 C 3.444975 0.509772 -0.907325 0
M  V30 8 N 3.432520 1.718895 -1.498278 0
M  V30 9 C 2.449197 2.468579 -0.950194 0
M  V30 10 C 2.027206 3.757849 -1.205599 0
M  V30 11 C 0.972033 4.294091 -0.493149 0
M  V30 12 Br 0.409616 6.075035 -0.864689 0
M  V30 13 C 0.329034 3.533882 0.487151 0
M  V30 14 C 0.767171 2.250781 0.724862 0
M  V30 15 C 1.805180 1.732195 0.020745 0
M  V30 16 C 2.439766 0.519639 0.032066 0
M  V30 17 C 0.069255 -1.626819 1.672764 0
M  V30 18 C 0.189051 -2.696552 2.721943 0
M  V30 19 C -1.104143 -3.463720 2.756979 0
M  V30 20 C -1.818590 -3.239182 1.435419 0
M  V30 21 N -2.247958 -1.870886 1.309401 0
M  V30 22 C -2.677143 -1.608036 -0.048135 0
M  V30 23 C -3.950720 -2.368421 -0.357092 0
M  V30 24 C -5.047094 -2.008396 0.515212 0
M  V30 25 N -5.923406 -1.740100 1.212121 0
M  V30 26 C -1.235844 -0.909377 1.702136 0
M  V30 27 H 1.834646 -0.787269 3.898418 0
M  V30 28 H 1.846173 0.826374 3.138177 0
M  V30 29 H 0.277142 0.025069 3.598052 0
M  V30 30 H 4.567099 -2.583937 -0.442309 0
M  V30 31 H 4.116070 1.976475 -2.266989 0
M  V30 32 H 2.541215 4.331991 -1.972359 0
M  V30 33 H -0.496182 4.044643 0.997719 0
M  V30 34 H 0.187252 1.776522 1.488439 0
M  V30 35 H 0.166828 -2.094726 0.672696 0
M  V30 36 H 1.044979 -3.347532 2.440423 0
M  V30 37 H 0.444024 -2.263365 3.721520 0
M  V30 38 H -1.725604 -3.054871 3.567388 0
M  V30 39 H -0.887108 -4.542212 2.884914 0
M  V30 40 H -1.229812 -3.571770 0.571584 0
M  V30 41 H -2.720196 -3.905989 1.484985 0
M  V30 42 H -1.922072 -1.942900 -0.798177 0
M  V30 43 H -2.837542 -0.528349 -0.213327 0
M  V30 44 H -3.741013 -3.456068 -0.353117 0
M  V30 45 H -4.270320 -2.111457 -1.396737 0
M  V30 46 H -1.201625 -0.100074 0.936886 0
M  V30 47 H -1.486378 -0.490389 2.714401 0
M  V30 END ATOM
M  V30 BEGIN BOND
M  V30 1 1 1 2
M  V30 2 1 2 3
M  V30 3 2 3 4
M  V30 4 1 4 5
M  V30 5 2 5 6
M  V30 6 1 6 7
M  V30 7 1 7 8
M  V30 8 1 8 9
M  V30 9 2 9 10
M  V30 10 1 10 11
M  V30 11 1 11 12
M  V30 12 2 11 13
M  V30 13 1 13 14
M  V30 14 2 14 15
M  V30 15 1 15 16
M  V30 16 1 2 17
M  V30 17 1 17 18
M  V30 18 1 18 19
M  V30 19 1 19 20
M  V30 20 1 20 21
M  V30 21 1 21 22
M  V30 22 1 22 23
M  V30 23 1 23 24
M  V30 24 3 24 25
M  V30 25 1 21 26
M  V30 26 1 16 3
M  V30 27 1 26 17
M  V30 28 2 16 7
M  V30 29 1 15 9
M  V30 30 1 1 27
M  V30 31 1 1 28
M  V30 32 1 1 29
M  V30 33 1 5 30
M  V30 34 1 8 31
M  V30 35 1 10 32
M  V30 36 1 13 33
M  V30 37 1 14 34
M  V30 38 1 17 35
M  V30 39 1 18 36
M  V30 40 1 18 37
M  V30 41 1 19 38
M  V30 42 1 19 39
M  V30 43 1 20 40
M  V30 44 1 20 41
M  V30 45 1 22 42
M  V30 46 1 22 43
M  V30 47 1 23 44
M  V30 48 1 23 45
M  V30 49 1 26 46
M  V30 50 1 26 47
M  V30 END BOND
M  V30 END CTAB
M  END
>  <Dataset>  (215) 
ChEMBL_Kinases

>  <Ligand_Instance>  (215) 
nan

>  <PDB_ID>  (215) 
nan

>  <Standardized_SMILES>  (215) 
CN(c1ncnc2[nH]c3cc(Br)ccc3c12)C1CCCN(CCC#N)C1

>  <Name>  (215) 
nan

>  <Pocket>  (215) 
nan

>  <ATP_Site>  (215) 
nan

>  <Peripheral>  (215) 
nan

>  <Num_H_Atoms_ProtBoundConf>  (215) 
nan

>  <Num_Resolved_Atoms>  (215) 
nan

>  <Num_Not_Resolved_Atoms>  (215) 
nan

$$$$
CHEMBL5086435
     RDKit          3D

  0  0  0  0  0  0  0  0  0  0999 V3000
M  V30 BEGIN CTAB
M  V30 COUNTS 98 104 0 0 0
M  V30 BEGIN ATOM
M  V30 1 C 3.885406 1.997459 -0.209574 0
M  V30 2 C 4.921131 1.668664 0.840092 0
M  V30 3 C 5.080191 0.189363 0.996013 0
M  V30 4 C 6.132952 -0.531699 0.487930 0
M  V30 5 C 6.146813 -1.909826 0.709624 0
M  V30 6 C 5.140580 -2.500394 1.410073 0
M  V30 7 C 4.063549 -1.769628 1.931318 0
M  V30 8 C 3.054206 -2.562730 2.674352 0
M  V30 9 C 1.824170 -2.802732 1.829686 0
M  V30 10 C 4.052242 -0.388783 1.706893 0
M  V30 11 N 2.893491 0.183924 2.296719 0
M  V30 12 C 2.812447 0.590688 3.683182 0
M  V30 13 O 3.784369 0.454128 4.434929 0
M  V30 14 C 1.486582 1.126758 3.964883 0
M  V30 15 C 0.325665 1.471232 3.310867 0
M  V30 16 C -0.654425 1.896798 4.202143 0
M  V30 17 C -1.960422 2.288731 3.694139 0
M  V30 18 N -2.507698 1.463104 2.787748 0
M  V30 19 C -3.698879 1.616739 2.198597 0
M  V30 20 N -4.249186 0.757746 1.209451 0
M  V30 21 C -3.623633 -0.310630 0.521414 0
M  V30 22 C -2.297191 -0.650435 0.659079 0
M  V30 23 C -1.662779 -1.664009 -0.019505 0
M  V30 24 C -2.365435 -2.425041 -0.916863 0
M  V30 25 N -1.815837 -3.478550 -1.693305 0
M  V30 26 C -2.445930 -4.476159 -2.530745 0
M  V30 27 C -2.153291 -4.186641 -4.011944 0
M  V30 28 C -0.705647 -3.830634 -4.203168 0
M  V30 29 N -0.377952 -2.492407 -4.421597 0
M  V30 30 C 0.998279 -2.166991 -4.621340 0
M  V30 31 C 1.094145 -1.090731 -5.678073 0
M  V30 32 N 0.419253 0.126470 -5.265361 0
M  V30 33 C 0.405304 1.134136 -6.266500 0
M  V30 34 C -0.811477 -0.110392 -4.590808 0
M  V30 35 C -1.339004 -1.522934 -4.699281 0
M  V30 36 C 0.085371 -4.309766 -2.978607 0
M  V30 37 C -0.370597 -3.629453 -1.714841 0
M  V30 38 C -3.723501 -2.118260 -1.091676 0
M  V30 39 C -4.314013 -1.094150 -0.388757 0
M  V30 40 O -5.651585 -0.818376 -0.581386 0
M  V30 41 C -6.528134 -1.476547 -1.444680 0
M  V30 42 N -4.379601 2.705522 2.574428 0
M  V30 43 C -3.949196 3.603729 3.464526 0
M  V30 44 N -4.441885 4.743459 3.972884 0
M  V30 45 C -3.538403 5.250637 4.848760 0
M  V30 46 C -2.455768 4.401784 4.885860 0
M  V30 47 C -2.713361 3.385196 4.030609 0
M  V30 48 N -0.032994 1.792814 5.397317 0
M  V30 49 C -0.689460 2.112833 6.643054 0
M  V30 50 N 1.194681 1.354594 5.287956 0
M  V30 51 H 3.225199 1.114820 -0.421144 0
M  V30 52 H 4.344571 2.253616 -1.187629 0
M  V30 53 H 3.213080 2.822535 0.068792 0
M  V30 54 H 5.875289 2.160201 0.603744 0
M  V30 55 H 4.556233 2.121174 1.797937 0
M  V30 56 H 6.902438 -0.009772 -0.060483 0
M  V30 57 H 7.000193 -2.428622 0.287719 0
M  V30 58 H 5.206926 -3.578525 1.553316 0
M  V30 59 H 2.753772 -2.049772 3.623624 0
M  V30 60 H 3.453279 -3.526862 2.980163 0
M  V30 61 H 1.186462 -3.619125 2.290496 0
M  V30 62 H 1.187109 -1.902992 1.726839 0
M  V30 63 H 2.083503 -3.154023 0.810679 0
M  V30 64 H 2.155286 0.250426 1.563376 0
M  V30 65 H 0.346541 1.362427 2.231251 0
M  V30 66 H -5.262832 0.931731 0.944349 0
M  V30 67 H -1.645699 -0.121283 1.331019 0
M  V30 68 H -0.609087 -1.904107 0.115863 0
M  V30 69 H -3.510502 -4.514817 -2.298492 0
M  V30 70 H -2.027784 -5.461793 -2.245226 0
M  V30 71 H -2.846364 -3.437123 -4.421384 0
M  V30 72 H -2.381447 -5.132349 -4.544433 0
M  V30 73 H -0.312841 -4.428084 -5.052620 0
M  V30 74 H 1.393877 -1.747564 -3.662917 0
M  V30 75 H 1.563488 -3.038241 -4.959776 0
M  V30 76 H 0.669136 -1.514241 -6.610023 0
M  V30 77 H 2.171773 -0.913613 -5.874761 0
M  V30 78 H -0.605457 1.526513 -6.509484 0
M  V30 79 H 0.931674 0.769876 -7.192889 0
M  V30 80 H 1.027592 2.002544 -5.908658 0
M  V30 81 H -0.716354 0.125420 -3.502220 0
M  V30 82 H -1.576786 0.558183 -5.025778 0
M  V30 83 H -1.838326 -1.583229 -5.684097 0
M  V30 84 H -2.158081 -1.577584 -3.934768 0
M  V30 85 H 0.117687 -5.412450 -2.921132 0
M  V30 86 H 1.125192 -3.979398 -3.179203 0
M  V30 87 H 0.069224 -2.604787 -1.683481 0
M  V30 88 H 0.031765 -4.180579 -0.845852 0
M  V30 89 H -4.276011 -2.707712 -1.793266 0
M  V30 90 H -6.292296 -2.522059 -1.650223 0
M  V30 91 H -6.491397 -0.930306 -2.424114 0
M  V30 92 H -7.585728 -1.363470 -1.085617 0
M  V30 93 H -5.379263 5.180045 3.733111 0
M  V30 94 H -3.634593 6.155028 5.416326 0
M  V30 95 H -1.579082 4.527948 5.474057 0
M  V30 96 H -0.291215 1.410254 7.417450 0
M  V30 97 H -0.399453 3.148390 6.995425 0
M  V30 98 H -1.773827 2.101019 6.613251 0
M  V30 END ATOM
M  V30 BEGIN BOND
M  V30 1 1 1 2
M  V30 2 1 2 3
M  V30 3 2 3 4
M  V30 4 1 4 5
M  V30 5 2 5 6
M  V30 6 1 6 7
M  V30 7 1 7 8
M  V30 8 1 8 9
M  V30 9 2 7 10
M  V30 10 1 10 11
M  V30 11 1 11 12
M  V30 12 2 12 13
M  V30 13 1 12 14
M  V30 14 1 14 15
M  V30 15 2 15 16
M  V30 16 1 16 17
M  V30 17 2 17 18
M  V30 18 1 18 19
M  V30 19 1 19 20
M  V30 20 1 20 21
M  V30 21 2 21 22
M  V30 22 1 22 23
M  V30 23 2 23 24
M  V30 24 1 24 25
M  V30 25 1 25 26
M  V30 26 1 26 27
M  V30 27 1 27 28
M  V30 28 1 28 29
M  V30 29 1 29 30
M  V30 30 1 30 31
M  V30 31 1 31 32
M  V30 32 1 32 33
M  V30 33 1 32 34
M  V30 34 1 34 35
M  V30 35 1 28 36
M  V30 36 1 36 37
M  V30 37 1 24 38
M  V30 38 2 38 39
M  V30 39 1 39 40
M  V30 40 1 40 41
M  V30 41 2 19 42
M  V30 42 1 42 43
M  V30 43 1 43 44
M  V30 44 1 44 45
M  V30 45 2 45 46
M  V30 46 1 46 47
M  V30 47 1 16 48
M  V30 48 1 48 49
M  V30 49 1 48 50
M  V30 50 1 10 3
M  V30 51 2 50 14
M  V30 52 1 47 17
M  V30 53 1 39 21
M  V30 54 2 47 43
M  V30 55 1 37 25
M  V30 56 1 35 29
M  V30 57 1 1 51
M  V30 58 1 1 52
M  V30 59 1 1 53
M  V30 60 1 2 54
M  V30 61 1 2 55
M  V30 62 1 4 56
M  V30 63 1 5 57
M  V30 64 1 6 58
M  V30 65 1 8 59
M  V30 66 1 8 60
M  V30 67 1 9 61
M  V30 68 1 9 62
M  V30 69 1 9 63
M  V30 70 1 11 64
M  V30 71 1 15 65
M  V30 72 1 20 66
M  V30 73 1 22 67
M  V30 74 1 23 68
M  V30 75 1 26 69
M  V30 76 1 26 70
M  V30 77 1 27 71
M  V30 78 1 27 72
M  V30 79 1 28 73
M  V30 80 1 30 74
M  V30 81 1 30 75
M  V30 82 1 31 76
M  V30 83 1 31 77
M  V30 84 1 33 78
M  V30 85 1 33 79
M  V30 86 1 33 80
M  V30 87 1 34 81
M  V30 88 1 34 82
M  V30 89 1 35 83
M  V30 90 1 35 84
M  V30 91 1 36 85
M  V30 92 1 36 86
M  V30 93 1 37 87
M  V30 94 1 37 88
M  V30 95 1 38 89
M  V30 96 1 41 90
M  V30 97 1 41 91
M  V30 98 1 41 92
M  V30 99 1 44 93
M  V30 100 1 45 94
M  V30 101 1 46 95
M  V30 102 1 49 96
M  V30 103 1 49 97
M  V30 104 1 49 98
M  V30 END BOND
M  V30 END CTAB
M  END
>  <Dataset>  (216) 
ChEMBL_Kinases

>  <Ligand_Instance>  (216) 
nan

>  <PDB_ID>  (216) 
nan

>  <Standardized_SMILES>  (216) 
CCc1cccc(CC)c1NC(=O)c1cc(-c2nc(Nc3ccc(N4CCC(N5CCN(C)CC5)CC4)cc3OC)nc3[nH]ccc23)n(C)n1

>  <Name>  (216) 
nan

>  <Pocket>  (216) 
nan

>  <ATP_Site>  (216) 
nan

>  <Peripheral>  (216) 
nan

>  <Num_H_Atoms_ProtBoundConf>  (216) 
nan

>  <Num_Resolved_Atoms>  (216) 
nan

>  <Num_Not_Resolved_Atoms>  (216) 
nan

$$$$
CHEMBL5086455
     RDKit          3D

  0  0  0  0  0  0  0  0  0  0999 V3000
M  V30 BEGIN CTAB
M  V30 COUNTS 81 85 0 0 0
M  V30 BEGIN ATOM
M  V30 1 C 1.615086 -3.621636 -2.654920 0
M  V30 2 C 2.680735 -4.029642 -3.626909 0
M  V30 3 C 2.216027 -5.373477 -4.226111 0
M  V30 4 C 3.983298 -4.364608 -2.927991 0
M  V30 5 O 2.847126 -3.176591 -4.700884 0
M  V30 6 C 3.181234 -1.882396 -4.824059 0
M  V30 7 O 3.045005 -2.599368 -3.807573 0
M  V30 8 N 3.541462 -0.612294 -4.271607 0
M  V30 9 C 3.730486 0.351524 -5.304672 0
M  V30 10 C 4.072705 1.688275 -4.752104 0
M  V30 11 N 3.027015 2.179760 -3.831931 0
M  V30 12 C 3.528460 3.450330 -3.320117 0
M  V30 13 C 2.561040 4.281260 -2.570163 0
M  V30 14 N 1.967202 3.627247 -1.458084 0
M  V30 15 C 1.073232 4.556056 -0.798498 0
M  V30 16 O 0.784395 5.757878 -1.030507 0
M  V30 17 C 0.250970 4.208924 0.397480 0
M  V30 18 C -0.229777 5.058339 1.365337 0
M  V30 19 C -1.012497 4.534380 2.373263 0
M  V30 20 C -1.378569 3.215899 2.526107 0
M  V30 21 C -0.878122 2.373880 1.528319 0
M  V30 22 C -0.094475 2.861208 0.508315 0
M  V30 23 C -1.161449 0.949259 1.475527 0
M  V30 24 O -0.577337 0.332460 0.523582 0
M  V30 25 C -1.993873 0.109123 2.325862 0
M  V30 26 C -2.427362 -1.047761 1.718631 0
M  V30 27 C -3.228989 -1.896112 2.480975 0
M  V30 28 C -3.595038 -1.634742 3.784737 0
M  V30 29 N -4.387502 -2.519348 4.546474 0
M  V30 30 C -4.471972 -3.923487 4.596554 0
M  V30 31 C -3.737562 -4.861563 3.915531 0
M  V30 32 C -3.854841 -6.220403 3.971600 0
M  V30 33 C -4.825679 -6.742152 4.810033 0
M  V30 34 C -5.609534 -5.844837 5.534036 0
M  V30 35 C -5.443553 -4.485765 5.435531 0
M  V30 36 N -6.298514 -3.652612 6.229333 0
M  V30 37 C -3.111413 -0.440805 4.314616 0
M  V30 38 C -2.311531 0.460974 3.625697 0
M  V30 39 C -1.939305 1.666214 4.424040 0
M  V30 40 C -2.220872 2.970601 3.717897 0
M  V30 41 C 3.090693 1.258439 -2.709824 0
M  V30 42 C 3.770338 -0.054060 -2.994832 0
M  V30 43 H 2.015147 -3.004214 -1.819445 0
M  V30 44 H 0.862334 -3.004993 -3.178532 0
M  V30 45 H 1.070955 -4.503796 -2.238908 0
M  V30 46 H 1.134393 -5.278553 -4.372772 0
M  V30 47 H 2.420072 -6.199225 -3.518160 0
M  V30 48 H 2.797309 -5.504731 -5.160249 0
M  V30 49 H 4.804452 -4.392296 -3.686310 0
M  V30 50 H 4.207378 -3.673288 -2.105406 0
M  V30 51 H 3.936157 -5.380932 -2.447795 0
M  V30 52 H 4.533881 0.008502 -5.995518 0
M  V30 53 H 2.806166 0.367718 -5.931669 0
M  V30 54 H 4.998483 1.626202 -4.160552 0
M  V30 55 H 4.168408 2.470813 -5.549572 0
M  V30 56 H 4.432657 3.275767 -2.670962 0
M  V30 57 H 3.955366 4.081297 -4.162217 0
M  V30 58 H 3.091337 5.202575 -2.155535 0
M  V30 59 H 1.830586 4.716405 -3.277524 0
M  V30 60 H 1.880016 2.776846 -0.878945 0
M  V30 61 H 0.054513 6.091105 1.251599 0
M  V30 62 H -1.356376 5.272076 3.106623 0
M  V30 63 H 0.184343 2.037809 -0.165948 0
M  V30 64 H -2.116140 -1.208830 0.709038 0
M  V30 65 H -3.523435 -2.746209 1.925876 0
M  V30 66 H -5.012324 -1.964666 5.173118 0
M  V30 67 H -2.956152 -4.501320 3.263954 0
M  V30 68 H -3.203959 -6.864452 3.375781 0
M  V30 69 H -4.921946 -7.823916 4.856655 0
M  V30 70 H -6.372583 -6.259159 6.197109 0
M  V30 71 H -7.162934 -3.473181 5.659831 0
M  V30 72 H -5.709614 -3.542328 7.093691 0
M  V30 73 H -3.385192 -0.200652 5.353053 0
M  V30 74 H -2.388981 1.659562 5.414563 0
M  V30 75 H -0.841496 1.624651 4.574815 0
M  V30 76 H -1.977358 3.771532 4.482143 0
M  V30 77 H -3.297878 3.123508 3.480992 0
M  V30 78 H 2.060434 1.028738 -2.390855 0
M  V30 79 H 3.625114 1.758177 -1.885928 0
M  V30 80 H 3.481503 -0.801993 -2.219425 0
M  V30 81 H 4.859100 0.100151 -2.834126 0
M  V30 END ATOM
M  V30 BEGIN BOND
M  V30 1 1 1 2
M  V30 2 1 2 3
M  V30 3 1 2 4
M  V30 4 1 2 5
M  V30 5 1 5 6
M  V30 6 2 6 7
M  V30 7 1 6 8
M  V30 8 1 8 9
M  V30 9 1 9 10
M  V30 10 1 10 11
M  V30 11 1 11 12
M  V30 12 1 12 13
M  V30 13 1 13 14
M  V30 14 1 14 15
M  V30 15 2 15 16
M  V30 16 1 15 17
M  V30 17 2 17 18
M  V30 18 1 18 19
M  V30 19 2 19 20
M  V30 20 1 20 21
M  V30 21 2 21 22
M  V30 22 1 21 23
M  V30 23 2 23 24
M  V30 24 1 23 25
M  V30 25 2 25 26
M  V30 26 1 26 27
M  V30 27 2 27 28
M  V30 28 1 28 29
M  V30 29 1 29 30
M  V30 30 2 30 31
M  V30 31 1 31 32
M  V30 32 2 32 33
M  V30 33 1 33 34
M  V30 34 2 34 35
M  V30 35 1 35 36
M  V30 36 1 28 37
M  V30 37 2 37 38
M  V30 38 1 38 39
M  V30 39 1 39 40
M  V30 40 1 11 41
M  V30 41 1 41 42
M  V30 42 1 42 8
M  V30 43 1 22 17
M  V30 44 1 38 25
M  V30 45 1 40 20
M  V30 46 1 35 30
M  V30 47 1 1 43
M  V30 48 1 1 44
M  V30 49 1 1 45
M  V30 50 1 3 46
M  V30 51 1 3 47
M  V30 52 1 3 48
M  V30 53 1 4 49
M  V30 54 1 4 50
M  V30 55 1 4 51
M  V30 56 1 9 52
M  V30 57 1 9 53
M  V30 58 1 10 54
M  V30 59 1 10 55
M  V30 60 1 12 56
M  V30 61 1 12 57
M  V30 62 1 13 58
M  V30 63 1 13 59
M  V30 64 1 14 60
M  V30 65 1 18 61
M  V30 66 1 19 62
M  V30 67 1 22 63
M  V30 68 1 26 64
M  V30 69 1 27 65
M  V30 70 1 29 66
M  V30 71 1 31 67
M  V30 72 1 32 68
M  V30 73 1 33 69
M  V30 74 1 34 70
M  V30 75 1 36 71
M  V30 76 1 36 72
M  V30 77 1 37 73
M  V30 78 1 39 74
M  V30 79 1 39 75
M  V30 80 1 40 76
M  V30 81 1 40 77
M  V30 82 1 41 78
M  V30 83 1 41 79
M  V30 84 1 42 80
M  V30 85 1 42 81
M  V30 END BOND
M  V30 END CTAB
M  END
>  <Dataset>  (217) 
ChEMBL_Kinases

>  <Ligand_Instance>  (217) 
nan

>  <PDB_ID>  (217) 
nan

>  <Standardized_SMILES>  (217) 
CC(C)(C)OC(=O)N1CCN(CCNC(=O)c2ccc3c(c2)C(=O)c2ccc(Nc4ccccc4N)cc2CC3)CC1

>  <Name>  (217) 
nan

>  <Pocket>  (217) 
nan

>  <ATP_Site>  (217) 
nan

>  <Peripheral>  (217) 
nan

>  <Num_H_Atoms_ProtBoundConf>  (217) 
nan

>  <Num_Resolved_Atoms>  (217) 
nan

>  <Num_Not_Resolved_Atoms>  (217) 
nan

$$$$
CHEMBL5086489
     RDKit          3D

  0  0  0  0  0  0  0  0  0  0999 V3000
M  V30 BEGIN CTAB
M  V30 COUNTS 45 48 0 0 0
M  V30 BEGIN ATOM
M  V30 1 C 0.981534 -5.655828 0.918523 0
M  V30 2 O 0.552737 -4.520879 0.152353 0
M  V30 3 C -0.288662 -4.676800 -0.945147 0
M  V30 4 O -0.706390 -5.806035 -1.309796 0
M  V30 5 C -0.721562 -3.506020 -1.724599 0
M  V30 6 C -1.553227 -3.704381 -2.806249 0
M  V30 7 C -1.978977 -2.633591 -3.562375 0
M  V30 8 C -1.573152 -1.332415 -3.242336 0
M  V30 9 C -0.744865 -1.235293 -2.147517 0
M  V30 10 C -0.300353 0.131176 -1.791674 0
M  V30 11 C -0.124660 1.064804 -2.815320 0
M  V30 12 N 0.278271 2.312121 -2.501273 0
M  V30 13 C 0.517720 2.691114 -1.233093 0
M  V30 14 N 0.917840 3.835948 -0.652426 0
M  V30 15 C 1.001926 3.669195 0.681002 0
M  V30 16 C 0.653145 2.380211 1.041705 0
M  V30 17 C 0.592770 1.756621 2.345573 0
M  V30 18 C -0.505951 1.000272 2.699001 0
M  V30 19 C -0.708920 0.343103 3.899689 0
M  V30 20 C 0.308629 0.468762 4.833692 0
M  V30 21 C 1.446667 1.219469 4.539370 0
M  V30 22 O 2.507121 1.393453 5.418252 0
M  V30 23 C 2.415520 0.766495 6.683778 0
M  V30 24 C 1.574726 1.848750 3.310865 0
M  V30 25 C 0.355862 1.794450 -0.179212 0
M  V30 26 C -0.056576 0.512527 -0.487934 0
M  V30 27 C -0.267186 -2.240729 -1.333228 0
M  V30 28 H 1.638790 -6.265751 0.249294 0
M  V30 29 H 0.053079 -6.186031 1.213661 0
M  V30 30 H 1.510196 -5.286271 1.803775 0
M  V30 31 H -1.883521 -4.716217 -3.074834 0
M  V30 32 H -2.627253 -2.766321 -4.409046 0
M  V30 33 H -1.868601 -0.449989 -3.790882 0
M  V30 34 H -0.294753 0.843844 -3.860179 0
M  V30 35 H 1.127038 4.720727 -1.199168 0
M  V30 36 H 1.307497 4.453272 1.392266 0
M  V30 37 H -1.346518 0.866547 1.998377 0
M  V30 38 H -1.580411 -0.228868 4.117828 0
M  V30 39 H 0.241948 -0.005326 5.794538 0
M  V30 40 H 3.484844 0.698661 7.041225 0
M  V30 41 H 1.749776 1.271520 7.383035 0
M  V30 42 H 2.130037 -0.308895 6.501958 0
M  V30 43 H 2.452090 2.446171 3.042763 0
M  V30 44 H -0.216278 -0.265090 0.223072 0
M  V30 45 H 0.376885 -2.071487 -0.499162 0
M  V30 END ATOM
M  V30 BEGIN BOND
M  V30 1 1 1 2
M  V30 2 1 2 3
M  V30 3 2 3 4
M  V30 4 1 3 5
M  V30 5 2 5 6
M  V30 6 1 6 7
M  V30 7 2 7 8
M  V30 8 1 8 9
M  V30 9 1 9 10
M  V30 10 2 10 11
M  V30 11 1 11 12
M  V30 12 2 12 13
M  V30 13 1 13 14
M  V30 14 1 14 15
M  V30 15 2 15 16
M  V30 16 1 16 17
M  V30 17 2 17 18
M  V30 18 1 18 19
M  V30 19 2 19 20
M  V30 20 1 20 21
M  V30 21 1 21 22
M  V30 22 1 22 23
M  V30 23 2 21 24
M  V30 24 1 16 25
M  V30 25 2 25 26
M  V30 26 2 9 27
M  V30 27 1 27 5
M  V30 28 1 26 10
M  V30 29 1 25 13
M  V30 30 1 24 17
M  V30 31 1 1 28
M  V30 32 1 1 29
M  V30 33 1 1 30
M  V30 34 1 6 31
M  V30 35 1 7 32
M  V30 36 1 8 33
M  V30 37 1 11 34
M  V30 38 1 14 35
M  V30 39 1 15 36
M  V30 40 1 18 37
M  V30 41 1 19 38
M  V30 42 1 20 39
M  V30 43 1 23 40
M  V30 44 1 23 41
M  V30 45 1 23 42
M  V30 46 1 24 43
M  V30 47 1 26 44
M  V30 48 1 27 45
M  V30 END BOND
M  V30 END CTAB
M  END
>  <Dataset>  (218) 
ChEMBL_Kinases

>  <Ligand_Instance>  (218) 
nan

>  <PDB_ID>  (218) 
nan

>  <Standardized_SMILES>  (218) 
COC(=O)c1cccc(-c2cnc3[nH]cc(-c4cccc(OC)c4)c3c2)c1

>  <Name>  (218) 
nan

>  <Pocket>  (218) 
nan

>  <ATP_Site>  (218) 
nan

>  <Peripheral>  (218) 
nan

>  <Num_H_Atoms_ProtBoundConf>  (218) 
nan

>  <Num_Resolved_Atoms>  (218) 
nan

>  <Num_Not_Resolved_Atoms>  (218) 
nan

$$$$
CHEMBL5092867
     RDKit          3D

  0  0  0  0  0  0  0  0  0  0999 V3000
M  V30 BEGIN CTAB
M  V30 COUNTS 50 53 0 0 0
M  V30 BEGIN ATOM
M  V30 1 C 0.093166 -3.714021 4.364509 0
M  V30 2 N 0.987287 -2.822752 5.036866 0
M  V30 3 C 1.535733 -3.531096 6.213859 0
M  V30 4 C 1.419208 -1.501373 4.824493 0
M  V30 5 O 2.254876 -1.152273 5.734379 0
M  V30 6 C 1.192344 -0.432268 3.880747 0
M  V30 7 C 1.898225 0.734352 4.071698 0
M  V30 8 N 2.826652 0.947471 5.121504 0
M  V30 9 C 1.745326 1.830921 3.212311 0
M  V30 10 C 0.877174 1.739412 2.163018 0
M  V30 11 C 0.143244 0.598849 1.920644 0
M  V30 12 C -0.783136 0.516109 0.792054 0
M  V30 13 C -2.094582 0.904740 0.985694 0
M  V30 14 N -2.942019 0.825726 -0.058353 0
M  V30 15 C -2.548529 0.377928 -1.289433 0
M  V30 16 C -1.228091 -0.026461 -1.531137 0
M  V30 17 C -0.390471 0.064789 -0.452303 0
M  V30 18 Cl 1.258173 -0.411264 -0.645218 0
M  V30 19 C -1.151651 -0.447280 -2.955644 0 CFG=1
M  V30 20 C -0.894349 0.748006 -3.848107 0
M  V30 21 C 0.615726 0.767488 -3.926397 0
M  V30 22 C 0.966043 -0.689927 -3.968849 0 CFG=2
M  V30 23 O 1.072668 -1.030559 -5.330594 0
M  V30 24 C -0.125058 -1.447781 -3.282368 0
M  V30 25 C -2.573697 -0.906481 -3.177093 0
M  V30 26 N -3.276838 0.212661 -2.525704 0
M  V30 27 C 0.345774 -0.433803 2.804554 0
M  V30 28 F -0.381649 -1.516546 2.541861 0
M  V30 29 H 0.389756 -3.885673 3.305670 0
M  V30 30 H 0.077899 -4.757360 4.793170 0
M  V30 31 H -0.931006 -3.279585 4.409085 0
M  V30 32 H 2.049730 -4.457916 5.930372 0
M  V30 33 H 0.667832 -3.826619 6.858818 0
M  V30 34 H 2.266950 -2.909307 6.759062 0
M  V30 35 H 2.743232 1.301824 6.113003 0
M  V30 36 H 3.726334 0.646429 4.663245 0
M  V30 37 H 2.300524 2.744404 3.364981 0
M  V30 38 H 0.777583 2.594476 1.517783 0
M  V30 39 H -2.462497 1.267709 1.939330 0
M  V30 40 H -1.323899 0.533891 -4.834647 0
M  V30 41 H -1.297436 1.670266 -3.383619 0
M  V30 42 H 1.042020 1.326213 -3.076347 0
M  V30 43 H 0.892560 1.293087 -4.870362 0
M  V30 44 H 1.974700 -0.880391 -3.556517 0
M  V30 45 H 1.235777 -1.991262 -5.363644 0
M  V30 46 H -0.549425 -2.162746 -4.020976 0
M  V30 47 H 0.220725 -2.072689 -2.441593 0
M  V30 48 H -2.796881 -1.791488 -2.566105 0
M  V30 49 H -2.836443 -1.012241 -4.235646 0
M  V30 50 H -4.108059 0.802969 -2.812793 0
M  V30 END ATOM
M  V30 BEGIN BOND
M  V30 1 1 1 2
M  V30 2 1 2 3
M  V30 3 1 2 4
M  V30 4 2 4 5
M  V30 5 1 4 6
M  V30 6 2 6 7
M  V30 7 1 7 8
M  V30 8 1 7 9
M  V30 9 2 9 10
M  V30 10 1 10 11
M  V30 11 1 11 12
M  V30 12 2 12 13
M  V30 13 1 13 14
M  V30 14 2 14 15
M  V30 15 1 15 16
M  V30 16 2 16 17
M  V30 17 1 17 18
M  V30 18 1 16 19
M  V30 19 1 19 20 CFG=3
M  V30 20 1 20 21
M  V30 21 1 21 22
M  V30 22 1 22 23
M  V30 23 1 22 24
M  V30 24 1 19 25
M  V30 25 1 25 26
M  V30 26 2 11 27
M  V30 27 1 27 28
M  V30 28 1 27 6
M  V30 29 1 17 12
M  V30 30 1 24 19
M  V30 31 1 26 15
M  V30 32 1 1 29
M  V30 33 1 1 30
M  V30 34 1 1 31
M  V30 35 1 3 32
M  V30 36 1 3 33
M  V30 37 1 3 34
M  V30 38 1 8 35
M  V30 39 1 8 36
M  V30 40 1 9 37
M  V30 41 1 10 38
M  V30 42 1 13 39
M  V30 43 1 20 40
M  V30 44 1 20 41
M  V30 45 1 21 42
M  V30 46 1 21 43
M  V30 47 1 22 44 CFG=1
M  V30 48 1 23 45
M  V30 49 1 24 46
M  V30 50 1 24 47
M  V30 51 1 25 48
M  V30 52 1 25 49
M  V30 53 1 26 50
M  V30 END BOND
M  V30 END CTAB
M  END
>  <Dataset>  (219) 
ChEMBL_Kinases

>  <Ligand_Instance>  (219) 
nan

>  <PDB_ID>  (219) 
nan

>  <Standardized_SMILES>  (219) 
CN(C)C(=O)c1c(N)ccc(-c2cnc3c(c2Cl)[C@]2(CC[C@H](O)C2)CN3)c1F

>  <Name>  (219) 
nan

>  <Pocket>  (219) 
nan

>  <ATP_Site>  (219) 
nan

>  <Peripheral>  (219) 
nan

>  <Num_H_Atoms_ProtBoundConf>  (219) 
nan

>  <Num_Resolved_Atoms>  (219) 
nan

>  <Num_Not_Resolved_Atoms>  (219) 
nan

$$$$
CHEMBL5086513
     RDKit          3D

  0  0  0  0  0  0  0  0  0  0999 V3000
M  V30 BEGIN CTAB
M  V30 COUNTS 35 37 0 0 0
M  V30 BEGIN ATOM
M  V30 1 C -1.060836 -2.418379 2.570616 0
M  V30 2 C -0.557031 -2.735916 1.167888 0 CFG=2
M  V30 3 C 0.318850 -3.964326 1.286785 0
M  V30 4 C 1.465943 -3.735043 0.354961 0
M  V30 5 C 1.601458 -2.247529 0.363542 0
M  V30 6 N 0.298557 -1.684648 0.659752 0
M  V30 7 C 0.047746 -0.305378 0.443158 0
M  V30 8 C 0.979528 0.617542 0.016654 0
M  V30 9 C 2.391002 0.426969 -0.285004 0
M  V30 10 N 3.527278 0.289500 -0.535413 0
M  V30 11 C 0.430095 1.874563 -0.110713 0
M  V30 12 C 0.876698 3.122816 -0.486149 0
M  V30 13 N 2.244249 3.249443 -0.855618 0
M  V30 14 N 0.018827 4.175876 -0.494265 0
M  V30 15 C -1.275637 4.004795 -0.134765 0
M  V30 16 N -1.708355 2.786584 0.230691 0
M  V30 17 C -0.889229 1.722249 0.250849 0
M  V30 18 N -1.087193 0.410166 0.576261 0
M  V30 19 C -2.369025 -0.055861 0.993493 0
M  V30 20 H -2.163035 -2.417397 2.643749 0
M  V30 21 H -0.661238 -1.436879 2.873568 0
M  V30 22 H -0.723900 -3.179563 3.312991 0
M  V30 23 H -1.385790 -3.017752 0.521936 0
M  V30 24 H 0.706021 -4.154826 2.291316 0
M  V30 25 H -0.200271 -4.886078 0.933691 0
M  V30 26 H 1.258403 -4.095042 -0.681476 0
M  V30 27 H 2.413784 -4.192037 0.707814 0
M  V30 28 H 1.950633 -1.965469 -0.652730 0
M  V30 29 H 2.298765 -1.947451 1.161089 0
M  V30 30 H 2.367483 2.855204 -1.821263 0
M  V30 31 H 3.160673 3.610146 -0.468483 0
M  V30 32 H -1.987493 4.822829 -0.130266 0
M  V30 33 H -2.674147 -1.045029 0.600347 0
M  V30 34 H -2.521227 0.021547 2.111002 0
M  V30 35 H -3.197427 0.622921 0.613281 0
M  V30 END ATOM
M  V30 BEGIN BOND
M  V30 1 1 1 2
M  V30 2 1 2 3
M  V30 3 1 3 4
M  V30 4 1 4 5
M  V30 5 1 5 6
M  V30 6 1 6 7
M  V30 7 2 7 8
M  V30 8 1 8 9
M  V30 9 3 9 10
M  V30 10 1 8 11
M  V30 11 2 11 12
M  V30 12 1 12 13
M  V30 13 1 12 14
M  V30 14 2 14 15
M  V30 15 1 15 16
M  V30 16 2 16 17
M  V30 17 1 17 18
M  V30 18 1 18 19
M  V30 19 1 6 2
M  V30 20 1 18 7
M  V30 21 1 17 11
M  V30 22 1 1 20
M  V30 23 1 1 21
M  V30 24 1 1 22
M  V30 25 1 2 23 CFG=3
M  V30 26 1 3 24
M  V30 27 1 3 25
M  V30 28 1 4 26
M  V30 29 1 4 27
M  V30 30 1 5 28
M  V30 31 1 5 29
M  V30 32 1 13 30
M  V30 33 1 13 31
M  V30 34 1 15 32
M  V30 35 1 19 33
M  V30 36 1 19 34
M  V30 37 1 19 35
M  V30 END BOND
M  V30 END CTAB
M  END
>  <Dataset>  (220) 
ChEMBL_Kinases

>  <Ligand_Instance>  (220) 
nan

>  <PDB_ID>  (220) 
nan

>  <Standardized_SMILES>  (220) 
C[C@@H]1CCCN1c1c(C#N)c2c(N)ncnc2n1C

>  <Name>  (220) 
nan

>  <Pocket>  (220) 
nan

>  <ATP_Site>  (220) 
nan

>  <Peripheral>  (220) 
nan

>  <Num_H_Atoms_ProtBoundConf>  (220) 
nan

>  <Num_Resolved_Atoms>  (220) 
nan

>  <Num_Not_Resolved_Atoms>  (220) 
nan

$$$$
CHEMBL5086530
     RDKit          3D

  0  0  0  0  0  0  0  0  0  0999 V3000
M  V30 BEGIN CTAB
M  V30 COUNTS 74 78 0 0 0
M  V30 BEGIN ATOM
M  V30 1 C -3.126915 -2.212259 2.368087 0
M  V30 2 C -1.944891 -2.023694 3.223148 0
M  V30 3 C -1.997486 -1.964567 4.587536 0
M  V30 4 C -0.873577 -1.788137 5.365966 0
M  V30 5 C 0.334718 -1.671576 4.684273 0
M  V30 6 N 1.472285 -1.487762 5.558837 0
M  V30 7 C 1.639399 -0.080916 5.749336 0
M  V30 8 O 0.756708 0.575370 5.106415 0
M  V30 9 C 2.681437 0.531782 6.570577 0
M  V30 10 C 3.671756 -0.103818 7.299896 0
M  V30 11 C 4.577113 0.655808 8.022419 0
M  V30 12 N 4.508686 2.009662 8.026581 0
M  V30 13 C 3.549230 2.661646 7.321644 0
M  V30 14 C 3.517044 4.143546 7.359164 0
M  V30 15 F 2.467061 4.600312 8.156745 0
M  V30 16 F 4.721876 4.648644 7.793341 0
M  V30 17 F 3.304974 4.593528 6.056617 0
M  V30 18 C 2.664579 1.912514 6.615348 0
M  V30 19 C 0.413611 -1.727754 3.314599 0
M  V30 20 C -0.750762 -1.907737 2.565524 0
M  V30 21 C -0.501895 -1.943883 1.123214 0
M  V30 22 C 0.540899 -2.701758 0.580993 0
M  V30 23 C 0.765165 -2.723162 -0.798744 0
M  V30 24 C -0.051722 -1.986940 -1.645057 0
M  V30 25 C -1.076203 -1.246041 -1.079866 0
M  V30 26 C -1.316243 -1.210193 0.280924 0
M  V30 27 O -1.937360 -0.479733 -1.882979 0
M  V30 28 C -1.785366 0.170639 -3.089318 0
M  V30 29 C -1.059602 1.484932 -2.785371 0
M  V30 30 C -1.949267 2.370344 -1.948355 0
M  V30 31 O -2.984086 1.668814 -1.361275 0
M  V30 32 C -3.914249 1.251043 -2.312907 0
M  V30 33 C -3.198020 0.642548 -3.477861 0
M  V30 34 C -1.198811 -0.486897 -4.244827 0
M  V30 35 N -0.134551 -1.415869 -4.130592 0
M  V30 36 C 0.593741 -1.670206 -5.354218 0
M  V30 37 C 0.106103 -2.764673 -6.210321 0
M  V30 38 C -1.264075 -2.540076 -6.803415 0
M  V30 39 C 0.137882 -4.142587 -5.650222 0
M  V30 40 O 0.988895 -2.791077 -7.319419 0
M  V30 41 C 0.381175 -2.171385 -3.031685 0
M  V30 42 O 1.257079 -3.062098 -3.178828 0
M  V30 43 H -3.805674 -2.908248 2.944279 0
M  V30 44 H -3.688191 -1.258623 2.319682 0
M  V30 45 H -2.947028 -2.708312 1.415527 0
M  V30 46 H -2.972568 -2.062996 5.046231 0
M  V30 47 H -0.960625 -1.747259 6.439930 0
M  V30 48 H 2.162071 -2.127018 6.054974 0
M  V30 49 H 3.646874 -1.183235 7.236259 0
M  V30 50 H 5.335482 0.100900 8.578293 0
M  V30 51 H 1.920018 2.492668 6.071062 0
M  V30 52 H 1.412444 -1.625691 2.867522 0
M  V30 53 H 1.172822 -3.271975 1.243274 0
M  V30 54 H 1.597058 -3.338964 -1.130111 0
M  V30 55 H -2.141844 -0.598194 0.610621 0
M  V30 56 H -0.134426 1.286952 -2.221857 0
M  V30 57 H -0.795760 2.010909 -3.730086 0
M  V30 58 H -1.364380 2.817330 -1.117431 0
M  V30 59 H -2.324620 3.247320 -2.546449 0
M  V30 60 H -4.620840 0.518395 -1.898272 0
M  V30 61 H -4.462381 2.145240 -2.682882 0
M  V30 62 H -3.031775 1.411192 -4.262234 0
M  V30 63 H -3.775291 -0.163012 -3.979130 0
M  V30 64 H -2.002945 -0.986764 -4.854623 0
M  V30 65 H -0.830266 0.314678 -4.951070 0
M  V30 66 H 1.677419 -1.830685 -5.165261 0
M  V30 67 H 0.549852 -0.734948 -5.958602 0
M  V30 68 H -2.087467 -2.978832 -6.186194 0
M  V30 69 H -1.450885 -1.503898 -7.129877 0
M  V30 70 H -1.302307 -3.162404 -7.743040 0
M  V30 71 H -0.242334 -4.814098 -6.478221 0
M  V30 72 H -0.543408 -4.343536 -4.813935 0
M  V30 73 H 1.180458 -4.544641 -5.488926 0
M  V30 74 H 1.080391 -1.883789 -7.723915 0
M  V30 END ATOM
M  V30 BEGIN BOND
M  V30 1 1 1 2
M  V30 2 2 2 3
M  V30 3 1 3 4
M  V30 4 2 4 5
M  V30 5 1 5 6
M  V30 6 1 6 7
M  V30 7 2 7 8
M  V30 8 1 7 9
M  V30 9 2 9 10
M  V30 10 1 10 11
M  V30 11 2 11 12
M  V30 12 1 12 13
M  V30 13 1 13 14
M  V30 14 1 14 15
M  V30 15 1 14 16
M  V30 16 1 14 17
M  V30 17 2 13 18
M  V30 18 1 5 19
M  V30 19 2 19 20
M  V30 20 1 20 21
M  V30 21 2 21 22
M  V30 22 1 22 23
M  V30 23 2 23 24
M  V30 24 1 24 25
M  V30 25 2 25 26
M  V30 26 1 25 27
M  V30 27 1 27 28
M  V30 28 1 28 29
M  V30 29 1 29 30
M  V30 30 1 30 31
M  V30 31 1 31 32
M  V30 32 1 32 33
M  V30 33 1 28 34
M  V30 34 1 34 35
M  V30 35 1 35 36
M  V30 36 1 36 37
M  V30 37 1 37 38
M  V30 38 1 37 39
M  V30 39 1 37 40
M  V30 40 1 35 41
M  V30 41 2 41 42
M  V30 42 1 20 2
M  V30 43 1 26 21
M  V30 44 1 33 28
M  V30 45 1 18 9
M  V30 46 1 41 24
M  V30 47 1 1 43
M  V30 48 1 1 44
M  V30 49 1 1 45
M  V30 50 1 3 46
M  V30 51 1 4 47
M  V30 52 1 6 48
M  V30 53 1 10 49
M  V30 54 1 11 50
M  V30 55 1 18 51
M  V30 56 1 19 52
M  V30 57 1 22 53
M  V30 58 1 23 54
M  V30 59 1 26 55
M  V30 60 1 29 56
M  V30 61 1 29 57
M  V30 62 1 30 58
M  V30 63 1 30 59
M  V30 64 1 32 60
M  V30 65 1 32 61
M  V30 66 1 33 62
M  V30 67 1 33 63
M  V30 68 1 34 64
M  V30 69 1 34 65
M  V30 70 1 36 66
M  V30 71 1 36 67
M  V30 72 1 38 68
M  V30 73 1 38 69
M  V30 74 1 38 70
M  V30 75 1 39 71
M  V30 76 1 39 72
M  V30 77 1 39 73
M  V30 78 1 40 74
M  V30 END BOND
M  V30 END CTAB
M  END
>  <Dataset>  (221) 
ChEMBL_Kinases

>  <Ligand_Instance>  (221) 
nan

>  <PDB_ID>  (221) 
nan

>  <Standardized_SMILES>  (221) 
Cc1ccc(NC(=O)c2ccnc(C(F)(F)F)c2)cc1-c1ccc2c(c1)OC1(CCOCC1)CN(CC(C)(C)O)C2=O

>  <Name>  (221) 
nan

>  <Pocket>  (221) 
nan

>  <ATP_Site>  (221) 
nan

>  <Peripheral>  (221) 
nan

>  <Num_H_Atoms_ProtBoundConf>  (221) 
nan

>  <Num_Resolved_Atoms>  (221) 
nan

>  <Num_Not_Resolved_Atoms>  (221) 
nan

$$$$
CHEMBL586135
     RDKit          3D

  0  0  0  0  0  0  0  0  0  0999 V3000
M  V30 BEGIN CTAB
M  V30 COUNTS 39 41 0 0 0
M  V30 BEGIN ATOM
M  V30 1 C -1.704426 -4.540393 4.631826 0
M  V30 2 C -0.948672 -3.614265 3.739707 0
M  V30 3 C -0.928608 -3.795969 2.380387 0
M  V30 4 C -0.208491 -2.911668 1.605720 0
M  V30 5 C 0.471111 -1.871353 2.200479 0
M  V30 6 N 1.245794 -0.929426 1.478298 0
M  V30 7 C 1.473380 -0.828687 0.089785 0
M  V30 8 C 2.094643 -1.778266 -0.711987 0
M  V30 9 C 2.162198 -1.343239 -2.024560 0
M  V30 10 C 2.718425 -1.965487 -3.255918 0
M  V30 11 N 1.581244 -0.137517 -1.998059 0
M  V30 12 N 1.180547 0.161709 -0.769188 0
M  V30 13 C 0.528568 1.378435 -0.407114 0
M  V30 14 N 0.253194 2.355289 -1.289094 0
M  V30 15 C -0.346156 3.507018 -1.017170 0
M  V30 16 C -0.626165 4.559712 -2.023815 0
M  V30 17 C -0.723002 3.717165 0.307999 0
M  V30 18 C -0.462425 2.743521 1.249927 0
M  V30 19 O -0.797031 2.845424 2.612240 0
M  V30 20 N 0.155815 1.601225 0.869162 0
M  V30 21 C 0.436360 -1.706103 3.579090 0
M  V30 22 C -0.271519 -2.570248 4.383655 0
M  V30 23 H -1.002649 -5.384575 4.866385 0
M  V30 24 H -2.068041 -4.038808 5.535685 0
M  V30 25 H -2.569224 -4.925492 4.044792 0
M  V30 26 H -1.476584 -4.633889 1.923226 0
M  V30 27 H -0.165230 -3.015629 0.535475 0
M  V30 28 H 1.764960 -0.159579 1.912594 0
M  V30 29 H 2.490865 -2.742010 -0.416431 0
M  V30 30 H 1.825991 -2.316175 -3.851491 0
M  V30 31 H 3.364892 -1.311508 -3.841683 0
M  V30 32 H 3.237226 -2.917901 -2.983617 0
M  V30 33 H -0.032703 4.407926 -2.945981 0
M  V30 34 H -1.695639 4.600208 -2.285500 0
M  V30 35 H -0.356928 5.533407 -1.526117 0
M  V30 36 H -1.212493 4.610275 0.651026 0
M  V30 37 H -1.451680 2.122430 2.950471 0
M  V30 38 H 0.963663 -0.888431 4.070123 0
M  V30 39 H -0.314243 -2.457930 5.475787 0
M  V30 END ATOM
M  V30 BEGIN BOND
M  V30 1 1 1 2
M  V30 2 2 2 3
M  V30 3 1 3 4
M  V30 4 2 4 5
M  V30 5 1 5 6
M  V30 6 1 6 7
M  V30 7 2 7 8
M  V30 8 1 8 9
M  V30 9 1 9 10
M  V30 10 2 9 11
M  V30 11 1 11 12
M  V30 12 1 12 13
M  V30 13 2 13 14
M  V30 14 1 14 15
M  V30 15 1 15 16
M  V30 16 2 15 17
M  V30 17 1 17 18
M  V30 18 1 18 19
M  V30 19 2 18 20
M  V30 20 1 5 21
M  V30 21 2 21 22
M  V30 22 1 22 2
M  V30 23 1 12 7
M  V30 24 1 20 13
M  V30 25 1 1 23
M  V30 26 1 1 24
M  V30 27 1 1 25
M  V30 28 1 3 26
M  V30 29 1 4 27
M  V30 30 1 6 28
M  V30 31 1 8 29
M  V30 32 1 10 30
M  V30 33 1 10 31
M  V30 34 1 10 32
M  V30 35 1 16 33
M  V30 36 1 16 34
M  V30 37 1 16 35
M  V30 38 1 17 36
M  V30 39 1 19 37
M  V30 40 1 21 38
M  V30 41 1 22 39
M  V30 END BOND
M  V30 END CTAB
M  END
>  <Dataset>  (222) 
ChEMBL_Kinases

>  <Ligand_Instance>  (222) 
nan

>  <PDB_ID>  (222) 
nan

>  <Standardized_SMILES>  (222) 
Cc1ccc(Nc2cc(C)nn2-c2nc(C)cc(O)n2)cc1

>  <Name>  (222) 
nan

>  <Pocket>  (222) 
nan

>  <ATP_Site>  (222) 
nan

>  <Peripheral>  (222) 
nan

>  <Num_H_Atoms_ProtBoundConf>  (222) 
nan

>  <Num_Resolved_Atoms>  (222) 
nan

>  <Num_Not_Resolved_Atoms>  (222) 
nan

$$$$
CHEMBL5086617
     RDKit          3D

  0  0  0  0  0  0  0  0  0  0999 V3000
M  V30 BEGIN CTAB
M  V30 COUNTS 48 49 0 0 0
M  V30 BEGIN ATOM
M  V30 1 C 3.344462 -3.824654 2.789742 0
M  V30 2 C 2.002223 -3.157770 2.676809 0
M  V30 3 C 1.269962 -3.516787 3.981458 0
M  V30 4 C 2.026563 -1.694979 2.567775 0
M  V30 5 C 2.716578 -1.045316 1.427034 0 CFG=2
M  V30 6 C 4.196964 -1.344337 1.318640 0
M  V30 7 N 2.588781 0.385189 1.630952 0
M  V30 8 C 2.143253 -1.381917 0.077290 0
M  V30 9 O 0.859138 -1.127235 -0.197676 0
M  V30 10 C -0.074644 -0.221108 -0.328766 0
M  V30 11 C -0.120638 1.149844 -0.220675 0
M  V30 12 C -1.197320 1.988117 -0.390875 0
M  V30 13 C -2.367411 1.333657 -0.711437 0
M  V30 14 C -3.566847 2.137267 -0.913866 0
M  V30 15 C -3.750095 3.311564 -0.206591 0
M  V30 16 C -4.881082 4.077464 -0.393171 0
M  V30 17 N -5.826498 3.699725 -1.263990 0
M  V30 18 C -5.663395 2.550399 -1.966560 0
M  V30 19 F -6.577106 2.108064 -2.862559 0
M  V30 20 C -4.545909 1.753005 -1.810796 0
M  V30 21 C -2.470984 -0.030460 -0.852978 0
M  V30 22 C -1.312773 -0.795053 -0.657908 0
M  V30 23 C -1.504471 -2.279735 -0.830671 0
M  V30 24 F -1.170641 -2.903721 0.361940 0
M  V30 25 F -2.767739 -2.595540 -1.212220 0
M  V30 26 F -0.655517 -2.725358 -1.836851 0
M  V30 27 H 3.165130 -4.878042 3.163597 0
M  V30 28 H 3.949221 -3.854859 1.894028 0
M  V30 29 H 3.885866 -3.355259 3.662739 0
M  V30 30 H 1.410522 -3.678678 1.892219 0
M  V30 31 H 1.415678 -2.682699 4.712649 0
M  V30 32 H 0.195180 -3.696104 3.807656 0
M  V30 33 H 1.685890 -4.410164 4.465344 0
M  V30 34 H 2.555005 -1.312680 3.495133 0
M  V30 35 H 1.003151 -1.254581 2.670695 0
M  V30 36 H 4.683424 -0.376934 0.976156 0
M  V30 37 H 4.430494 -2.033803 0.477042 0
M  V30 38 H 4.670557 -1.604813 2.266979 0
M  V30 39 H 3.301965 0.934061 1.126140 0
M  V30 40 H 2.499762 0.670459 2.617441 0
M  V30 41 H 2.765004 -0.734803 -0.627767 0
M  V30 42 H 2.502109 -2.416390 -0.239342 0
M  V30 43 H 0.815445 1.624561 0.019128 0
M  V30 44 H -1.087320 3.056120 -0.273465 0
M  V30 45 H -2.987552 3.623264 0.501093 0
M  V30 46 H -4.983430 4.985511 0.178636 0
M  V30 47 H -4.397692 0.837406 -2.358878 0
M  V30 48 H -3.429239 -0.459114 -1.106551 0
M  V30 END ATOM
M  V30 BEGIN BOND
M  V30 1 1 1 2
M  V30 2 1 2 3
M  V30 3 1 2 4
M  V30 4 1 4 5
M  V30 5 1 5 6
M  V30 6 1 5 7 CFG=1
M  V30 7 1 5 8
M  V30 8 1 8 9
M  V30 9 1 9 10
M  V30 10 2 10 11
M  V30 11 1 11 12
M  V30 12 2 12 13
M  V30 13 1 13 14
M  V30 14 2 14 15
M  V30 15 1 15 16
M  V30 16 2 16 17
M  V30 17 1 17 18
M  V30 18 1 18 19
M  V30 19 2 18 20
M  V30 20 1 13 21
M  V30 21 2 21 22
M  V30 22 1 22 23
M  V30 23 1 23 24
M  V30 24 1 23 25
M  V30 25 1 23 26
M  V30 26 1 22 10
M  V30 27 1 20 14
M  V30 28 1 1 27
M  V30 29 1 1 28
M  V30 30 1 1 29
M  V30 31 1 2 30
M  V30 32 1 3 31
M  V30 33 1 3 32
M  V30 34 1 3 33
M  V30 35 1 4 34
M  V30 36 1 4 35
M  V30 37 1 6 36
M  V30 38 1 6 37
M  V30 39 1 6 38
M  V30 40 1 7 39
M  V30 41 1 7 40
M  V30 42 1 8 41
M  V30 43 1 8 42
M  V30 44 1 11 43
M  V30 45 1 12 44
M  V30 46 1 15 45
M  V30 47 1 16 46
M  V30 48 1 20 47
M  V30 49 1 21 48
M  V30 END BOND
M  V30 END CTAB
M  END
>  <Dataset>  (223) 
ChEMBL_Kinases

>  <Ligand_Instance>  (223) 
nan

>  <PDB_ID>  (223) 
nan

>  <Standardized_SMILES>  (223) 
CC(C)C[C@](C)(N)COc1ccc(-c2ccnc(F)c2)cc1C(F)(F)F

>  <Name>  (223) 
nan

>  <Pocket>  (223) 
nan

>  <ATP_Site>  (223) 
nan

>  <Peripheral>  (223) 
nan

>  <Num_H_Atoms_ProtBoundConf>  (223) 
nan

>  <Num_Resolved_Atoms>  (223) 
nan

>  <Num_Not_Resolved_Atoms>  (223) 
nan

$$$$
CHEMBL5086767
     RDKit          3D

  0  0  0  0  0  0  0  0  0  0999 V3000
M  V30 BEGIN CTAB
M  V30 COUNTS 55 59 0 0 0
M  V30 BEGIN ATOM
M  V30 1 O 3.015225 -0.485226 1.678908 0
M  V30 2 C 2.928509 0.739310 1.317519 0
M  V30 3 N 3.890962 1.633542 1.824958 0
M  V30 4 C 4.774165 0.843332 2.681327 0
M  V30 5 C 5.846859 1.745538 3.262176 0
M  V30 6 N 6.640527 2.356948 2.244076 0
M  V30 7 C 7.755419 1.751960 1.789699 0
M  V30 8 N 8.289752 2.558167 0.842524 0
M  V30 9 N 7.536388 3.653140 0.693201 0
M  V30 10 C 6.528473 3.509212 1.563913 0
M  V30 11 C 1.798775 0.939583 0.418896 0
M  V30 12 C 0.559840 0.343574 0.685814 0
M  V30 13 C -0.522504 0.516977 -0.148847 0
M  V30 14 C -1.805991 -0.108773 0.144708 0
M  V30 15 C -2.080644 -0.910742 1.232272 0
M  V30 16 C -3.324951 -1.466594 1.445392 0
M  V30 17 C -4.371944 -1.238713 0.557690 0
M  V30 18 N -5.638919 -1.829059 0.818241 0
M  V30 19 S -5.896431 -3.457698 1.294847 0
M  V30 20 O -7.358453 -3.632491 1.557230 0
M  V30 21 O -5.130282 -3.675817 2.580104 0
M  V30 22 C -5.340125 -4.607327 0.094802 0
M  V30 23 C -4.755839 -4.296544 -1.113950 0
M  V30 24 C -4.353726 -5.293118 -1.982658 0
M  V30 25 C -4.542181 -6.626909 -1.630659 0
M  V30 26 C -5.129088 -6.953311 -0.415902 0
M  V30 27 Cl -5.367974 -8.651206 0.029373 0
M  V30 28 C -5.523090 -5.940032 0.435842 0
M  V30 29 Cl -6.265795 -6.433652 1.964700 0
M  V30 30 C -4.145545 -0.441689 -0.547623 0
M  V30 31 C -2.881724 0.088417 -0.710571 0
M  V30 32 N -0.399481 1.285757 -1.266947 0
M  V30 33 C 0.766211 1.884961 -1.577004 0
M  V30 34 N 1.127900 2.675826 -2.605696 0
M  V30 35 N 2.409779 2.987684 -2.413111 0
M  V30 36 C 2.866097 2.420713 -1.300749 0
M  V30 37 C 1.838635 1.699895 -0.730125 0
M  V30 38 H 3.736485 2.609906 1.470769 0
M  V30 39 H 4.180535 0.356815 3.483738 0
M  V30 40 H 5.256738 0.066646 2.074256 0
M  V30 41 H 6.444574 1.128122 3.971954 0
M  V30 42 H 5.333076 2.518934 3.863591 0
M  V30 43 H 8.239078 0.827208 2.031200 0
M  V30 44 H 5.720249 4.208358 1.719988 0
M  V30 45 H 0.520144 -0.250089 1.579809 0
M  V30 46 H -1.284943 -1.093713 1.925374 0
M  V30 47 H -3.446308 -2.073033 2.313846 0
M  V30 48 H -6.385163 -1.111671 0.673224 0
M  V30 49 H -4.639541 -3.235610 -1.323312 0
M  V30 50 H -3.898621 -4.995654 -2.921038 0
M  V30 51 H -4.224300 -7.417655 -2.318142 0
M  V30 52 H -4.930248 -0.237713 -1.260521 0
M  V30 53 H -2.742274 0.704519 -1.584609 0
M  V30 54 H 0.462178 2.954079 -3.386016 0
M  V30 55 H 3.864596 2.513978 -0.921231 0
M  V30 END ATOM
M  V30 BEGIN BOND
M  V30 1 2 1 2
M  V30 2 1 2 3
M  V30 3 1 3 4
M  V30 4 1 4 5
M  V30 5 1 5 6
M  V30 6 1 6 7
M  V30 7 2 7 8
M  V30 8 1 8 9
M  V30 9 2 9 10
M  V30 10 1 2 11
M  V30 11 2 11 12
M  V30 12 1 12 13
M  V30 13 1 13 14
M  V30 14 2 14 15
M  V30 15 1 15 16
M  V30 16 2 16 17
M  V30 17 1 17 18
M  V30 18 1 18 19
M  V30 19 2 19 20
M  V30 20 2 19 21
M  V30 21 1 19 22
M  V30 22 2 22 23
M  V30 23 1 23 24
M  V30 24 2 24 25
M  V30 25 1 25 26
M  V30 26 1 26 27
M  V30 27 2 26 28
M  V30 28 1 28 29
M  V30 29 1 17 30
M  V30 30 2 30 31
M  V30 31 2 13 32
M  V30 32 1 32 33
M  V30 33 1 33 34
M  V30 34 1 34 35
M  V30 35 2 35 36
M  V30 36 1 36 37
M  V30 37 1 10 6
M  V30 38 1 37 11
M  V30 39 1 31 14
M  V30 40 2 37 33
M  V30 41 1 28 22
M  V30 42 1 3 38
M  V30 43 1 4 39
M  V30 44 1 4 40
M  V30 45 1 5 41
M  V30 46 1 5 42
M  V30 47 1 7 43
M  V30 48 1 10 44
M  V30 49 1 12 45
M  V30 50 1 15 46
M  V30 51 1 16 47
M  V30 52 1 18 48
M  V30 53 1 23 49
M  V30 54 1 24 50
M  V30 55 1 25 51
M  V30 56 1 30 52
M  V30 57 1 31 53
M  V30 58 1 34 54
M  V30 59 1 36 55
M  V30 END BOND
M  V30 END CTAB
M  END
>  <Dataset>  (224) 
ChEMBL_Kinases

>  <Ligand_Instance>  (224) 
nan

>  <PDB_ID>  (224) 
nan

>  <Standardized_SMILES>  (224) 
O=C(NCCn1cnnc1)c1cc(-c2ccc(NS(=O)(=O)c3cccc(Cl)c3Cl)cc2)nc2[nH]ncc12

>  <Name>  (224) 
nan

>  <Pocket>  (224) 
nan

>  <ATP_Site>  (224) 
nan

>  <Peripheral>  (224) 
nan

>  <Num_H_Atoms_ProtBoundConf>  (224) 
nan

>  <Num_Resolved_Atoms>  (224) 
nan

>  <Num_Not_Resolved_Atoms>  (224) 
nan

$$$$
CHEMBL5086784
     RDKit          3D

  0  0  0  0  0  0  0  0  0  0999 V3000
M  V30 BEGIN CTAB
M  V30 COUNTS 63 68 0 0 0
M  V30 BEGIN ATOM
M  V30 1 C 4.437072 -1.151586 2.639797 0
M  V30 2 O 3.638747 -1.076591 3.782900 0
M  V30 3 C 2.503622 -0.308342 3.901381 0
M  V30 4 C 1.936401 -0.449712 5.173757 0
M  V30 5 C 0.779031 0.218827 5.562780 0
M  V30 6 C 0.245576 1.028716 4.585266 0
M  V30 7 C 0.718954 1.236831 3.309850 0
M  V30 8 C 0.093333 2.116137 2.343117 0
M  V30 9 N 0.867796 3.201822 2.211902 0
M  V30 10 C 0.295424 4.031638 1.347059 0
M  V30 11 S 0.367706 5.653592 0.437393 0
M  V30 12 C -1.272506 5.371584 -0.476765 0
M  V30 13 C -1.667417 4.088380 0.020252 0
M  V30 14 N -0.880581 3.473801 0.902153 0
M  V30 15 C -0.991664 2.292659 1.524579 0
M  V30 16 C -2.003472 1.254196 1.435937 0
M  V30 17 C -2.631100 0.619625 2.467938 0
M  V30 18 C -3.606635 -0.331689 2.346438 0
M  V30 19 N -3.931817 -0.620969 1.065625 0
M  V30 20 C -3.373220 -0.050191 -0.008432 0
M  V30 21 N -3.857458 -0.453347 -1.319512 0
M  V30 22 C -4.807597 -1.585532 -1.197877 0
M  V30 23 C -3.990679 -2.849353 -0.901215 0
M  V30 24 N -3.194964 -3.067090 -2.099789 0
M  V30 25 S -2.157687 -4.446971 -1.961976 0
M  V30 26 O -2.356423 -5.057331 -0.615716 0
M  V30 27 O -2.435925 -5.361398 -3.097192 0
M  V30 28 C -0.509571 -3.825002 -2.125927 0
M  V30 29 C 0.112411 -3.997804 -3.371485 0
M  V30 30 C 1.374232 -3.552469 -3.708029 0
M  V30 31 C 2.064530 -2.883748 -2.723580 0
M  V30 32 C 3.315642 -2.433356 -3.067155 0
M  V30 33 C 4.053239 -1.747571 -2.130767 0
M  V30 34 C 3.483971 -1.551213 -0.882509 0
M  V30 35 C 2.212635 -2.010309 -0.535561 0
M  V30 36 C 1.467020 -2.702451 -1.482148 0
M  V30 37 C 0.206449 -3.154613 -1.164481 0
M  V30 38 N -2.426267 0.868603 0.222638 0
M  V30 39 C 1.858449 0.535094 3.026085 0
M  V30 40 H 4.496965 -0.170287 2.123242 0
M  V30 41 H 5.467316 -1.459792 2.967033 0
M  V30 42 H 4.025349 -1.951471 1.988138 0
M  V30 43 H 2.344103 -1.091866 5.970114 0
M  V30 44 H 0.343385 0.110474 6.540452 0
M  V30 45 H -0.663441 1.561535 4.913063 0
M  V30 46 H -1.646397 6.092764 -1.146810 0
M  V30 47 H -2.599438 3.831016 -0.445136 0
M  V30 48 H -2.375041 0.867319 3.480838 0
M  V30 49 H -4.070205 -0.804762 3.202406 0
M  V30 50 H -3.539217 0.027701 -2.190468 0
M  V30 51 H -5.472068 -1.429134 -0.340312 0
M  V30 52 H -5.359225 -1.738146 -2.137345 0
M  V30 53 H -3.347300 -2.610009 -0.039362 0
M  V30 54 H -4.630535 -3.715876 -0.660463 0
M  V30 55 H -2.706031 -2.233294 -2.418460 0
M  V30 56 H -0.433827 -4.529760 -4.156792 0
M  V30 57 H 1.758876 -3.742200 -4.709093 0
M  V30 58 H 3.728620 -2.614026 -4.073137 0
M  V30 59 H 5.038777 -1.389988 -2.393995 0
M  V30 60 H 4.125110 -1.005564 -0.209367 0
M  V30 61 H 1.818330 -1.826217 0.463000 0
M  V30 62 H -0.256997 -3.020808 -0.217685 0
M  V30 63 H 2.360172 0.586955 2.073700 0
M  V30 END ATOM
M  V30 BEGIN BOND
M  V30 1 1 1 2
M  V30 2 1 2 3
M  V30 3 2 3 4
M  V30 4 1 4 5
M  V30 5 2 5 6
M  V30 6 1 6 7
M  V30 7 1 7 8
M  V30 8 1 8 9
M  V30 9 2 9 10
M  V30 10 1 10 11
M  V30 11 1 11 12
M  V30 12 2 12 13
M  V30 13 1 13 14
M  V30 14 1 14 15
M  V30 15 1 15 16
M  V30 16 2 16 17
M  V30 17 1 17 18
M  V30 18 2 18 19
M  V30 19 1 19 20
M  V30 20 1 20 21
M  V30 21 1 21 22
M  V30 22 1 22 23
M  V30 23 1 23 24
M  V30 24 1 24 25
M  V30 25 2 25 26
M  V30 26 2 25 27
M  V30 27 1 25 28
M  V30 28 2 28 29
M  V30 29 1 29 30
M  V30 30 2 30 31
M  V30 31 1 31 32
M  V30 32 2 32 33
M  V30 33 1 33 34
M  V30 34 2 34 35
M  V30 35 1 35 36
M  V30 36 2 36 37
M  V30 37 2 20 38
M  V30 38 2 7 39
M  V30 39 1 39 3
M  V30 40 2 15 8
M  V30 41 1 38 16
M  V30 42 1 14 10
M  V30 43 1 37 28
M  V30 44 1 36 31
M  V30 45 1 1 40
M  V30 46 1 1 41
M  V30 47 1 1 42
M  V30 48 1 4 43
M  V30 49 1 5 44
M  V30 50 1 6 45
M  V30 51 1 12 46
M  V30 52 1 13 47
M  V30 53 1 17 48
M  V30 54 1 18 49
M  V30 55 1 21 50
M  V30 56 1 22 51
M  V30 57 1 22 52
M  V30 58 1 23 53
M  V30 59 1 23 54
M  V30 60 1 24 55
M  V30 61 1 29 56
M  V30 62 1 30 57
M  V30 63 1 32 58
M  V30 64 1 33 59
M  V30 65 1 34 60
M  V30 66 1 35 61
M  V30 67 1 37 62
M  V30 68 1 39 63
M  V30 END BOND
M  V30 END CTAB
M  END
>  <Dataset>  (225) 
ChEMBL_Kinases

>  <Ligand_Instance>  (225) 
nan

>  <PDB_ID>  (225) 
nan

>  <Standardized_SMILES>  (225) 
COc1cccc(-c2nc3sccn3c2-c2ccnc(NCCNS(=O)(=O)c3ccc4ccccc4c3)n2)c1

>  <Name>  (225) 
nan

>  <Pocket>  (225) 
nan

>  <ATP_Site>  (225) 
nan

>  <Peripheral>  (225) 
nan

>  <Num_H_Atoms_ProtBoundConf>  (225) 
nan

>  <Num_Resolved_Atoms>  (225) 
nan

>  <Num_Not_Resolved_Atoms>  (225) 
nan

$$$$
CHEMBL5086851
     RDKit          3D

  0  0  0  0  0  0  0  0  0  0999 V3000
M  V30 BEGIN CTAB
M  V30 COUNTS 64 68 0 0 0
M  V30 BEGIN ATOM
M  V30 1 C 2.842417 -1.590861 3.789960 0
M  V30 2 C 2.629647 -0.596236 2.706917 0
M  V30 3 C 3.474040 0.486930 2.581503 0
M  V30 4 C 3.302934 1.415528 1.595949 0
M  V30 5 F 4.137755 2.468335 1.487942 0
M  V30 6 C 2.263863 1.230984 0.739116 0
M  V30 7 N 2.088725 2.214903 -0.299102 0
M  V30 8 C 1.233384 3.228303 0.211897 0
M  V30 9 O 0.583935 3.569528 1.230226 0
M  V30 10 C 0.799856 4.444478 -0.563276 0
M  V30 11 C -0.072547 5.237840 0.311659 0
M  V30 12 C 0.512217 6.208461 1.121707 0
M  V30 13 C -0.363903 6.919832 1.921044 0
M  V30 14 N -1.705547 6.741748 1.966981 0
M  V30 15 C -2.247774 5.796603 1.173911 0
M  V30 16 C -3.712957 5.476648 1.107467 0
M  V30 17 F -4.346902 5.933916 2.264547 0
M  V30 18 F -3.878493 4.106953 1.039536 0
M  V30 19 F -4.322787 6.058063 0.023831 0
M  V30 20 C -1.447877 5.037046 0.341795 0
M  V30 21 C 1.423234 0.156660 0.860455 0
M  V30 22 C 1.571931 -0.809354 1.856966 0
M  V30 23 C 0.632231 -1.922811 1.917112 0
M  V30 24 C -0.015702 -2.455856 3.012232 0
M  V30 25 C -0.874266 -3.523638 2.846737 0
M  V30 26 C -1.126023 -4.101832 1.612494 0
M  V30 27 C -0.462795 -3.550958 0.514803 0
M  V30 28 C 0.402012 -2.481592 0.653926 0
M  V30 29 O -0.630949 -4.038678 -0.763840 0
M  V30 30 C -1.491115 -4.845981 -1.468726 0
M  V30 31 C -1.851264 -4.056446 -2.737510 0
M  V30 32 C -0.699391 -4.086590 -3.713555 0
M  V30 33 O 0.533172 -4.301964 -3.100759 0
M  V30 34 C 0.620262 -5.539638 -2.479735 0
M  V30 35 C -0.709155 -6.055706 -1.976562 0
M  V30 36 C -2.779959 -5.244931 -0.845969 0
M  V30 37 C -2.679150 -5.756561 0.539455 0
M  V30 38 O -3.219802 -6.883095 0.807228 0
M  V30 39 N -2.050601 -5.190559 1.707261 0
M  V30 40 H 2.367951 -1.256468 4.734111 0
M  V30 41 H 2.485307 -2.586994 3.440789 0
M  V30 42 H 3.940853 -1.656839 3.988923 0
M  V30 43 H 4.290437 0.603968 3.279365 0
M  V30 44 H 2.394484 2.396419 -1.282204 0
M  V30 45 H 1.724356 5.021233 -0.795538 0
M  V30 46 H 0.314891 4.150870 -1.526246 0
M  V30 47 H 1.558535 6.426505 1.159459 0
M  V30 48 H -0.033415 7.708055 2.601626 0
M  V30 49 H -1.808573 4.258048 -0.325464 0
M  V30 50 H 0.605625 0.060010 0.143503 0
M  V30 51 H 0.221867 -1.964360 3.931423 0
M  V30 52 H -1.356304 -3.907250 3.719241 0
M  V30 53 H 0.857317 -2.141276 -0.269016 0
M  V30 54 H -2.747273 -4.464046 -3.235167 0
M  V30 55 H -2.073563 -2.999070 -2.415275 0
M  V30 56 H -0.911076 -4.814148 -4.496727 0
M  V30 57 H -0.630519 -3.064111 -4.164443 0
M  V30 58 H 1.281375 -5.419042 -1.590511 0
M  V30 59 H 1.104431 -6.287630 -3.168843 0
M  V30 60 H -0.530023 -6.704606 -1.096949 0
M  V30 61 H -1.274390 -6.602739 -2.753646 0
M  V30 62 H -3.496363 -4.402051 -0.933705 0
M  V30 63 H -3.189499 -6.083736 -1.466888 0
M  V30 64 H -2.248618 -5.555596 2.660279 0
M  V30 END ATOM
M  V30 BEGIN BOND
M  V30 1 1 1 2
M  V30 2 2 2 3
M  V30 3 1 3 4
M  V30 4 1 4 5
M  V30 5 2 4 6
M  V30 6 1 6 7
M  V30 7 1 7 8
M  V30 8 2 8 9
M  V30 9 1 8 10
M  V30 10 1 10 11
M  V30 11 2 11 12
M  V30 12 1 12 13
M  V30 13 2 13 14
M  V30 14 1 14 15
M  V30 15 1 15 16
M  V30 16 1 16 17
M  V30 17 1 16 18
M  V30 18 1 16 19
M  V30 19 2 15 20
M  V30 20 1 6 21
M  V30 21 2 21 22
M  V30 22 1 22 23
M  V30 23 2 23 24
M  V30 24 1 24 25
M  V30 25 2 25 26
M  V30 26 1 26 27
M  V30 27 2 27 28
M  V30 28 1 27 29
M  V30 29 1 29 30
M  V30 30 1 30 31
M  V30 31 1 31 32
M  V30 32 1 32 33
M  V30 33 1 33 34
M  V30 34 1 34 35
M  V30 35 1 30 36
M  V30 36 1 36 37
M  V30 37 2 37 38
M  V30 38 1 37 39
M  V30 39 1 22 2
M  V30 40 1 28 23
M  V30 41 1 35 30
M  V30 42 1 20 11
M  V30 43 1 39 26
M  V30 44 1 1 40
M  V30 45 1 1 41
M  V30 46 1 1 42
M  V30 47 1 3 43
M  V30 48 1 7 44
M  V30 49 1 10 45
M  V30 50 1 10 46
M  V30 51 1 12 47
M  V30 52 1 13 48
M  V30 53 1 20 49
M  V30 54 1 21 50
M  V30 55 1 24 51
M  V30 56 1 25 52
M  V30 57 1 28 53
M  V30 58 1 31 54
M  V30 59 1 31 55
M  V30 60 1 32 56
M  V30 61 1 32 57
M  V30 62 1 34 58
M  V30 63 1 34 59
M  V30 64 1 35 60
M  V30 65 1 35 61
M  V30 66 1 36 62
M  V30 67 1 36 63
M  V30 68 1 39 64
M  V30 END BOND
M  V30 END CTAB
M  END
>  <Dataset>  (226) 
ChEMBL_Kinases

>  <Ligand_Instance>  (226) 
nan

>  <PDB_ID>  (226) 
nan

>  <Standardized_SMILES>  (226) 
Cc1cc(F)c(NC(=O)Cc2ccnc(C(F)(F)F)c2)cc1-c1ccc2c(c1)OC1(CCOCC1)CC(=O)N2

>  <Name>  (226) 
nan

>  <Pocket>  (226) 
nan

>  <ATP_Site>  (226) 
nan

>  <Peripheral>  (226) 
nan

>  <Num_H_Atoms_ProtBoundConf>  (226) 
nan

>  <Num_Resolved_Atoms>  (226) 
nan

>  <Num_Not_Resolved_Atoms>  (226) 
nan

$$$$
CHEMBL5086979
     RDKit          3D

  0  0  0  0  0  0  0  0  0  0999 V3000
M  V30 BEGIN CTAB
M  V30 COUNTS 32 34 0 0 0
M  V30 BEGIN ATOM
M  V30 1 C -3.031113 -3.744142 3.144795 0
M  V30 2 C -1.891540 -2.976883 2.595628 0
M  V30 3 N -0.673540 -3.316805 3.075646 0
M  V30 4 C 0.411286 -2.655936 2.616822 0
M  V30 5 N 1.708283 -2.987691 3.100192 0
M  V30 6 C 0.303637 -1.645114 1.672261 0
M  V30 7 C 1.194747 -0.812678 1.029007 0
M  V30 8 C 2.609358 -0.822662 1.232563 0
M  V30 9 N 3.762979 -0.825746 1.417960 0
M  V30 10 C 0.451330 -0.009244 0.187846 0
M  V30 11 C 1.031011 1.015162 -0.674776 0
M  V30 12 C 2.136811 0.900911 -1.465956 0
M  V30 13 C 2.590346 1.946535 -2.241712 0
M  V30 14 C 1.888673 3.156291 -2.209434 0
M  V30 15 N 0.798257 3.274322 -1.431476 0
M  V30 16 C 0.368711 2.245592 -0.680886 0
M  V30 17 N -0.847079 -0.324649 0.299560 0
M  V30 18 C -1.921608 0.297458 -0.420308 0
M  V30 19 C -0.972911 -1.322908 1.200494 0
M  V30 20 N -2.063210 -1.993729 1.667720 0
M  V30 21 H -3.219648 -3.489036 4.214467 0
M  V30 22 H -2.860324 -4.850420 3.081793 0
M  V30 23 H -3.971262 -3.540904 2.597822 0
M  V30 24 H 2.487339 -3.539742 2.638354 0
M  V30 25 H 2.194205 -2.772193 4.005777 0
M  V30 26 H 2.629307 -0.056925 -1.443694 0
M  V30 27 H 3.471463 1.767759 -2.835899 0
M  V30 28 H 2.317972 3.924223 -2.852118 0
M  V30 29 H -0.531869 2.516400 -0.109957 0
M  V30 30 H -2.641759 -0.494122 -0.776822 0
M  V30 31 H -1.552987 0.755905 -1.384551 0
M  V30 32 H -2.478977 1.036675 0.156256 0
M  V30 END ATOM
M  V30 BEGIN BOND
M  V30 1 1 1 2
M  V30 2 2 2 3
M  V30 3 1 3 4
M  V30 4 1 4 5
M  V30 5 2 4 6
M  V30 6 1 6 7
M  V30 7 1 7 8
M  V30 8 3 8 9
M  V30 9 2 7 10
M  V30 10 1 10 11
M  V30 11 2 11 12
M  V30 12 1 12 13
M  V30 13 2 13 14
M  V30 14 1 14 15
M  V30 15 2 15 16
M  V30 16 1 10 17
M  V30 17 1 17 18
M  V30 18 1 17 19
M  V30 19 2 19 20
M  V30 20 1 20 2
M  V30 21 1 19 6
M  V30 22 1 16 11
M  V30 23 1 1 21
M  V30 24 1 1 22
M  V30 25 1 1 23
M  V30 26 1 5 24
M  V30 27 1 5 25
M  V30 28 1 12 26
M  V30 29 1 13 27
M  V30 30 1 14 28
M  V30 31 1 16 29
M  V30 32 1 18 30
M  V30 33 1 18 31
M  V30 34 1 18 32
M  V30 END BOND
M  V30 END CTAB
M  END
>  <Dataset>  (227) 
ChEMBL_Kinases

>  <Ligand_Instance>  (227) 
nan

>  <PDB_ID>  (227) 
nan

>  <Standardized_SMILES>  (227) 
Cc1nc(N)c2c(C#N)c(-c3cccnc3)n(C)c2n1

>  <Name>  (227) 
nan

>  <Pocket>  (227) 
nan

>  <ATP_Site>  (227) 
nan

>  <Peripheral>  (227) 
nan

>  <Num_H_Atoms_ProtBoundConf>  (227) 
nan

>  <Num_Resolved_Atoms>  (227) 
nan

>  <Num_Not_Resolved_Atoms>  (227) 
nan

$$$$
CHEMBL5087068
     RDKit          3D

  0  0  0  0  0  0  0  0  0  0999 V3000
M  V30 BEGIN CTAB
M  V30 COUNTS 51 55 0 0 0
M  V30 BEGIN ATOM
M  V30 1 O 5.452122 1.064932 0.620369 0
M  V30 2 C 4.479597 0.339838 0.849657 0
M  V30 3 N 4.346684 -0.119819 2.209605 0
M  V30 4 C 5.322957 0.282430 3.179123 0
M  V30 5 C 5.428566 1.738133 3.383681 0
M  V30 6 N 5.995795 2.692727 3.000905 0
M  V30 7 N 5.855585 3.912671 3.407516 0
M  V30 8 C 5.072902 4.236303 4.287996 0
M  V30 9 S 4.319152 2.527874 4.703060 0
M  V30 10 C 3.441270 -0.109575 -0.103578 0
M  V30 11 C 2.092321 0.081044 0.116098 0
M  V30 12 C 1.152014 -0.351952 -0.791951 0
M  V30 13 C -0.272872 -0.154273 -0.557701 0
M  V30 14 C -0.838779 0.462227 0.537340 0
M  V30 15 C -2.198743 0.616521 0.703378 0
M  V30 16 C -3.072028 0.137587 -0.263230 0
M  V30 17 N -4.473710 0.289974 -0.108809 0
M  V30 18 S -5.664009 -0.924414 -0.396701 0
M  V30 19 O -5.419669 -1.412236 -1.818877 0
M  V30 20 O -7.047216 -0.349280 -0.297269 0
M  V30 21 C -5.467150 -2.301336 0.640980 0
M  V30 22 C -4.473702 -2.409805 1.590494 0
M  V30 23 C -4.253737 -3.463003 2.444520 0
M  V30 24 C -5.140144 -4.530230 2.324425 0
M  V30 25 C -6.174188 -4.512304 1.395717 0
M  V30 26 Cl -7.284855 -5.854201 1.250453 0
M  V30 27 C -6.305795 -3.395872 0.581335 0
M  V30 28 Cl -7.621318 -3.411967 -0.575099 0
M  V30 29 C -2.550068 -0.488345 -1.379228 0
M  V30 30 C -1.180119 -0.622384 -1.507344 0
M  V30 31 N 1.584521 -0.969705 -1.906446 0
M  V30 32 C 2.906856 -1.148806 -2.108125 0
M  V30 33 N 3.511001 -1.745055 -3.167860 0
M  V30 34 N 4.815750 -1.718664 -2.985089 0
M  V30 35 C 5.109356 -1.114721 -1.819888 0
M  V30 36 C 3.920448 -0.737614 -1.233010 0
M  V30 37 H 3.522107 -0.747328 2.450642 0
M  V30 38 H 6.342326 -0.102685 2.981555 0
M  V30 39 H 5.036800 -0.213528 4.155025 0
M  V30 40 H 4.725060 5.102141 4.835371 0
M  V30 41 H 1.830518 0.584175 1.035450 0
M  V30 42 H -0.166368 0.837888 1.294803 0
M  V30 43 H -2.589380 1.103854 1.573343 0
M  V30 44 H -4.768295 1.250348 0.214625 0
M  V30 45 H -3.775466 -1.586678 1.697305 0
M  V30 46 H -3.441444 -3.456362 3.159676 0
M  V30 47 H -4.995159 -5.380296 2.984829 0
M  V30 48 H -3.150110 -0.886322 -2.173704 0
M  V30 49 H -0.770479 -1.112086 -2.378138 0
M  V30 50 H 3.039322 -2.164562 -4.003838 0
M  V30 51 H 6.039476 -0.891963 -1.308728 0
M  V30 END ATOM
M  V30 BEGIN BOND
M  V30 1 2 1 2
M  V30 2 1 2 3
M  V30 3 1 3 4
M  V30 4 1 4 5
M  V30 5 2 5 6
M  V30 6 1 6 7
M  V30 7 2 7 8
M  V30 8 1 8 9
M  V30 9 1 2 10
M  V30 10 2 10 11
M  V30 11 1 11 12
M  V30 12 1 12 13
M  V30 13 2 13 14
M  V30 14 1 14 15
M  V30 15 2 15 16
M  V30 16 1 16 17
M  V30 17 1 17 18
M  V30 18 2 18 19
M  V30 19 2 18 20
M  V30 20 1 18 21
M  V30 21 2 21 22
M  V30 22 1 22 23
M  V30 23 2 23 24
M  V30 24 1 24 25
M  V30 25 1 25 26
M  V30 26 2 25 27
M  V30 27 1 27 28
M  V30 28 1 16 29
M  V30 29 2 29 30
M  V30 30 2 12 31
M  V30 31 1 31 32
M  V30 32 1 32 33
M  V30 33 1 33 34
M  V30 34 2 34 35
M  V30 35 1 35 36
M  V30 36 1 9 5
M  V30 37 1 36 10
M  V30 38 1 30 13
M  V30 39 2 36 32
M  V30 40 1 27 21
M  V30 41 1 3 37
M  V30 42 1 4 38
M  V30 43 1 4 39
M  V30 44 1 8 40
M  V30 45 1 11 41
M  V30 46 1 14 42
M  V30 47 1 15 43
M  V30 48 1 17 44
M  V30 49 1 22 45
M  V30 50 1 23 46
M  V30 51 1 24 47
M  V30 52 1 29 48
M  V30 53 1 30 49
M  V30 54 1 33 50
M  V30 55 1 35 51
M  V30 END BOND
M  V30 END CTAB
M  END
>  <Dataset>  (228) 
ChEMBL_Kinases

>  <Ligand_Instance>  (228) 
nan

>  <PDB_ID>  (228) 
nan

>  <Standardized_SMILES>  (228) 
O=C(NCc1nncs1)c1cc(-c2ccc(NS(=O)(=O)c3cccc(Cl)c3Cl)cc2)nc2[nH]ncc12

>  <Name>  (228) 
nan

>  <Pocket>  (228) 
nan

>  <ATP_Site>  (228) 
nan

>  <Peripheral>  (228) 
nan

>  <Num_H_Atoms_ProtBoundConf>  (228) 
nan

>  <Num_Resolved_Atoms>  (228) 
nan

>  <Num_Not_Resolved_Atoms>  (228) 
nan

$$$$
CHEMBL5087073
     RDKit          3D

  0  0  0  0  0  0  0  0  0  0999 V3000
M  V30 BEGIN CTAB
M  V30 COUNTS 89 93 0 0 0
M  V30 BEGIN ATOM
M  V30 1 C 0.745758 -6.385068 -1.039360 0
M  V30 2 C 1.009770 -5.043812 -1.682620 0
M  V30 3 N 2.445833 -4.768558 -1.457888 0
M  V30 4 C 3.498917 -4.596180 -2.389799 0
M  V30 5 O 3.099196 -4.711833 -3.567140 0
M  V30 6 C 4.826816 -4.321235 -1.779171 0
M  V30 7 C 5.121424 -4.095059 -0.445939 0
M  V30 8 N 6.449805 -3.909792 -0.464213 0
M  V30 9 C 6.910319 -4.015994 -1.704754 0
M  V30 10 C 8.244612 -3.879328 -2.065574 0
M  V30 11 C 8.575343 -4.017624 -3.386276 0
M  V30 12 C 7.571608 -4.286437 -4.294563 0
M  V30 13 C 6.258079 -4.412741 -3.877744 0
M  V30 14 N 5.908310 -4.275549 -2.557489 0
M  V30 15 C 0.226800 -3.938687 -1.008848 0
M  V30 16 C 0.849433 -2.707537 -1.348668 0
M  V30 17 C 0.347767 -1.499201 -0.812919 0
M  V30 18 C -0.754793 -1.531538 0.044007 0
M  V30 19 C -1.152245 -0.266377 0.614009 0
M  V30 20 O -0.261158 0.597521 0.600143 0
M  V30 21 N -2.345387 0.186563 1.180579 0
M  V30 22 C -3.060172 1.188883 1.796565 0 CFG=2
M  V30 23 C -4.514964 1.038168 1.863785 0
M  V30 24 C -5.320897 0.939987 0.644205 0
M  V30 25 C -5.186815 -0.218322 -0.266550 0
M  V30 26 C -5.553668 -1.536074 0.367656 0
M  V30 27 C -5.158044 -2.652247 -0.559369 0
M  V30 28 C -5.443523 -2.277239 -1.972717 0
M  V30 29 C -6.559229 -1.271107 -2.106442 0
M  V30 30 C -6.157563 0.007558 -1.430886 0
M  V30 31 C -2.663411 2.623996 1.707489 0
M  V30 32 O -3.605940 3.483542 1.915947 0
M  V30 33 N -1.559054 3.434446 1.465169 0
M  V30 34 C -1.073332 4.768439 1.354523 0
M  V30 35 C -0.344640 4.991754 0.048452 0
M  V30 36 C 1.123643 4.859422 0.108480 0
M  V30 37 C 1.770573 4.351275 1.334951 0
M  V30 38 N 0.958616 4.047362 2.463837 0
M  V30 39 S 1.907716 4.242625 3.902840 0
M  V30 40 C 3.284247 3.160456 3.983017 0
M  V30 41 O 1.016675 4.091393 5.100370 0
M  V30 42 O 2.411976 5.688790 3.973481 0
M  V30 43 C -0.114790 5.025117 2.523568 0
M  V30 44 C -1.303886 -2.748794 0.324164 0
M  V30 45 C -0.854356 -3.946743 -0.169680 0
M  V30 46 H 1.253779 -6.495792 -0.070054 0
M  V30 47 H 1.143387 -7.215092 -1.677091 0
M  V30 48 H -0.353034 -6.538399 -0.846814 0
M  V30 49 H 0.796374 -5.109893 -2.746688 0
M  V30 50 H 2.555279 -4.726143 -0.419962 0
M  V30 51 H 4.390536 -4.092932 0.346006 0
M  V30 52 H 9.041760 -3.673735 -1.379039 0
M  V30 53 H 9.578747 -3.928515 -3.750586 0
M  V30 54 H 7.691343 -4.417407 -5.354200 0
M  V30 55 H 5.378979 -4.621438 -4.495937 0
M  V30 56 H 1.719012 -2.578477 -2.014213 0
M  V30 57 H 0.846378 -0.574871 -1.106219 0
M  V30 58 H -2.959976 -0.691594 1.126965 0
M  V30 59 H -2.709555 1.045413 2.943809 0
M  V30 60 H -4.893326 1.906463 2.480439 0
M  V30 61 H -4.711012 0.141369 2.524907 0
M  V30 62 H -5.265908 1.856298 -0.006367 0
M  V30 63 H -6.414423 0.950738 0.964602 0
M  V30 64 H -4.190921 -0.321195 -0.766551 0
M  V30 65 H -6.668311 -1.531445 0.529497 0
M  V30 66 H -5.110741 -1.702773 1.360518 0
M  V30 67 H -5.654315 -3.608569 -0.262720 0
M  V30 68 H -4.053877 -2.810868 -0.447287 0
M  V30 69 H -5.598172 -3.151599 -2.627783 0
M  V30 70 H -4.533962 -1.761068 -2.408562 0
M  V30 71 H -7.530876 -1.684987 -1.763321 0
M  V30 72 H -6.644808 -1.078807 -3.215646 0
M  V30 73 H -5.707361 0.706890 -2.178316 0
M  V30 74 H -7.086019 0.506860 -1.068145 0
M  V30 75 H -0.695907 2.888441 1.322501 0
M  V30 76 H -1.898267 5.483541 1.451990 0
M  V30 77 H -0.808035 4.255209 -0.679600 0
M  V30 78 H -0.608375 5.991618 -0.346616 0
M  V30 79 H 1.410310 4.132549 -0.716141 0
M  V30 80 H 1.638267 5.808400 -0.247225 0
M  V30 81 H 2.440725 3.465718 1.152184 0
M  V30 82 H 2.516821 5.130352 1.697475 0
M  V30 83 H 3.825872 3.404698 4.933780 0
M  V30 84 H 2.890732 2.116450 4.093971 0
M  V30 85 H 3.909698 3.293627 3.100579 0
M  V30 86 H 0.282521 6.055417 2.418434 0
M  V30 87 H -0.641138 4.975133 3.470769 0
M  V30 88 H -2.154630 -2.802651 0.985256 0
M  V30 89 H -1.212355 -4.940519 -0.006685 0
M  V30 END ATOM
M  V30 BEGIN BOND
M  V30 1 1 1 2
M  V30 2 1 2 3
M  V30 3 1 3 4
M  V30 4 2 4 5
M  V30 5 1 4 6
M  V30 6 2 6 7
M  V30 7 1 7 8
M  V30 8 2 8 9
M  V30 9 1 9 10
M  V30 10 2 10 11
M  V30 11 1 11 12
M  V30 12 2 12 13
M  V30 13 1 13 14
M  V30 14 1 2 15
M  V30 15 2 15 16
M  V30 16 1 16 17
M  V30 17 2 17 18
M  V30 18 1 18 19
M  V30 19 2 19 20
M  V30 20 1 19 21
M  V30 21 1 21 22
M  V30 22 1 22 23
M  V30 23 1 23 24
M  V30 24 1 24 25
M  V30 25 1 25 26
M  V30 26 1 26 27
M  V30 27 1 27 28
M  V30 28 1 28 29
M  V30 29 1 29 30
M  V30 30 1 22 31
M  V30 31 2 31 32
M  V30 32 1 31 33
M  V30 33 1 33 34
M  V30 34 1 34 35
M  V30 35 1 35 36
M  V30 36 1 36 37
M  V30 37 1 37 38
M  V30 38 1 38 39
M  V30 39 1 39 40
M  V30 40 2 39 41
M  V30 41 2 39 42
M  V30 42 1 38 43
M  V30 43 1 18 44
M  V30 44 2 44 45
M  V30 45 1 14 6
M  V30 46 1 45 15
M  V30 47 1 14 9
M  V30 48 1 30 25
M  V30 49 1 43 34
M  V30 50 1 1 46
M  V30 51 1 1 47
M  V30 52 1 1 48
M  V30 53 1 2 49
M  V30 54 1 3 50
M  V30 55 1 7 51
M  V30 56 1 10 52
M  V30 57 1 11 53
M  V30 58 1 12 54
M  V30 59 1 13 55
M  V30 60 1 16 56
M  V30 61 1 17 57
M  V30 62 1 21 58
M  V30 63 1 22 59 CFG=1
M  V30 64 1 23 60
M  V30 65 1 23 61
M  V30 66 1 24 62
M  V30 67 1 24 63
M  V30 68 1 25 64
M  V30 69 1 26 65
M  V30 70 1 26 66
M  V30 71 1 27 67
M  V30 72 1 27 68
M  V30 73 1 28 69
M  V30 74 1 28 70
M  V30 75 1 29 71
M  V30 76 1 29 72
M  V30 77 1 30 73
M  V30 78 1 30 74
M  V30 79 1 33 75
M  V30 80 1 34 76
M  V30 81 1 35 77
M  V30 82 1 35 78
M  V30 83 1 36 79
M  V30 84 1 36 80
M  V30 85 1 37 81
M  V30 86 1 37 82
M  V30 87 1 40 83
M  V30 88 1 40 84
M  V30 89 1 40 85
M  V30 90 1 43 86
M  V30 91 1 43 87
M  V30 92 1 44 88
M  V30 93 1 45 89
M  V30 END BOND
M  V30 END CTAB
M  END
>  <Dataset>  (229) 
ChEMBL_Kinases

>  <Ligand_Instance>  (229) 
nan

>  <PDB_ID>  (229) 
nan

>  <Standardized_SMILES>  (229) 
CC(NC(=O)c1cnc2ccccn12)c1ccc(C(=O)N[C@H](CCC2CCCCC2)C(=O)NC2CCCN(S(C)(=O)=O)C2)cc1

>  <Name>  (229) 
nan

>  <Pocket>  (229) 
nan

>  <ATP_Site>  (229) 
nan

>  <Peripheral>  (229) 
nan

>  <Num_H_Atoms_ProtBoundConf>  (229) 
nan

>  <Num_Resolved_Atoms>  (229) 
nan

>  <Num_Not_Resolved_Atoms>  (229) 
nan

$$$$
CHEMBL5087090
     RDKit          3D

  0  0  0  0  0  0  0  0  0  0999 V3000
M  V30 BEGIN CTAB
M  V30 COUNTS 68 71 0 0 0
M  V30 BEGIN ATOM
M  V30 1 C 6.117123 -3.417902 5.680234 0
M  V30 2 N 6.134517 -2.849977 4.279908 0
M  V30 3 C 7.143072 -1.770691 4.340550 0
M  V30 4 C 4.820577 -2.379330 3.993047 0
M  V30 5 C 4.548227 -2.037784 2.576383 0
M  V30 6 C 5.363713 -0.964303 1.956432 0
M  V30 7 O 5.064225 -0.641169 0.635782 0
M  V30 8 C 3.953018 -0.147446 0.066824 0
M  V30 9 C 4.069964 0.015424 -1.307924 0
M  V30 10 C 3.061772 0.512594 -2.138562 0
M  V30 11 C 1.869397 0.866488 -1.560005 0
M  V30 12 C 0.865397 1.357605 -2.364035 0
M  V30 13 N 0.950127 1.571594 -3.769592 0
M  V30 14 C -0.153996 2.071658 -4.545416 0
M  V30 15 C -1.228752 1.111181 -4.878581 0
M  V30 16 C -1.951416 0.444176 -3.816668 0
M  V30 17 C -1.515653 -0.806309 -3.356927 0
M  V30 18 C -2.161557 -1.482372 -2.366159 0
M  V30 19 C -3.284954 -0.977096 -1.753821 0
M  V30 20 N -3.917752 -1.724128 -0.729633 0
M  V30 21 C -5.035997 -1.452756 0.057949 0
M  V30 22 O -5.637515 -0.371226 -0.114272 0
M  V30 23 N -5.576007 -2.292339 1.056814 0
M  V30 24 C -6.732537 -1.846317 1.768802 0
M  V30 25 C -8.069145 -2.019521 1.479146 0
M  V30 26 C -9.009791 -1.488180 2.337338 0
M  V30 27 C -8.652004 -0.789581 3.475296 0
M  V30 28 C -7.312101 -0.614216 3.768922 0
M  V30 29 C -6.360500 -1.140858 2.918131 0
M  V30 30 C -3.690767 0.250390 -2.223145 0
M  V30 31 C -3.075838 0.976167 -3.221095 0
M  V30 32 N -0.269013 1.681683 -1.733578 0
M  V30 33 C -0.456271 1.553700 -0.419965 0
M  V30 34 N 0.540693 1.068937 0.359577 0
M  V30 35 C 1.700125 0.726694 -0.210479 0
M  V30 36 C 2.728321 0.233281 0.550132 0
M  V30 37 H 6.938734 -4.134614 5.709894 0
M  V30 38 H 6.312676 -2.570693 6.367696 0
M  V30 39 H 5.140004 -3.886398 5.802693 0
M  V30 40 H 6.708216 -0.773741 4.231766 0
M  V30 41 H 7.914254 -1.973971 3.589126 0
M  V30 42 H 7.657534 -1.784169 5.349720 0
M  V30 43 H 4.075965 -3.187232 4.280350 0
M  V30 44 H 4.651923 -1.498561 4.676517 0
M  V30 45 H 3.456097 -1.834164 2.395503 0
M  V30 46 H 4.758519 -3.007901 1.990680 0
M  V30 47 H 5.261660 -0.012222 2.546745 0
M  V30 48 H 6.452223 -1.259457 1.958753 0
M  V30 49 H 4.979165 -0.237867 -1.858416 0
M  V30 50 H 3.216861 0.611094 -3.183389 0
M  V30 51 H 1.826737 1.371472 -4.303611 0
M  V30 52 H 0.269430 2.425774 -5.532911 0
M  V30 53 H -0.557157 3.025604 -4.108529 0
M  V30 54 H -1.963470 1.623274 -5.557944 0
M  V30 55 H -0.770778 0.298768 -5.520238 0
M  V30 56 H -0.640957 -1.284218 -3.777701 0
M  V30 57 H -1.780504 -2.462466 -2.037623 0
M  V30 58 H -3.506725 -2.669288 -0.476087 0
M  V30 59 H -5.091647 -3.220419 1.232156 0
M  V30 60 H -8.214266 -2.571330 0.580051 0
M  V30 61 H -10.038715 -1.659418 2.052335 0
M  V30 62 H -9.412422 -0.384854 4.127245 0
M  V30 63 H -7.092852 -0.059532 4.672642 0
M  V30 64 H -5.352623 -0.935500 3.260308 0
M  V30 65 H -4.562844 0.717737 -1.796058 0
M  V30 66 H -3.451011 1.935469 -3.540254 0
M  V30 67 H -1.420485 1.845727 0.010626 0
M  V30 68 H 2.580531 0.144160 1.601314 0
M  V30 END ATOM
M  V30 BEGIN BOND
M  V30 1 1 1 2
M  V30 2 1 2 3
M  V30 3 1 2 4
M  V30 4 1 4 5
M  V30 5 1 5 6
M  V30 6 1 6 7
M  V30 7 1 7 8
M  V30 8 2 8 9
M  V30 9 1 9 10
M  V30 10 2 10 11
M  V30 11 1 11 12
M  V30 12 1 12 13
M  V30 13 1 13 14
M  V30 14 1 14 15
M  V30 15 1 15 16
M  V30 16 2 16 17
M  V30 17 1 17 18
M  V30 18 2 18 19
M  V30 19 1 19 20
M  V30 20 1 20 21
M  V30 21 2 21 22
M  V30 22 1 21 23
M  V30 23 1 23 24
M  V30 24 2 24 25
M  V30 25 1 25 26
M  V30 26 2 26 27
M  V30 27 1 27 28
M  V30 28 2 28 29
M  V30 29 1 19 30
M  V30 30 2 30 31
M  V30 31 2 12 32
M  V30 32 1 32 33
M  V30 33 2 33 34
M  V30 34 1 34 35
M  V30 35 2 35 36
M  V30 36 1 36 8
M  V30 37 1 35 11
M  V30 38 1 31 16
M  V30 39 1 29 24
M  V30 40 1 1 37
M  V30 41 1 1 38
M  V30 42 1 1 39
M  V30 43 1 3 40
M  V30 44 1 3 41
M  V30 45 1 3 42
M  V30 46 1 4 43
M  V30 47 1 4 44
M  V30 48 1 5 45
M  V30 49 1 5 46
M  V30 50 1 6 47
M  V30 51 1 6 48
M  V30 52 1 9 49
M  V30 53 1 10 50
M  V30 54 1 13 51
M  V30 55 1 14 52
M  V30 56 1 14 53
M  V30 57 1 15 54
M  V30 58 1 15 55
M  V30 59 1 17 56
M  V30 60 1 18 57
M  V30 61 1 20 58
M  V30 62 1 23 59
M  V30 63 1 25 60
M  V30 64 1 26 61
M  V30 65 1 27 62
M  V30 66 1 28 63
M  V30 67 1 29 64
M  V30 68 1 30 65
M  V30 69 1 31 66
M  V30 70 1 33 67
M  V30 71 1 36 68
M  V30 END BOND
M  V30 END CTAB
M  END
>  <Dataset>  (230) 
ChEMBL_Kinases

>  <Ligand_Instance>  (230) 
nan

>  <PDB_ID>  (230) 
nan

>  <Standardized_SMILES>  (230) 
CN(C)CCCOc1ccc2c(NCCc3ccc(NC(=O)Nc4ccccc4)cc3)ncnc2c1

>  <Name>  (230) 
nan

>  <Pocket>  (230) 
nan

>  <ATP_Site>  (230) 
nan

>  <Peripheral>  (230) 
nan

>  <Num_H_Atoms_ProtBoundConf>  (230) 
nan

>  <Num_Resolved_Atoms>  (230) 
nan

>  <Num_Not_Resolved_Atoms>  (230) 
nan

$$$$
CHEMBL5086506
     RDKit          3D

  0  0  0  0  0  0  0  0  0  0999 V3000
M  V30 BEGIN CTAB
M  V30 COUNTS 59 63 0 0 0
M  V30 BEGIN ATOM
M  V30 1 C 0.369556 -5.769522 2.570874 0
M  V30 2 C 0.573358 -5.165330 1.242370 0
M  V30 3 C 0.952267 -3.850940 1.061632 0
M  V30 4 N 1.152678 -2.878773 2.062883 0
M  V30 5 C 1.568701 -1.545694 1.834172 0
M  V30 6 N 2.812094 -0.988015 1.949766 0
M  V30 7 C 3.000860 0.312492 1.669981 0
M  V30 8 N 4.294618 0.847197 1.803928 0
M  V30 9 C 1.995928 1.143090 1.262413 0
M  V30 10 C 1.834962 2.478547 0.894269 0
M  V30 11 C 2.946759 3.367310 0.898780 0
M  V30 12 N 3.852964 4.083805 0.921673 0
M  V30 13 C 0.505293 2.649027 0.577457 0
M  V30 14 N -0.050740 3.910084 0.157531 0
M  V30 15 C 0.482072 5.257973 0.145050 0
M  V30 16 C -0.607009 5.978412 0.961925 0
M  V30 17 C -1.873516 5.197681 0.611958 0
M  V30 18 C -1.339338 4.237796 -0.443356 0 CFG=1
M  V30 19 C -1.200989 5.039617 -1.718953 0
M  V30 20 N -0.186772 1.498945 0.724512 0
M  V30 21 C -1.573472 1.194739 0.534375 0
M  V30 22 C 0.744154 0.585170 1.144625 0
M  V30 23 N 0.602361 -0.718400 1.435168 0
M  V30 24 C 1.094729 -3.619976 -0.296906 0
M  V30 25 N 0.797351 -4.796260 -0.887882 0
M  V30 26 N 0.486391 -5.719467 0.002700 0
M  V30 27 C 0.072373 -7.081898 -0.126660 0
M  V30 28 C -1.405885 -7.265756 -0.394165 0
M  V30 29 O -1.862043 -8.559997 -0.494792 0
M  V30 30 C -1.776899 -6.561566 -1.747731 0
M  V30 31 O -1.838967 -5.383410 -0.961362 0
M  V30 32 C -2.346883 -6.224996 0.066241 0
M  V30 33 H 0.937791 -6.736949 2.667778 0
M  V30 34 H 0.697429 -5.083959 3.380178 0
M  V30 35 H -0.680500 -6.045214 2.703026 0
M  V30 36 H 1.009463 -3.065568 3.080309 0
M  V30 37 H 4.991647 0.801474 1.012405 0
M  V30 38 H 4.805130 1.339118 2.590552 0
M  V30 39 H 1.462295 5.376764 0.626649 0
M  V30 40 H 0.584046 5.676027 -0.860622 0
M  V30 41 H -0.699140 7.034077 0.694520 0
M  V30 42 H -0.315822 5.849217 2.019381 0
M  V30 43 H -2.689965 5.820580 0.247697 0
M  V30 44 H -2.143373 4.568452 1.508510 0
M  V30 45 H -1.998016 3.397377 -0.617235 0
M  V30 46 H -2.128897 4.821832 -2.329146 0
M  V30 47 H -1.257026 6.130150 -1.546366 0
M  V30 48 H -0.373651 4.711009 -2.363825 0
M  V30 49 H -1.796068 0.202130 1.046231 0
M  V30 50 H -2.245360 1.887459 1.117249 0
M  V30 51 H -1.892462 1.019668 -0.498960 0
M  V30 52 H 1.384788 -2.671901 -0.713750 0
M  V30 53 H 0.400267 -7.718879 0.718179 0
M  V30 54 H 0.575892 -7.513880 -1.044845 0
M  V30 55 H -2.629282 -8.642613 -1.114890 0
M  V30 56 H -2.766528 -6.915485 -2.106335 0
M  V30 57 H -0.938266 -6.591444 -2.460792 0
M  V30 58 H -3.394886 -6.502511 -0.272266 0
M  V30 59 H -2.307596 -5.813751 1.063444 0
M  V30 END ATOM
M  V30 BEGIN BOND
M  V30 1 1 1 2
M  V30 2 2 2 3
M  V30 3 1 3 4
M  V30 4 1 4 5
M  V30 5 2 5 6
M  V30 6 1 6 7
M  V30 7 1 7 8
M  V30 8 2 7 9
M  V30 9 1 9 10
M  V30 10 1 10 11
M  V30 11 3 11 12
M  V30 12 2 10 13
M  V30 13 1 13 14
M  V30 14 1 14 15
M  V30 15 1 15 16
M  V30 16 1 16 17
M  V30 17 1 17 18
M  V30 18 1 18 19
M  V30 19 1 13 20
M  V30 20 1 20 21
M  V30 21 1 20 22
M  V30 22 2 22 23
M  V30 23 1 3 24
M  V30 24 2 24 25
M  V30 25 1 25 26
M  V30 26 1 26 27
M  V30 27 1 27 28
M  V30 28 1 28 29
M  V30 29 1 28 30
M  V30 30 1 30 31
M  V30 31 1 31 32
M  V30 32 1 26 2
M  V30 33 1 32 28
M  V30 34 1 23 5
M  V30 35 1 22 9
M  V30 36 1 18 14
M  V30 37 1 1 33
M  V30 38 1 1 34
M  V30 39 1 1 35
M  V30 40 1 4 36
M  V30 41 1 8 37
M  V30 42 1 8 38
M  V30 43 1 15 39
M  V30 44 1 15 40
M  V30 45 1 16 41
M  V30 46 1 16 42
M  V30 47 1 17 43
M  V30 48 1 17 44
M  V30 49 1 18 45 CFG=3
M  V30 50 1 19 46
M  V30 51 1 19 47
M  V30 52 1 19 48
M  V30 53 1 21 49
M  V30 54 1 21 50
M  V30 55 1 21 51
M  V30 56 1 24 52
M  V30 57 1 27 53
M  V30 58 1 27 54
M  V30 59 1 29 55
M  V30 60 1 30 56
M  V30 61 1 30 57
M  V30 62 1 32 58
M  V30 63 1 32 59
M  V30 END BOND
M  V30 END CTAB
M  END
>  <Dataset>  (231) 
ChEMBL_Kinases

>  <Ligand_Instance>  (231) 
nan

>  <PDB_ID>  (231) 
nan

>  <Standardized_SMILES>  (231) 
Cc1c(Nc2nc(N)c3c(C#N)c(N4CCC[C@H]4C)n(C)c3n2)cnn1CC1(O)COC1

>  <Name>  (231) 
nan

>  <Pocket>  (231) 
nan

>  <ATP_Site>  (231) 
nan

>  <Peripheral>  (231) 
nan

>  <Num_H_Atoms_ProtBoundConf>  (231) 
nan

>  <Num_Resolved_Atoms>  (231) 
nan

>  <Num_Not_Resolved_Atoms>  (231) 
nan

$$$$
CHEMBL3753857
     RDKit          3D

  0  0  0  0  0  0  0  0  0  0999 V3000
M  V30 BEGIN CTAB
M  V30 COUNTS 51 54 0 0 0
M  V30 BEGIN ATOM
M  V30 1 C -0.552677 -7.918602 1.843891 0
M  V30 2 O -0.578277 -7.280294 0.595183 0
M  V30 3 C -0.621162 -5.903743 0.466493 0
M  V30 4 C -0.637404 -5.121244 1.627198 0
M  V30 5 C -0.681376 -3.753085 1.458036 0
M  V30 6 C -0.709132 -3.146499 0.221257 0
M  V30 7 C -0.753508 -1.681039 0.077183 0
M  V30 8 C -0.103863 -0.946096 1.056609 0
M  V30 9 N -0.144096 0.392299 0.938388 0
M  V30 10 C -0.765623 1.033048 -0.053533 0
M  V30 11 C -0.830763 2.365605 -0.197433 0
M  V30 12 N -0.263592 3.413094 0.617683 0
M  V30 13 C 0.726842 4.233448 -0.055476 0
M  V30 14 C 1.434818 5.095665 0.969331 0
M  V30 15 C 2.300768 4.186958 1.812483 0
M  V30 16 N 1.640817 2.942012 2.097496 0
M  V30 17 C 2.529022 2.018198 2.744012 0
M  V30 18 C 0.434710 3.110824 2.876649 0
M  V30 19 C -0.726530 3.515127 1.989220 0
M  V30 20 S -1.750168 2.746644 -1.628552 0
M  V30 21 N -2.066555 0.952565 -2.059680 0
M  V30 22 C -1.426063 0.350631 -1.052173 0
M  V30 23 C -1.400840 -1.031037 -0.956373 0
M  V30 24 C -0.691732 -3.951951 -0.897345 0
M  V30 25 C -0.647655 -5.329065 -0.807484 0
M  V30 26 O -0.626241 -6.219132 -1.865703 0
M  V30 27 C -0.654558 -5.702197 -3.180651 0
M  V30 28 H 0.413541 -7.838554 2.366175 0
M  V30 29 H -0.784312 -9.018154 1.751061 0
M  V30 30 H -1.319919 -7.546828 2.555619 0
M  V30 31 H -0.615020 -5.635897 2.575645 0
M  V30 32 H -0.693698 -3.162082 2.372368 0
M  V30 33 H 0.413118 -1.421663 1.880834 0
M  V30 34 H 0.230888 4.949919 -0.749032 0
M  V30 35 H 1.415568 3.602959 -0.645313 0
M  V30 36 H 2.025075 5.893858 0.481391 0
M  V30 37 H 0.654993 5.559124 1.595383 0
M  V30 38 H 3.240100 3.924843 1.248041 0
M  V30 39 H 2.638624 4.627774 2.753604 0
M  V30 40 H 3.184085 2.516934 3.515297 0
M  V30 41 H 2.009950 1.145238 3.141060 0
M  V30 42 H 3.223944 1.638981 1.954627 0
M  V30 43 H 0.579406 3.856524 3.691198 0
M  V30 44 H 0.245222 2.132455 3.363365 0
M  V30 45 H -1.089116 4.507630 2.268516 0
M  V30 46 H -1.558057 2.775916 2.163646 0
M  V30 47 H -1.853666 -1.736414 -1.632328 0
M  V30 48 H -0.711541 -3.550381 -1.902587 0
M  V30 49 H -0.594559 -6.533384 -3.938935 0
M  V30 50 H 0.280758 -5.119897 -3.318906 0
M  V30 51 H -1.522847 -5.067743 -3.402779 0
M  V30 END ATOM
M  V30 BEGIN BOND
M  V30 1 1 1 2
M  V30 2 1 2 3
M  V30 3 2 3 4
M  V30 4 1 4 5
M  V30 5 2 5 6
M  V30 6 1 6 7
M  V30 7 1 7 8
M  V30 8 2 8 9
M  V30 9 1 9 10
M  V30 10 2 10 11
M  V30 11 1 11 12
M  V30 12 1 12 13
M  V30 13 1 13 14
M  V30 14 1 14 15
M  V30 15 1 15 16
M  V30 16 1 16 17
M  V30 17 1 16 18
M  V30 18 1 18 19
M  V30 19 1 11 20
M  V30 20 1 20 21
M  V30 21 2 21 22
M  V30 22 1 22 23
M  V30 23 1 6 24
M  V30 24 2 24 25
M  V30 25 1 25 26
M  V30 26 1 26 27
M  V30 27 1 25 3
M  V30 28 2 23 7
M  V30 29 1 22 10
M  V30 30 1 19 12
M  V30 31 1 1 28
M  V30 32 1 1 29
M  V30 33 1 1 30
M  V30 34 1 4 31
M  V30 35 1 5 32
M  V30 36 1 8 33
M  V30 37 1 13 34
M  V30 38 1 13 35
M  V30 39 1 14 36
M  V30 40 1 14 37
M  V30 41 1 15 38
M  V30 42 1 15 39
M  V30 43 1 17 40
M  V30 44 1 17 41
M  V30 45 1 17 42
M  V30 46 1 18 43
M  V30 47 1 18 44
M  V30 48 1 19 45
M  V30 49 1 19 46
M  V30 50 1 23 47
M  V30 51 1 24 48
M  V30 52 1 27 49
M  V30 53 1 27 50
M  V30 54 1 27 51
M  V30 END BOND
M  V30 END CTAB
M  END
>  <Dataset>  (232) 
ChEMBL_Kinases

>  <Ligand_Instance>  (232) 
nan

>  <PDB_ID>  (232) 
nan

>  <Standardized_SMILES>  (232) 
COc1ccc(-c2cnc3c(N4CCCN(C)CC4)snc3c2)cc1OC

>  <Name>  (232) 
nan

>  <Pocket>  (232) 
nan

>  <ATP_Site>  (232) 
nan

>  <Peripheral>  (232) 
nan

>  <Num_H_Atoms_ProtBoundConf>  (232) 
nan

>  <Num_Resolved_Atoms>  (232) 
nan

>  <Num_Not_Resolved_Atoms>  (232) 
nan

$$$$
CHEMBL3753792
     RDKit          3D

  0  0  0  0  0  0  0  0  0  0999 V3000
M  V30 BEGIN CTAB
M  V30 COUNTS 48 51 0 0 0
M  V30 BEGIN ATOM
M  V30 1 C -0.773130 -7.202763 3.107210 0
M  V30 2 O -1.803355 -6.572960 2.360182 0
M  V30 3 C -1.561137 -5.330560 1.821825 0
M  V30 4 C -0.372526 -4.655382 1.963659 0
M  V30 5 C -0.099848 -3.407503 1.435125 0
M  V30 6 C -1.126148 -2.817210 0.710323 0
M  V30 7 C -0.904094 -1.496769 0.124271 0
M  V30 8 C -0.055493 -0.678911 0.845729 0
M  V30 9 N 0.188906 0.547165 0.362114 0
M  V30 10 C -0.316526 1.061557 -0.766662 0
M  V30 11 C -0.135225 2.284960 -1.331058 0
M  V30 12 N 0.692310 3.397176 -0.869302 0
M  V30 13 C 1.571801 3.564857 0.232776 0
M  V30 14 C 2.063970 4.985277 0.454842 0
M  V30 15 C 2.762575 4.910327 1.818252 0
M  V30 16 N 3.905671 4.063493 1.813351 0
M  V30 17 C 3.740642 2.776552 1.186808 0
M  V30 18 C 2.847893 2.769991 0.007473 0
M  V30 19 S -1.048411 2.385023 -2.777781 0
M  V30 20 N -1.751407 0.656270 -2.655605 0
M  V30 21 C -1.164574 0.261438 -1.499226 0
M  V30 22 C -1.452881 -1.013599 -1.048504 0
M  V30 23 C -2.333232 -3.469059 0.548900 0
M  V30 24 C -2.569177 -4.732237 1.100446 0
M  V30 25 O -3.775783 -5.360206 0.927076 0
M  V30 26 C -4.815180 -4.749910 0.186673 0
M  V30 27 H 0.168605 -7.317391 2.567637 0
M  V30 28 H -1.072649 -8.206186 3.463947 0
M  V30 29 H -0.600311 -6.569147 4.006041 0
M  V30 30 H 0.398678 -5.144558 2.531928 0
M  V30 31 H 0.861314 -2.919543 1.579968 0
M  V30 32 H 0.448745 -0.925637 1.785103 0
M  V30 33 H 0.668434 4.279044 -1.435110 0
M  V30 34 H 1.137261 3.219198 1.187615 0
M  V30 35 H 1.195635 5.635379 0.544405 0
M  V30 36 H 2.807986 5.235083 -0.299478 0
M  V30 37 H 2.057618 4.532812 2.598726 0
M  V30 38 H 3.071113 5.925196 2.083872 0
M  V30 39 H 4.156749 3.885761 2.812108 0
M  V30 40 H 3.427403 1.997451 1.920232 0
M  V30 41 H 4.765891 2.463221 0.856880 0
M  V30 42 H 2.563446 1.744735 -0.255605 0
M  V30 43 H 3.319350 3.197555 -0.909914 0
M  V30 44 H -2.084052 -1.755297 -1.492384 0
M  V30 45 H -3.074485 -2.948120 -0.023267 0
M  V30 46 H -4.898151 -3.690230 0.527837 0
M  V30 47 H -4.524753 -4.686032 -0.898624 0
M  V30 48 H -5.765442 -5.297523 0.283910 0
M  V30 END ATOM
M  V30 BEGIN BOND
M  V30 1 1 1 2
M  V30 2 1 2 3
M  V30 3 2 3 4
M  V30 4 1 4 5
M  V30 5 2 5 6
M  V30 6 1 6 7
M  V30 7 1 7 8
M  V30 8 2 8 9
M  V30 9 1 9 10
M  V30 10 2 10 11
M  V30 11 1 11 12
M  V30 12 1 12 13
M  V30 13 1 13 14
M  V30 14 1 14 15
M  V30 15 1 15 16
M  V30 16 1 16 17
M  V30 17 1 17 18
M  V30 18 1 11 19
M  V30 19 1 19 20
M  V30 20 2 20 21
M  V30 21 1 21 22
M  V30 22 1 6 23
M  V30 23 2 23 24
M  V30 24 1 24 25
M  V30 25 1 25 26
M  V30 26 1 24 3
M  V30 27 2 22 7
M  V30 28 1 21 10
M  V30 29 1 18 13
M  V30 30 1 1 27
M  V30 31 1 1 28
M  V30 32 1 1 29
M  V30 33 1 4 30
M  V30 34 1 5 31
M  V30 35 1 8 32
M  V30 36 1 12 33
M  V30 37 1 13 34
M  V30 38 1 14 35
M  V30 39 1 14 36
M  V30 40 1 15 37
M  V30 41 1 15 38
M  V30 42 1 16 39
M  V30 43 1 17 40
M  V30 44 1 17 41
M  V30 45 1 18 42
M  V30 46 1 18 43
M  V30 47 1 22 44
M  V30 48 1 23 45
M  V30 49 1 26 46
M  V30 50 1 26 47
M  V30 51 1 26 48
M  V30 END BOND
M  V30 END CTAB
M  END
>  <Dataset>  (233) 
ChEMBL_Kinases

>  <Ligand_Instance>  (233) 
nan

>  <PDB_ID>  (233) 
nan

>  <Standardized_SMILES>  (233) 
COc1ccc(-c2cnc3c(NC4CCNCC4)snc3c2)cc1OC

>  <Name>  (233) 
nan

>  <Pocket>  (233) 
nan

>  <ATP_Site>  (233) 
nan

>  <Peripheral>  (233) 
nan

>  <Num_H_Atoms_ProtBoundConf>  (233) 
nan

>  <Num_Resolved_Atoms>  (233) 
nan

>  <Num_Not_Resolved_Atoms>  (233) 
nan

$$$$
CHEMBL375379
     RDKit          3D

  0  0  0  0  0  0  0  0  0  0999 V3000
M  V30 BEGIN CTAB
M  V30 COUNTS 42 45 0 0 0
M  V30 BEGIN ATOM
M  V30 1 C 1.711029 -6.157431 3.924409 0
M  V30 2 O 1.503232 -5.601603 2.638695 0
M  V30 3 C 0.872896 -4.378183 2.456586 0
M  V30 4 C 0.381398 -3.565759 3.452094 0
M  V30 5 C -0.234034 -2.355756 3.149639 0
M  V30 6 N -0.779223 -1.420285 3.978218 0
M  V30 7 C -1.266933 -0.400075 3.245651 0
M  V30 8 N -1.013776 -0.725297 1.983543 0
M  V30 9 C -1.363182 0.087507 0.800370 0
M  V30 10 C -0.486392 0.973525 0.138054 0
M  V30 11 C -0.963934 1.641192 -0.928584 0
M  V30 12 O -0.230333 2.542702 -1.682386 0
M  V30 13 C 1.094907 2.915109 -1.475730 0
M  V30 14 C 1.399827 3.562597 -0.166309 0
M  V30 15 C 2.843608 4.002979 0.143364 0
M  V30 16 C 1.877067 5.022030 -0.300559 0
M  V30 17 C -2.246471 1.433411 -1.310648 0
M  V30 18 C -3.034750 1.997635 -2.404216 0
M  V30 19 N -3.641166 2.454334 -3.272675 0
M  V30 20 S -2.923787 0.271658 -0.206737 0
M  V30 21 C -0.381675 -1.915328 1.870264 0
M  V30 22 C 0.101469 -2.709119 0.852889 0
M  V30 23 C 0.708248 -3.905471 1.178112 0
M  V30 24 O 1.178430 -4.669253 0.118022 0
M  V30 25 C 1.053755 -4.264326 -1.227654 0
M  V30 26 H 0.770498 -6.712034 4.183659 0
M  V30 27 H 2.540003 -6.893824 3.899748 0
M  V30 28 H 1.898823 -5.389893 4.701780 0
M  V30 29 H 0.500678 -3.920959 4.480661 0
M  V30 30 H -1.757953 0.489949 3.610117 0
M  V30 31 H 0.530163 1.063894 0.526608 0
M  V30 32 H 1.699611 1.955377 -1.480616 0
M  V30 33 H 1.512656 3.508952 -2.294670 0
M  V30 34 H 0.727922 3.421743 0.723639 0
M  V30 35 H 3.594248 3.681634 -0.597495 0
M  V30 36 H 3.183620 3.931988 1.188277 0
M  V30 37 H 1.957109 5.464600 -1.306469 0
M  V30 38 H 1.542831 5.758088 0.450893 0
M  V30 39 H -0.014544 -2.361566 -0.164249 0
M  V30 40 H 0.011674 -3.928601 -1.475332 0
M  V30 41 H 1.811901 -3.518607 -1.522311 0
M  V30 42 H 1.195442 -5.180078 -1.846940 0
M  V30 END ATOM
M  V30 BEGIN BOND
M  V30 1 1 1 2
M  V30 2 1 2 3
M  V30 3 2 3 4
M  V30 4 1 4 5
M  V30 5 1 5 6
M  V30 6 2 6 7
M  V30 7 1 7 8
M  V30 8 1 8 9
M  V30 9 2 9 10
M  V30 10 1 10 11
M  V30 11 1 11 12
M  V30 12 1 12 13
M  V30 13 1 13 14
M  V30 14 1 14 15
M  V30 15 1 15 16
M  V30 16 2 11 17
M  V30 17 1 17 18
M  V30 18 3 18 19
M  V30 19 1 17 20
M  V30 20 1 8 21
M  V30 21 1 21 22
M  V30 22 2 22 23
M  V30 23 1 23 24
M  V30 24 1 24 25
M  V30 25 1 23 3
M  V30 26 2 21 5
M  V30 27 1 20 9
M  V30 28 1 16 14
M  V30 29 1 1 26
M  V30 30 1 1 27
M  V30 31 1 1 28
M  V30 32 1 4 29
M  V30 33 1 7 30
M  V30 34 1 10 31
M  V30 35 1 13 32
M  V30 36 1 13 33
M  V30 37 1 14 34
M  V30 38 1 15 35
M  V30 39 1 15 36
M  V30 40 1 16 37
M  V30 41 1 16 38
M  V30 42 1 22 39
M  V30 43 1 25 40
M  V30 44 1 25 41
M  V30 45 1 25 42
M  V30 END BOND
M  V30 END CTAB
M  END
>  <Dataset>  (234) 
ChEMBL_Kinases

>  <Ligand_Instance>  (234) 
nan

>  <PDB_ID>  (234) 
nan

>  <Standardized_SMILES>  (234) 
COc1cc2ncn(-c3cc(OCC4CC4)c(C#N)s3)c2cc1OC

>  <Name>  (234) 
nan

>  <Pocket>  (234) 
nan

>  <ATP_Site>  (234) 
nan

>  <Peripheral>  (234) 
nan

>  <Num_H_Atoms_ProtBoundConf>  (234) 
nan

>  <Num_Resolved_Atoms>  (234) 
nan

>  <Num_Not_Resolved_Atoms>  (234) 
nan

$$$$
CHEMBL5086221
     RDKit          3D

  0  0  0  0  0  0  0  0  0  0999 V3000
M  V30 BEGIN CTAB
M  V30 COUNTS 60 64 0 0 0
M  V30 BEGIN ATOM
M  V30 1 C 2.126402 -0.274018 4.503615 0
M  V30 2 C 2.144740 0.963428 3.696255 0
M  V30 3 C 3.114274 1.955354 3.905003 0
M  V30 4 N 3.157639 3.091867 3.194380 0
M  V30 5 C 2.203328 3.240105 2.247935 0
M  V30 6 N 2.233477 4.425130 1.442865 0
M  V30 7 C 2.778355 4.153215 0.133362 0
M  V30 8 C 3.205832 2.934533 -0.350049 0
M  V30 9 C 3.673481 3.025529 -1.656002 0
M  V30 10 N 3.514033 4.340351 -1.943996 0
M  V30 11 N 3.000774 4.987848 -0.917698 0
M  V30 12 C 2.714292 6.407095 -0.895637 0
M  V30 13 N 1.249536 2.309544 2.013922 0
M  V30 14 C 1.175165 1.158933 2.705596 0
M  V30 15 C 0.128484 0.176038 2.406034 0
M  V30 16 C -0.669675 -0.571732 3.240237 0
M  V30 17 C -1.582090 -1.428254 2.681751 0
M  V30 18 C -1.737572 -1.576251 1.336034 0
M  V30 19 C -0.954299 -0.841735 0.447684 0
M  V30 20 C -0.019340 0.037034 1.018956 0
M  V30 21 C -1.114193 -0.988952 -1.003799 0
M  V30 22 C -2.505688 -1.431278 -1.394207 0
M  V30 23 N -2.876552 -2.672054 -0.691795 0
M  V30 24 C -3.342620 -3.930605 -1.199998 0 CFG=2
M  V30 25 C -4.686051 -4.377245 -0.762441 0
M  V30 26 O -4.939867 -5.613331 -1.389596 0
M  V30 27 C -2.291351 -5.000702 -1.117738 0
M  V30 28 C -2.317497 -6.246805 -0.554843 0
M  V30 29 C -1.242818 -7.103020 -0.604542 0
M  V30 30 C -0.081780 -6.722471 -1.237273 0
M  V30 31 C 0.006494 -5.484122 -1.821451 0
M  V30 32 Cl 1.480453 -4.958641 -2.637424 0
M  V30 33 C -1.096437 -4.655067 -1.748361 0
M  V30 34 C -2.694953 -2.489535 0.728596 0
M  V30 35 O -3.390927 -3.144983 1.577708 0
M  V30 36 H 1.781105 -1.167842 3.987911 0
M  V30 37 H 1.582151 -0.056465 5.470986 0
M  V30 38 H 3.169805 -0.513358 4.849756 0
M  V30 39 H 3.844756 1.743149 4.694278 0
M  V30 40 H 1.953315 5.421873 1.601258 0
M  V30 41 H 3.218168 1.958770 0.151455 0
M  V30 42 H 4.066315 2.233475 -2.281527 0
M  V30 43 H 2.961282 6.836206 0.086552 0
M  V30 44 H 3.376605 6.906604 -1.663915 0
M  V30 45 H 1.678023 6.589873 -1.239147 0
M  V30 46 H -0.477019 -0.387432 4.262633 0
M  V30 47 H -2.199651 -2.010600 3.362863 0
M  V30 48 H 0.561064 0.582487 0.255183 0
M  V30 49 H -0.972466 0.033393 -1.450636 0
M  V30 50 H -0.315647 -1.624610 -1.396190 0
M  V30 51 H -3.239057 -0.661452 -1.162188 0
M  V30 52 H -2.531249 -1.656960 -2.474546 0
M  V30 53 H -3.419757 -3.770814 -2.327410 0
M  V30 54 H -4.824968 -4.444895 0.322608 0
M  V30 55 H -5.454604 -3.688877 -1.214741 0
M  V30 56 H -4.352111 -5.745292 -2.189228 0
M  V30 57 H -3.255165 -6.474879 -0.075747 0
M  V30 58 H -1.362551 -8.063376 -0.135020 0
M  V30 59 H 0.771665 -7.377806 -1.290038 0
M  V30 60 H -0.966382 -3.701339 -2.233364 0
M  V30 END ATOM
M  V30 BEGIN BOND
M  V30 1 1 1 2
M  V30 2 2 2 3
M  V30 3 1 3 4
M  V30 4 2 4 5
M  V30 5 1 5 6
M  V30 6 1 6 7
M  V30 7 2 7 8
M  V30 8 1 8 9
M  V30 9 2 9 10
M  V30 10 1 10 11
M  V30 11 1 11 12
M  V30 12 1 5 13
M  V30 13 2 13 14
M  V30 14 1 14 15
M  V30 15 2 15 16
M  V30 16 1 16 17
M  V30 17 2 17 18
M  V30 18 1 18 19
M  V30 19 2 19 20
M  V30 20 1 19 21
M  V30 21 1 21 22
M  V30 22 1 22 23
M  V30 23 1 23 24
M  V30 24 1 24 25
M  V30 25 1 25 26
M  V30 26 1 24 27
M  V30 27 2 27 28
M  V30 28 1 28 29
M  V30 29 2 29 30
M  V30 30 1 30 31
M  V30 31 1 31 32
M  V30 32 2 31 33
M  V30 33 1 23 34
M  V30 34 2 34 35
M  V30 35 1 14 2
M  V30 36 1 20 15
M  V30 37 1 33 27
M  V30 38 1 11 7
M  V30 39 1 34 18
M  V30 40 1 1 36
M  V30 41 1 1 37
M  V30 42 1 1 38
M  V30 43 1 3 39
M  V30 44 1 6 40
M  V30 45 1 8 41
M  V30 46 1 9 42
M  V30 47 1 12 43
M  V30 48 1 12 44
M  V30 49 1 12 45
M  V30 50 1 16 46
M  V30 51 1 17 47
M  V30 52 1 20 48
M  V30 53 1 21 49
M  V30 54 1 21 50
M  V30 55 1 22 51
M  V30 56 1 22 52
M  V30 57 1 24 53 CFG=3
M  V30 58 1 25 54
M  V30 59 1 25 55
M  V30 60 1 26 56
M  V30 61 1 28 57
M  V30 62 1 29 58
M  V30 63 1 30 59
M  V30 64 1 33 60
M  V30 END BOND
M  V30 END CTAB
M  END
>  <Dataset>  (235) 
ChEMBL_Kinases

>  <Ligand_Instance>  (235) 
nan

>  <PDB_ID>  (235) 
nan

>  <Standardized_SMILES>  (235) 
Cc1cnc(Nc2ccnn2C)nc1-c1ccc2c(c1)CCN([C@H](CO)c1cccc(Cl)c1)C2=O

>  <Name>  (235) 
nan

>  <Pocket>  (235) 
nan

>  <ATP_Site>  (235) 
nan

>  <Peripheral>  (235) 
nan

>  <Num_H_Atoms_ProtBoundConf>  (235) 
nan

>  <Num_Resolved_Atoms>  (235) 
nan

>  <Num_Not_Resolved_Atoms>  (235) 
nan

$$$$
CHEMBL5086246
     RDKit          3D

  0  0  0  0  0  0  0  0  0  0999 V3000
M  V30 BEGIN CTAB
M  V30 COUNTS 50 53 0 0 0
M  V30 BEGIN ATOM
M  V30 1 O 6.163227 3.765906 5.716330 0
M  V30 2 C 5.298415 3.220738 4.982322 0
M  V30 3 O 3.979674 3.022081 5.389279 0
M  V30 4 C 5.832660 2.811608 3.636189 0
M  V30 5 N 4.781391 2.192631 2.845648 0
M  V30 6 C 5.113406 1.744011 1.541885 0
M  V30 7 O 6.290220 1.890385 1.111436 0
M  V30 8 C 4.158857 1.106500 0.638775 0
M  V30 9 C 4.608380 0.713839 -0.604932 0
M  V30 10 C 3.749469 0.100917 -1.514390 0
M  V30 11 C 2.421116 -0.121649 -1.172270 0
M  V30 12 C 2.007455 0.284001 0.079008 0
M  V30 13 C 2.833063 0.895557 1.006830 0
M  V30 14 C 0.650949 0.152452 0.658823 0
M  V30 15 O 0.352250 0.869726 1.666601 0
M  V30 16 C -0.395581 -0.757867 0.151829 0
M  V30 17 C -1.569936 -0.550821 0.875853 0
M  V30 18 C -2.643171 -1.337415 0.513134 0
M  V30 19 C -2.565294 -2.268969 -0.498428 0
M  V30 20 N -3.687475 -3.066155 -0.850235 0
M  V30 21 C -4.982149 -3.095060 -0.320260 0
M  V30 22 C -6.109438 -2.823481 -1.089974 0
M  V30 23 C -7.374197 -2.866311 -0.515583 0
M  V30 24 C -7.471007 -3.183299 0.826165 0
M  V30 25 F -8.717180 -3.219430 1.367633 0
M  V30 26 C -6.375367 -3.457701 1.617680 0
M  V30 27 C -5.117300 -3.408177 1.017823 0
M  V30 28 F -4.104383 -3.694340 1.878136 0
M  V30 29 C -1.397939 -2.463351 -1.206207 0
M  V30 30 C -0.292629 -1.698918 -0.880561 0
M  V30 31 C 0.881998 -2.005669 -1.710088 0
M  V30 32 C 1.597692 -0.774467 -2.203185 0
M  V30 33 H 3.833240 2.859593 6.389054 0
M  V30 34 H 6.287353 3.686383 3.109404 0
M  V30 35 H 6.660039 2.097862 3.821990 0
M  V30 36 H 3.817586 2.074474 3.203388 0
M  V30 37 H 5.620036 0.835786 -0.979243 0
M  V30 38 H 4.048823 -0.231965 -2.514578 0
M  V30 39 H 2.464624 1.195002 1.971762 0
M  V30 40 H -1.620297 0.179850 1.664805 0
M  V30 41 H -3.567365 -1.175122 1.081204 0
M  V30 42 H -3.652537 -3.775157 -1.610824 0
M  V30 43 H -5.998077 -2.577702 -2.139844 0
M  V30 44 H -8.215013 -2.646818 -1.159875 0
M  V30 45 H -6.541655 -3.698730 2.666894 0
M  V30 46 H -1.249999 -3.168856 -2.010121 0
M  V30 47 H 1.605004 -2.589973 -1.110347 0
M  V30 48 H 0.539349 -2.622681 -2.565494 0
M  V30 49 H 0.804038 -0.038960 -2.492310 0
M  V30 50 H 2.149196 -1.021695 -3.111867 0
M  V30 END ATOM
M  V30 BEGIN BOND
M  V30 1 2 1 2
M  V30 2 1 2 3
M  V30 3 1 2 4
M  V30 4 1 4 5
M  V30 5 1 5 6
M  V30 6 2 6 7
M  V30 7 1 6 8
M  V30 8 2 8 9
M  V30 9 1 9 10
M  V30 10 2 10 11
M  V30 11 1 11 12
M  V30 12 2 12 13
M  V30 13 1 12 14
M  V30 14 2 14 15
M  V30 15 1 14 16
M  V30 16 2 16 17
M  V30 17 1 17 18
M  V30 18 2 18 19
M  V30 19 1 19 20
M  V30 20 1 20 21
M  V30 21 2 21 22
M  V30 22 1 22 23
M  V30 23 2 23 24
M  V30 24 1 24 25
M  V30 25 1 24 26
M  V30 26 2 26 27
M  V30 27 1 27 28
M  V30 28 1 19 29
M  V30 29 2 29 30
M  V30 30 1 30 31
M  V30 31 1 31 32
M  V30 32 1 13 8
M  V30 33 1 30 16
M  V30 34 1 32 11
M  V30 35 1 27 21
M  V30 36 1 3 33
M  V30 37 1 4 34
M  V30 38 1 4 35
M  V30 39 1 5 36
M  V30 40 1 9 37
M  V30 41 1 10 38
M  V30 42 1 13 39
M  V30 43 1 17 40
M  V30 44 1 18 41
M  V30 45 1 20 42
M  V30 46 1 22 43
M  V30 47 1 23 44
M  V30 48 1 26 45
M  V30 49 1 29 46
M  V30 50 1 31 47
M  V30 51 1 31 48
M  V30 52 1 32 49
M  V30 53 1 32 50
M  V30 END BOND
M  V30 END CTAB
M  END
>  <Dataset>  (236) 
ChEMBL_Kinases

>  <Ligand_Instance>  (236) 
nan

>  <PDB_ID>  (236) 
nan

>  <Standardized_SMILES>  (236) 
O=C(O)CNC(=O)c1ccc2c(c1)C(=O)c1ccc(Nc3ccc(F)cc3F)cc1CC2

>  <Name>  (236) 
nan

>  <Pocket>  (236) 
nan

>  <ATP_Site>  (236) 
nan

>  <Peripheral>  (236) 
nan

>  <Num_H_Atoms_ProtBoundConf>  (236) 
nan

>  <Num_Resolved_Atoms>  (236) 
nan

>  <Num_Not_Resolved_Atoms>  (236) 
nan

$$$$
CHEMBL3753527
     RDKit          3D

  0  0  0  0  0  0  0  0  0  0999 V3000
M  V30 BEGIN CTAB
M  V30 COUNTS 42 45 0 0 0
M  V30 BEGIN ATOM
M  V30 1 C 5.134538 -5.216346 2.285870 0
M  V30 2 O 3.732422 -5.330692 2.259429 0
M  V30 3 C 2.868482 -4.348352 1.810476 0
M  V30 4 C 3.301199 -3.128456 1.332475 0
M  V30 5 C 2.409317 -2.171861 0.892892 0
M  V30 6 C 1.041270 -2.425848 0.925195 0
M  V30 7 C 0.138569 -1.376878 0.445369 0
M  V30 8 C 0.579054 -0.083837 0.651055 0
M  V30 9 N -0.216928 0.906469 0.226239 0
M  V30 10 C -1.395861 0.756555 -0.377359 0
M  V30 11 C -2.295510 1.701602 -0.855738 0
M  V30 12 N -2.270643 3.108351 -0.866768 0
M  V30 13 C -1.283133 3.997555 -0.374460 0
M  V30 14 O -0.259044 3.515701 0.159867 0
M  V30 15 C -1.327849 5.481468 -0.422252 0
M  V30 16 C -0.079709 6.246755 -0.478021 0
M  V30 17 C -0.790181 6.198284 0.840995 0
M  V30 18 S -3.670881 0.879782 -1.550015 0
M  V30 19 N -3.035395 -0.833178 -1.194867 0
M  V30 20 C -1.849694 -0.518614 -0.589983 0
M  V30 21 C -1.077478 -1.585827 -0.175949 0
M  V30 22 C 0.636704 -3.648498 1.405862 0
M  V30 23 C 1.509657 -4.617900 1.849663 0
M  V30 24 O 1.081077 -5.833493 2.326020 0
M  V30 25 C -0.307233 -6.108993 2.364514 0
M  V30 26 H 5.487782 -5.805920 3.170412 0
M  V30 27 H 5.520592 -4.195713 2.339778 0
M  V30 28 H 5.504502 -5.783425 1.387998 0
M  V30 29 H 4.352684 -2.896545 1.292924 0
M  V30 30 H 2.801623 -1.225497 0.524548 0
M  V30 31 H 1.497701 0.259133 1.118094 0
M  V30 32 H -3.047731 3.684054 -1.275469 0
M  V30 33 H -2.221454 5.945914 -0.886648 0
M  V30 34 H -0.094210 7.257601 -0.961989 0
M  V30 35 H 0.923025 5.775359 -0.595121 0
M  V30 36 H -1.381218 7.074118 1.179900 0
M  V30 37 H -0.306261 5.551933 1.599395 0
M  V30 38 H -1.271234 -2.638680 -0.257929 0
M  V30 39 H -0.425227 -3.819330 1.419959 0
M  V30 40 H -0.889600 -5.346504 2.918273 0
M  V30 41 H -0.718668 -6.096862 1.324938 0
M  V30 42 H -0.440163 -7.095932 2.842141 0
M  V30 END ATOM
M  V30 BEGIN BOND
M  V30 1 1 1 2
M  V30 2 1 2 3
M  V30 3 2 3 4
M  V30 4 1 4 5
M  V30 5 2 5 6
M  V30 6 1 6 7
M  V30 7 1 7 8
M  V30 8 2 8 9
M  V30 9 1 9 10
M  V30 10 2 10 11
M  V30 11 1 11 12
M  V30 12 1 12 13
M  V30 13 2 13 14
M  V30 14 1 13 15
M  V30 15 1 15 16
M  V30 16 1 16 17
M  V30 17 1 11 18
M  V30 18 1 18 19
M  V30 19 2 19 20
M  V30 20 1 20 21
M  V30 21 1 6 22
M  V30 22 2 22 23
M  V30 23 1 23 24
M  V30 24 1 24 25
M  V30 25 1 23 3
M  V30 26 2 21 7
M  V30 27 1 20 10
M  V30 28 1 17 15
M  V30 29 1 1 26
M  V30 30 1 1 27
M  V30 31 1 1 28
M  V30 32 1 4 29
M  V30 33 1 5 30
M  V30 34 1 8 31
M  V30 35 1 12 32
M  V30 36 1 15 33
M  V30 37 1 16 34
M  V30 38 1 16 35
M  V30 39 1 17 36
M  V30 40 1 17 37
M  V30 41 1 21 38
M  V30 42 1 22 39
M  V30 43 1 25 40
M  V30 44 1 25 41
M  V30 45 1 25 42
M  V30 END BOND
M  V30 END CTAB
M  END
>  <Dataset>  (237) 
ChEMBL_Kinases

>  <Ligand_Instance>  (237) 
nan

>  <PDB_ID>  (237) 
nan

>  <Standardized_SMILES>  (237) 
COc1ccc(-c2cnc3c(NC(=O)C4CC4)snc3c2)cc1OC

>  <Name>  (237) 
nan

>  <Pocket>  (237) 
nan

>  <ATP_Site>  (237) 
nan

>  <Peripheral>  (237) 
nan

>  <Num_H_Atoms_ProtBoundConf>  (237) 
nan

>  <Num_Resolved_Atoms>  (237) 
nan

>  <Num_Not_Resolved_Atoms>  (237) 
nan

$$$$
CHEMBL587965
     RDKit          3D

  0  0  0  0  0  0  0  0  0  0999 V3000
M  V30 BEGIN CTAB
M  V30 COUNTS 53 55 0 0 0
M  V30 BEGIN ATOM
M  V30 1 C -0.054291 -0.540874 4.698659 0
M  V30 2 N 1.309686 -0.218177 4.315318 0
M  V30 3 C 1.767845 0.231859 3.067694 0
M  V30 4 O 0.744606 0.296365 2.351564 0
M  V30 5 C 3.169456 0.510922 2.846984 0
M  V30 6 C 4.067705 0.375550 3.875341 0
M  V30 7 C 5.377963 0.675026 3.573607 0
M  V30 8 C 5.859013 1.097129 2.333873 0
M  V30 9 C 4.886192 1.212608 1.332868 0
M  V30 10 C 3.535879 0.918314 1.589774 0
M  V30 11 N 2.801124 1.108380 0.426276 0
M  V30 12 C 1.974004 0.569703 -0.554615 0
M  V30 13 N 0.639297 0.609937 -0.672289 0
M  V30 14 C -0.074709 0.043137 -1.648771 0
M  V30 15 N -1.484433 0.220429 -1.562328 0
M  V30 16 C -2.148198 -0.766366 -0.744129 0
M  V30 17 C -1.391550 -1.752563 -0.097589 0
M  V30 18 C -1.981931 -2.731254 0.707847 0
M  V30 19 C -3.344403 -2.719917 0.866148 0
M  V30 20 C -4.059130 -1.728377 0.210641 0
M  V30 21 C -5.529115 -1.756249 0.415616 0
M  V30 22 S -6.364401 -2.775384 -0.771765 0
M  V30 23 C -6.114665 -2.239973 -2.434784 0
M  V30 24 O -5.886206 -4.205633 -0.657693 0
M  V30 25 O -7.824623 -2.730967 -0.470898 0
M  V30 26 C -3.527803 -0.751862 -0.586366 0
M  V30 27 N 0.597047 -0.627365 -2.600365 0
M  V30 28 C 1.933791 -0.746991 -2.606141 0
M  V30 29 C 2.644090 -0.137363 -1.563219 0
M  V30 30 C 4.129981 -0.259636 -1.557874 0
M  V30 31 H -0.108339 -1.581707 5.051014 0
M  V30 32 H -0.717484 -0.442852 3.826225 0
M  V30 33 H -0.364569 0.127402 5.529240 0
M  V30 34 H 1.906479 -0.392713 5.177684 0
M  V30 35 H 3.825025 0.061073 4.874667 0
M  V30 36 H 6.105932 0.572633 4.376619 0
M  V30 37 H 6.906231 1.307975 2.197331 0
M  V30 38 H 5.334787 1.544200 0.402431 0
M  V30 39 H 2.792286 2.081479 -0.007831 0
M  V30 40 H -2.066046 0.944936 -1.999366 0
M  V30 41 H -0.319433 -1.804314 -0.189356 0
M  V30 42 H -1.353689 -3.476264 1.189308 0
M  V30 43 H -3.828253 -3.459269 1.480546 0
M  V30 44 H -5.960984 -0.730132 0.350276 0
M  V30 45 H -5.761525 -2.165454 1.419083 0
M  V30 46 H -6.608785 -2.986385 -3.088617 0
M  V30 47 H -6.609668 -1.255351 -2.615755 0
M  V30 48 H -5.040765 -2.205476 -2.720859 0
M  V30 49 H -4.131950 -0.005735 -1.071612 0
M  V30 50 H 2.390945 -1.298683 -3.402810 0
M  V30 51 H 4.632056 0.697112 -1.712944 0
M  V30 52 H 4.429013 -0.893369 -2.417281 0
M  V30 53 H 4.482582 -0.833495 -0.663775 0
M  V30 END ATOM
M  V30 BEGIN BOND
M  V30 1 1 1 2
M  V30 2 1 2 3
M  V30 3 2 3 4
M  V30 4 1 3 5
M  V30 5 2 5 6
M  V30 6 1 6 7
M  V30 7 2 7 8
M  V30 8 1 8 9
M  V30 9 2 9 10
M  V30 10 1 10 11
M  V30 11 1 11 12
M  V30 12 2 12 13
M  V30 13 1 13 14
M  V30 14 1 14 15
M  V30 15 1 15 16
M  V30 16 2 16 17
M  V30 17 1 17 18
M  V30 18 2 18 19
M  V30 19 1 19 20
M  V30 20 1 20 21
M  V30 21 1 21 22
M  V30 22 1 22 23
M  V30 23 2 22 24
M  V30 24 2 22 25
M  V30 25 2 20 26
M  V30 26 2 14 27
M  V30 27 1 27 28
M  V30 28 2 28 29
M  V30 29 1 29 30
M  V30 30 1 10 5
M  V30 31 1 29 12
M  V30 32 1 26 16
M  V30 33 1 1 31
M  V30 34 1 1 32
M  V30 35 1 1 33
M  V30 36 1 2 34
M  V30 37 1 6 35
M  V30 38 1 7 36
M  V30 39 1 8 37
M  V30 40 1 9 38
M  V30 41 1 11 39
M  V30 42 1 15 40
M  V30 43 1 17 41
M  V30 44 1 18 42
M  V30 45 1 19 43
M  V30 46 1 21 44
M  V30 47 1 21 45
M  V30 48 1 23 46
M  V30 49 1 23 47
M  V30 50 1 23 48
M  V30 51 1 26 49
M  V30 52 1 28 50
M  V30 53 1 30 51
M  V30 54 1 30 52
M  V30 55 1 30 53
M  V30 END BOND
M  V30 END CTAB
M  END
>  <Dataset>  (238) 
ChEMBL_Kinases

>  <Ligand_Instance>  (238) 
nan

>  <PDB_ID>  (238) 
nan

>  <Standardized_SMILES>  (238) 
CNC(=O)c1ccccc1Nc1nc(Nc2cccc(CS(C)(=O)=O)c2)ncc1C

>  <Name>  (238) 
nan

>  <Pocket>  (238) 
nan

>  <ATP_Site>  (238) 
nan

>  <Peripheral>  (238) 
nan

>  <Num_H_Atoms_ProtBoundConf>  (238) 
nan

>  <Num_Resolved_Atoms>  (238) 
nan

>  <Num_Not_Resolved_Atoms>  (238) 
nan

$$$$
CHEMBL375350
     RDKit          3D

  0  0  0  0  0  0  0  0  0  0999 V3000
M  V30 BEGIN CTAB
M  V30 COUNTS 38 41 0 0 0
M  V30 BEGIN ATOM
M  V30 1 O -2.264905 -3.504682 1.836282 0
M  V30 2 C -1.251141 -3.118870 1.201557 0
M  V30 3 C -0.426783 -4.140369 0.510168 0
M  V30 4 C -0.888174 -5.407762 0.824517 0
M  V30 5 C -0.257258 -6.515626 0.282511 0
M  V30 6 C 0.819035 -6.263659 -0.557541 0
M  V30 7 C 1.301155 -5.006659 -0.888664 0
M  V30 8 C 0.661532 -3.906453 -0.340090 0
M  V30 9 C 1.302910 -2.666935 -0.797809 0
M  V30 10 O 1.167342 -1.563285 0.059463 0
M  V30 11 C 0.094806 -0.964110 0.701776 0
M  V30 12 C 0.203187 0.414600 0.788530 0
M  V30 13 C -0.840990 1.056034 1.420063 0
M  V30 14 N -0.811813 2.469968 1.556485 0
M  V30 15 C 0.118391 3.475380 1.229712 0
M  V30 16 C -0.059031 4.540488 0.372050 0
M  V30 17 C 0.928976 5.471967 0.129343 0
M  V30 18 C 2.171254 5.358192 0.763912 0
M  V30 19 Cl 3.403546 6.563450 0.429325 0
M  V30 20 C 2.347891 4.305946 1.611924 0
M  V30 21 C 1.362885 3.368485 1.860399 0
M  V30 22 Cl 1.850835 2.123220 2.993543 0
M  V30 23 C -1.950540 0.435749 1.953822 0
M  V30 24 C -1.976552 -0.954215 1.821368 0
M  V30 25 C -0.977373 -1.680286 1.205292 0
M  V30 26 H -1.743424 -5.513321 1.495784 0
M  V30 27 H -0.579670 -7.513836 0.497713 0
M  V30 28 H 1.347220 -7.102112 -1.007785 0
M  V30 29 H 2.141323 -4.898686 -1.547908 0
M  V30 30 H 2.396947 -2.832857 -0.910224 0
M  V30 31 H 0.918272 -2.453279 -1.828336 0
M  V30 32 H 1.066146 0.916440 0.373519 0
M  V30 33 H -1.572589 3.047709 1.972202 0
M  V30 34 H -1.040204 4.594712 -0.103102 0
M  V30 35 H 0.744109 6.291957 -0.552387 0
M  V30 36 H 3.342949 4.294437 2.061980 0
M  V30 37 H -2.749201 0.972147 2.441625 0
M  V30 38 H -2.826344 -1.515010 2.221159 0
M  V30 END ATOM
M  V30 BEGIN BOND
M  V30 1 2 1 2
M  V30 2 1 2 3
M  V30 3 2 3 4
M  V30 4 1 4 5
M  V30 5 2 5 6
M  V30 6 1 6 7
M  V30 7 2 7 8
M  V30 8 1 8 9
M  V30 9 1 9 10
M  V30 10 1 10 11
M  V30 11 2 11 12
M  V30 12 1 12 13
M  V30 13 1 13 14
M  V30 14 1 14 15
M  V30 15 2 15 16
M  V30 16 1 16 17
M  V30 17 2 17 18
M  V30 18 1 18 19
M  V30 19 1 18 20
M  V30 20 2 20 21
M  V30 21 1 21 22
M  V30 22 2 13 23
M  V30 23 1 23 24
M  V30 24 2 24 25
M  V30 25 1 25 2
M  V30 26 1 8 3
M  V30 27 1 25 11
M  V30 28 1 21 15
M  V30 29 1 4 26
M  V30 30 1 5 27
M  V30 31 1 6 28
M  V30 32 1 7 29
M  V30 33 1 9 30
M  V30 34 1 9 31
M  V30 35 1 12 32
M  V30 36 1 14 33
M  V30 37 1 16 34
M  V30 38 1 17 35
M  V30 39 1 20 36
M  V30 40 1 23 37
M  V30 41 1 24 38
M  V30 END BOND
M  V30 END CTAB
M  END
>  <Dataset>  (239) 
ChEMBL_Kinases

>  <Ligand_Instance>  (239) 
nan

>  <PDB_ID>  (239) 
nan

>  <Standardized_SMILES>  (239) 
O=C1c2ccccc2COc2cc(Nc3ccc(Cl)cc3Cl)ccc21

>  <Name>  (239) 
nan

>  <Pocket>  (239) 
nan

>  <ATP_Site>  (239) 
nan

>  <Peripheral>  (239) 
nan

>  <Num_H_Atoms_ProtBoundConf>  (239) 
nan

>  <Num_Resolved_Atoms>  (239) 
nan

>  <Num_Not_Resolved_Atoms>  (239) 
nan

$$$$
CHEMBL3753482
     RDKit          3D

  0  0  0  0  0  0  0  0  0  0999 V3000
M  V30 BEGIN CTAB
M  V30 COUNTS 22 23 0 0 0
M  V30 BEGIN ATOM
M  V30 1 N 1.555414 -3.196539 3.101900 0
M  V30 2 C 1.050024 -2.987919 2.084534 0
M  V30 3 C 0.397107 -2.744820 0.796197 0
M  V30 4 C -0.686903 -1.719806 1.031125 0
M  V30 5 N -0.183463 -0.459630 1.543214 0
M  V30 6 C -0.011749 -0.110974 2.853333 0
M  V30 7 N 0.479187 1.136113 2.972951 0
M  V30 8 C 0.640357 1.633991 1.732317 0
M  V30 9 C 1.105786 2.856023 1.291724 0
M  V30 10 Br 1.649814 4.156316 2.595791 0
M  V30 11 C 1.157478 3.082880 -0.051297 0
M  V30 12 Br 1.798814 4.766378 -0.656113 0
M  V30 13 C 0.762298 2.135131 -0.951305 0
M  V30 14 Br 0.856406 2.508578 -2.831668 0
M  V30 15 C 0.300332 0.918263 -0.458501 0
M  V30 16 Br -0.240098 -0.365368 -1.750332 0
M  V30 17 C 0.227368 0.636828 0.881669 0
M  V30 18 H -0.130120 -3.679724 0.513989 0
M  V30 19 H 1.109564 -2.512068 0.015040 0
M  V30 20 H -1.419802 -1.631006 0.226306 0
M  V30 21 H -1.286695 -2.165971 1.883264 0
M  V30 22 H -0.244593 -0.764258 3.692118 0
M  V30 END ATOM
M  V30 BEGIN BOND
M  V30 1 3 1 2
M  V30 2 1 2 3
M  V30 3 1 3 4
M  V30 4 1 4 5
M  V30 5 1 5 6
M  V30 6 2 6 7
M  V30 7 1 7 8
M  V30 8 2 8 9
M  V30 9 1 9 10
M  V30 10 1 9 11
M  V30 11 1 11 12
M  V30 12 2 11 13
M  V30 13 1 13 14
M  V30 14 1 13 15
M  V30 15 1 15 16
M  V30 16 2 15 17
M  V30 17 1 17 5
M  V30 18 1 17 8
M  V30 19 1 3 18
M  V30 20 1 3 19
M  V30 21 1 4 20
M  V30 22 1 4 21
M  V30 23 1 6 22
M  V30 END BOND
M  V30 END CTAB
M  END
>  <Dataset>  (240) 
ChEMBL_Kinases

>  <Ligand_Instance>  (240) 
nan

>  <PDB_ID>  (240) 
nan

>  <Standardized_SMILES>  (240) 
N#CCCn1cnc2c(Br)c(Br)c(Br)c(Br)c21

>  <Name>  (240) 
nan

>  <Pocket>  (240) 
nan

>  <ATP_Site>  (240) 
nan

>  <Peripheral>  (240) 
nan

>  <Num_H_Atoms_ProtBoundConf>  (240) 
nan

>  <Num_Resolved_Atoms>  (240) 
nan

>  <Num_Not_Resolved_Atoms>  (240) 
nan

$$$$
CHEMBL3753424
     RDKit          3D

  0  0  0  0  0  0  0  0  0  0999 V3000
M  V30 BEGIN CTAB
M  V30 COUNTS 37 39 0 0 0
M  V30 BEGIN ATOM
M  V30 1 N 1.982827 -4.963834 4.958723 0
M  V30 2 C 2.651274 -4.944749 3.710312 0
M  V30 3 O 3.447482 -5.890443 3.522219 0
M  V30 4 C 2.326553 -3.822987 2.799529 0
M  V30 5 C 1.416658 -2.843517 3.142645 0
M  V30 6 C 1.164959 -1.828693 2.243468 0
M  V30 7 C 1.805420 -1.777075 1.011714 0
M  V30 8 C 1.506357 -0.681425 0.084862 0
M  V30 9 C 2.471466 -0.194969 -0.793301 0
M  V30 10 N 2.122805 0.813150 -1.619061 0
M  V30 11 C 0.857299 1.330225 -1.583121 0
M  V30 12 N 0.614799 2.389109 -2.502642 0
M  V30 13 C -0.132296 0.869305 -0.719397 0
M  V30 14 C -1.461153 1.469242 -0.738311 0
M  V30 15 C -2.565724 0.608450 -0.714655 0
M  V30 16 C -3.828068 1.156192 -0.733002 0
M  V30 17 C -4.014535 2.523606 -0.773815 0
M  V30 18 Cl -5.681909 3.121026 -0.794445 0
M  V30 19 C -2.925026 3.370570 -0.797205 0
M  V30 20 C -1.628823 2.840487 -0.779165 0
M  V30 21 C 0.220990 -0.160689 0.125820 0
M  V30 22 C 2.724005 -2.750190 0.644403 0
M  V30 23 C 2.949133 -3.748818 1.570264 0
M  V30 24 H 1.326856 -4.880840 5.760647 0
M  V30 25 H 1.242537 -4.825426 5.678503 0
M  V30 26 H 0.914224 -2.875447 4.097671 0
M  V30 27 H 0.451701 -1.079892 2.539878 0
M  V30 28 H 3.458522 -0.649829 -0.771868 0
M  V30 29 H 0.066507 1.958514 -3.292758 0
M  V30 30 H 0.762284 3.402739 -2.699807 0
M  V30 31 H -2.463055 -0.451273 -0.683098 0
M  V30 32 H -4.681542 0.472473 -0.714277 0
M  V30 33 H -3.117267 4.427197 -0.828795 0
M  V30 34 H -0.772130 3.508137 -0.797317 0
M  V30 35 H -0.496109 -0.556174 0.811452 0
M  V30 36 H 3.241220 -2.740041 -0.309842 0
M  V30 37 H 3.639408 -4.550537 1.386744 0
M  V30 END ATOM
M  V30 BEGIN BOND
M  V30 1 1 1 2
M  V30 2 2 2 3
M  V30 3 1 2 4
M  V30 4 2 4 5
M  V30 5 1 5 6
M  V30 6 2 6 7
M  V30 7 1 7 8
M  V30 8 2 8 9
M  V30 9 1 9 10
M  V30 10 2 10 11
M  V30 11 1 11 12
M  V30 12 1 11 13
M  V30 13 1 13 14
M  V30 14 2 14 15
M  V30 15 1 15 16
M  V30 16 2 16 17
M  V30 17 1 17 18
M  V30 18 1 17 19
M  V30 19 2 19 20
M  V30 20 2 13 21
M  V30 21 1 7 22
M  V30 22 2 22 23
M  V30 23 1 23 4
M  V30 24 1 21 8
M  V30 25 1 20 14
M  V30 26 1 1 24
M  V30 27 1 1 25
M  V30 28 1 5 26
M  V30 29 1 6 27
M  V30 30 1 9 28
M  V30 31 1 12 29
M  V30 32 1 12 30
M  V30 33 1 15 31
M  V30 34 1 16 32
M  V30 35 1 19 33
M  V30 36 1 20 34
M  V30 37 1 21 35
M  V30 38 1 22 36
M  V30 39 1 23 37
M  V30 END BOND
M  V30 END CTAB
M  END
>  <Dataset>  (241) 
ChEMBL_Kinases

>  <Ligand_Instance>  (241) 
nan

>  <PDB_ID>  (241) 
nan

>  <Standardized_SMILES>  (241) 
NC(=O)c1ccc(-c2cnc(N)c(-c3ccc(Cl)cc3)c2)cc1

>  <Name>  (241) 
nan

>  <Pocket>  (241) 
nan

>  <ATP_Site>  (241) 
nan

>  <Peripheral>  (241) 
nan

>  <Num_H_Atoms_ProtBoundConf>  (241) 
nan

>  <Num_Resolved_Atoms>  (241) 
nan

>  <Num_Not_Resolved_Atoms>  (241) 
nan

$$$$
CHEMBL3752961
     RDKit          3D

  0  0  0  0  0  0  0  0  0  0999 V3000
M  V30 BEGIN CTAB
M  V30 COUNTS 43 45 0 0 0
M  V30 BEGIN ATOM
M  V30 1 O 0.546605 -2.298275 0.602094 0
M  V30 2 C -0.524067 -2.910392 0.810046 0
M  V30 3 N -0.568629 -4.317455 0.579081 0
M  V30 4 C 0.583204 -5.031794 0.117278 0
M  V30 5 C 0.642744 -5.078994 -1.262224 0
M  V30 6 C 1.674571 -5.720795 -1.923853 0
M  V30 7 C 2.649505 -6.316383 -1.120759 0
M  V30 8 Br 4.098952 -7.217521 -1.995975 0
M  V30 9 C 2.608571 -6.280708 0.253108 0
M  V30 10 C 1.557286 -5.627042 0.895946 0
M  V30 11 N -1.612033 -2.145824 1.261844 0
M  V30 12 C -1.458863 -0.741522 1.460471 0
M  V30 13 C -1.735815 0.068681 0.376759 0
M  V30 14 C -1.600537 1.433804 0.525191 0
M  V30 15 C -1.204476 2.064365 1.687895 0
M  V30 16 C -1.066351 3.530476 1.823414 0
M  V30 17 N 0.211858 4.058745 1.509296 0
M  V30 18 C 0.694023 3.840320 0.182235 0
M  V30 19 C 1.779011 2.786927 0.270542 0
M  V30 20 C 2.147275 2.713658 1.735591 0
M  V30 21 C 1.261124 3.723172 2.429730 0
M  V30 22 C -0.941670 1.188278 2.739497 0
M  V30 23 C -1.056501 -0.186238 2.660173 0
M  V30 24 H -1.483785 -4.779400 0.767428 0
M  V30 25 H -0.082700 -4.636447 -1.942309 0
M  V30 26 H 1.761514 -5.782616 -3.000418 0
M  V30 27 H 3.348702 -6.732655 0.888340 0
M  V30 28 H 1.411877 -5.529234 1.960925 0
M  V30 29 H -2.525732 -2.616615 1.448255 0
M  V30 30 H -2.052686 -0.362974 -0.569214 0
M  V30 31 H -1.827776 2.029906 -0.348153 0
M  V30 32 H -1.793999 3.993788 1.111969 0
M  V30 33 H -1.324772 3.836176 2.846639 0
M  V30 34 H 1.233446 4.781131 -0.134915 0
M  V30 35 H -0.069704 3.645989 -0.568311 0
M  V30 36 H 1.438838 1.787633 -0.080161 0
M  V30 37 H 2.687473 3.037539 -0.314313 0
M  V30 38 H 3.212414 3.004882 1.885160 0
M  V30 39 H 2.037278 1.681215 2.130681 0
M  V30 40 H 0.952250 3.342680 3.399961 0
M  V30 41 H 1.841546 4.650764 2.615544 0
M  V30 42 H -0.628477 1.560866 3.686632 0
M  V30 43 H -0.846528 -0.827493 3.487670 0
M  V30 END ATOM
M  V30 BEGIN BOND
M  V30 1 2 1 2
M  V30 2 1 2 3
M  V30 3 1 3 4
M  V30 4 2 4 5
M  V30 5 1 5 6
M  V30 6 2 6 7
M  V30 7 1 7 8
M  V30 8 1 7 9
M  V30 9 2 9 10
M  V30 10 1 2 11
M  V30 11 1 11 12
M  V30 12 2 12 13
M  V30 13 1 13 14
M  V30 14 2 14 15
M  V30 15 1 15 16
M  V30 16 1 16 17
M  V30 17 1 17 18
M  V30 18 1 18 19
M  V30 19 1 19 20
M  V30 20 1 20 21
M  V30 21 1 15 22
M  V30 22 2 22 23
M  V30 23 1 10 4
M  V30 24 1 23 12
M  V30 25 1 21 17
M  V30 26 1 3 24
M  V30 27 1 5 25
M  V30 28 1 6 26
M  V30 29 1 9 27
M  V30 30 1 10 28
M  V30 31 1 11 29
M  V30 32 1 13 30
M  V30 33 1 14 31
M  V30 34 1 16 32
M  V30 35 1 16 33
M  V30 36 1 18 34
M  V30 37 1 18 35
M  V30 38 1 19 36
M  V30 39 1 19 37
M  V30 40 1 20 38
M  V30 41 1 20 39
M  V30 42 1 21 40
M  V30 43 1 21 41
M  V30 44 1 22 42
M  V30 45 1 23 43
M  V30 END BOND
M  V30 END CTAB
M  END
>  <Dataset>  (242) 
ChEMBL_Kinases

>  <Ligand_Instance>  (242) 
nan

>  <PDB_ID>  (242) 
nan

>  <Standardized_SMILES>  (242) 
O=C(Nc1ccc(Br)cc1)Nc1ccc(CN2CCCC2)cc1

>  <Name>  (242) 
nan

>  <Pocket>  (242) 
nan

>  <ATP_Site>  (242) 
nan

>  <Peripheral>  (242) 
nan

>  <Num_H_Atoms_ProtBoundConf>  (242) 
nan

>  <Num_Resolved_Atoms>  (242) 
nan

>  <Num_Not_Resolved_Atoms>  (242) 
nan

$$$$
CHEMBL5086273
     RDKit          3D

  0  0  0  0  0  0  0  0  0  0999 V3000
M  V30 BEGIN CTAB
M  V30 COUNTS 43 45 0 0 0
M  V30 BEGIN ATOM
M  V30 1 C -1.726098 -5.208741 -2.163186 0
M  V30 2 C -1.909649 -4.882461 -0.709299 0
M  V30 3 C -0.535811 -4.815603 -0.091644 0
M  V30 4 C 0.251751 -5.910829 0.242608 0
M  V30 5 Cl -0.203815 -7.606692 0.013163 0
M  V30 6 N 1.407210 -5.416002 0.764854 0
M  V30 7 C 1.348432 -4.062473 0.759209 0
M  V30 8 N 2.255648 -3.146373 1.175136 0
M  V30 9 C 2.012075 -1.820115 1.084089 0
M  V30 10 C 0.789208 -1.399762 0.545285 0
M  V30 11 C 0.383465 0.004231 0.373653 0
M  V30 12 C -0.442268 0.410083 -0.643724 0
M  V30 13 C -0.791100 1.727705 -0.764424 0
M  V30 14 C -0.310546 2.672230 0.145748 0
M  V30 15 N -0.762186 3.988821 -0.112836 0
M  V30 16 C 0.530276 2.303040 1.194092 0
M  V30 17 C 0.973103 3.370879 2.075014 0
M  V30 18 O 0.542243 4.528197 1.727066 0
M  V30 19 N 1.789140 3.334202 3.233211 0
M  V30 20 C 2.428166 2.211339 3.894818 0
M  V30 21 C 2.038546 4.638427 3.877109 0
M  V30 22 C 0.823328 0.980365 1.237349 0
M  V30 23 C -0.156292 -2.306581 0.112881 0
M  V30 24 C 0.136025 -3.650188 0.225254 0
M  V30 25 H -2.300826 -6.121907 -2.411350 0
M  V30 26 H -2.144933 -4.400406 -2.788376 0
M  V30 27 H -0.654734 -5.380659 -2.427429 0
M  V30 28 H -2.555155 -5.617302 -0.186317 0
M  V30 29 H -2.376283 -3.881756 -0.630351 0
M  V30 30 H 2.168272 -6.067439 1.093475 0
M  V30 31 H 2.689163 -1.039589 1.395226 0
M  V30 32 H -0.813505 -0.317507 -1.346944 0
M  V30 33 H -1.439482 1.986203 -1.579458 0
M  V30 34 H -1.614642 4.539195 0.105125 0
M  V30 35 H -0.196494 4.690211 -0.646819 0
M  V30 36 H 2.926819 2.588294 4.837079 0
M  V30 37 H 3.145817 1.707311 3.246732 0
M  V30 38 H 1.617867 1.484830 4.199706 0
M  V30 39 H 2.200540 4.520548 4.948418 0
M  V30 40 H 1.151868 5.317387 3.748087 0
M  V30 41 H 2.949123 5.084639 3.426692 0
M  V30 42 H 1.467326 0.633303 2.020811 0
M  V30 43 H -1.116626 -2.048433 -0.310942 0
M  V30 END ATOM
M  V30 BEGIN BOND
M  V30 1 1 1 2
M  V30 2 1 2 3
M  V30 3 2 3 4
M  V30 4 1 4 5
M  V30 5 1 4 6
M  V30 6 1 6 7
M  V30 7 2 7 8
M  V30 8 1 8 9
M  V30 9 2 9 10
M  V30 10 1 10 11
M  V30 11 2 11 12
M  V30 12 1 12 13
M  V30 13 2 13 14
M  V30 14 1 14 15
M  V30 15 1 14 16
M  V30 16 1 16 17
M  V30 17 2 17 18
M  V30 18 1 17 19
M  V30 19 1 19 20
M  V30 20 1 19 21
M  V30 21 2 16 22
M  V30 22 1 10 23
M  V30 23 2 23 24
M  V30 24 1 24 3
M  V30 25 1 24 7
M  V30 26 1 22 11
M  V30 27 1 1 25
M  V30 28 1 1 26
M  V30 29 1 1 27
M  V30 30 1 2 28
M  V30 31 1 2 29
M  V30 32 1 6 30
M  V30 33 1 9 31
M  V30 34 1 12 32
M  V30 35 1 13 33
M  V30 36 1 15 34
M  V30 37 1 15 35
M  V30 38 1 20 36
M  V30 39 1 20 37
M  V30 40 1 20 38
M  V30 41 1 21 39
M  V30 42 1 21 40
M  V30 43 1 21 41
M  V30 44 1 22 42
M  V30 45 1 23 43
M  V30 END BOND
M  V30 END CTAB
M  END
>  <Dataset>  (243) 
ChEMBL_Kinases

>  <Ligand_Instance>  (243) 
nan

>  <PDB_ID>  (243) 
nan

>  <Standardized_SMILES>  (243) 
CCc1c(Cl)[nH]c2ncc(-c3ccc(N)c(C(=O)N(C)C)c3)cc12

>  <Name>  (243) 
nan

>  <Pocket>  (243) 
nan

>  <ATP_Site>  (243) 
nan

>  <Peripheral>  (243) 
nan

>  <Num_H_Atoms_ProtBoundConf>  (243) 
nan

>  <Num_Resolved_Atoms>  (243) 
nan

>  <Num_Not_Resolved_Atoms>  (243) 
nan

$$$$
CHEMBL3753335
     RDKit          3D

  0  0  0  0  0  0  0  0  0  0999 V3000
M  V30 BEGIN CTAB
M  V30 COUNTS 49 52 0 0 0
M  V30 BEGIN ATOM
M  V30 1 C -0.658531 -7.690092 3.545635 0
M  V30 2 O -1.577522 -7.106057 2.616244 0
M  V30 3 C -1.393550 -5.850684 2.094741 0
M  V30 4 C -0.268374 -5.148229 2.501888 0
M  V30 5 C -0.109639 -3.887990 1.960511 0
M  V30 6 C -1.041597 -3.367522 1.054766 0
M  V30 7 C -0.759439 -2.020995 0.552104 0
M  V30 8 C -0.107842 -1.131990 1.380314 0
M  V30 9 N 0.143871 0.098671 0.904447 0
M  V30 10 C -0.186949 0.538893 -0.315674 0
M  V30 11 C 0.045613 1.755840 -0.826502 0
M  V30 12 N 0.684025 2.869959 -0.234170 0
M  V30 13 C 0.866594 4.133035 -0.910167 0
M  V30 14 C 2.304989 4.504463 -1.080520 0
M  V30 15 C 3.079395 4.552714 0.205823 0
M  V30 16 C 2.857854 5.822829 0.998095 0
M  V30 17 C 2.751051 3.337225 1.004150 0
M  V30 18 C 1.265916 3.050221 1.051756 0
M  V30 19 S -0.573916 1.817831 -2.427094 0
M  V30 20 N -1.210703 0.054205 -2.434552 0
M  V30 21 C -0.836334 -0.339270 -1.148076 0
M  V30 22 C -1.121196 -1.615586 -0.713975 0
M  V30 23 C -2.142427 -4.124475 0.692367 0
M  V30 24 C -2.334482 -5.374665 1.205748 0
M  V30 25 O -3.436960 -6.149431 0.851305 0
M  V30 26 C -4.359585 -5.587685 -0.069207 0
M  V30 27 H -0.933711 -8.748787 3.718390 0
M  V30 28 H 0.387547 -7.666046 3.174251 0
M  V30 29 H -0.668629 -7.119878 4.507544 0
M  V30 30 H 0.436805 -5.574053 3.203878 0
M  V30 31 H 0.787441 -3.349449 2.296146 0
M  V30 32 H 0.205854 -1.396639 2.400701 0
M  V30 33 H 0.410131 4.121496 -1.920531 0
M  V30 34 H 0.343094 4.969153 -0.378171 0
M  V30 35 H 2.332021 5.492707 -1.575846 0
M  V30 36 H 2.767214 3.696983 -1.702899 0
M  V30 37 H 4.156692 4.474305 -0.080607 0
M  V30 38 H 2.967099 6.706975 0.346241 0
M  V30 39 H 3.639837 5.800902 1.812354 0
M  V30 40 H 1.884511 5.862605 1.482679 0
M  V30 41 H 3.117264 3.385496 2.044775 0
M  V30 42 H 3.207965 2.461534 0.495606 0
M  V30 43 H 0.701947 3.819383 1.650582 0
M  V30 44 H 1.189520 2.127231 1.696745 0
M  V30 45 H -1.624453 -2.377464 -1.286395 0
M  V30 46 H -2.839688 -3.683770 -0.011652 0
M  V30 47 H -4.842695 -4.669922 0.338846 0
M  V30 48 H -5.084968 -6.344236 -0.436708 0
M  V30 49 H -3.828157 -5.237191 -0.990287 0
M  V30 END ATOM
M  V30 BEGIN BOND
M  V30 1 1 1 2
M  V30 2 1 2 3
M  V30 3 2 3 4
M  V30 4 1 4 5
M  V30 5 2 5 6
M  V30 6 1 6 7
M  V30 7 1 7 8
M  V30 8 2 8 9
M  V30 9 1 9 10
M  V30 10 2 10 11
M  V30 11 1 11 12
M  V30 12 1 12 13
M  V30 13 1 13 14
M  V30 14 1 14 15
M  V30 15 1 15 16
M  V30 16 1 15 17
M  V30 17 1 17 18
M  V30 18 1 11 19
M  V30 19 1 19 20
M  V30 20 2 20 21
M  V30 21 1 21 22
M  V30 22 1 6 23
M  V30 23 2 23 24
M  V30 24 1 24 25
M  V30 25 1 25 26
M  V30 26 1 24 3
M  V30 27 2 22 7
M  V30 28 1 21 10
M  V30 29 1 18 12
M  V30 30 1 1 27
M  V30 31 1 1 28
M  V30 32 1 1 29
M  V30 33 1 4 30
M  V30 34 1 5 31
M  V30 35 1 8 32
M  V30 36 1 13 33
M  V30 37 1 13 34
M  V30 38 1 14 35
M  V30 39 1 14 36
M  V30 40 1 15 37
M  V30 41 1 16 38
M  V30 42 1 16 39
M  V30 43 1 16 40
M  V30 44 1 17 41
M  V30 45 1 17 42
M  V30 46 1 18 43
M  V30 47 1 18 44
M  V30 48 1 22 45
M  V30 49 1 23 46
M  V30 50 1 26 47
M  V30 51 1 26 48
M  V30 52 1 26 49
M  V30 END BOND
M  V30 END CTAB
M  END
>  <Dataset>  (244) 
ChEMBL_Kinases

>  <Ligand_Instance>  (244) 
nan

>  <PDB_ID>  (244) 
nan

>  <Standardized_SMILES>  (244) 
COc1ccc(-c2cnc3c(N4CCC(C)CC4)snc3c2)cc1OC

>  <Name>  (244) 
nan

>  <Pocket>  (244) 
nan

>  <ATP_Site>  (244) 
nan

>  <Peripheral>  (244) 
nan

>  <Num_H_Atoms_ProtBoundConf>  (244) 
nan

>  <Num_Resolved_Atoms>  (244) 
nan

>  <Num_Not_Resolved_Atoms>  (244) 
nan

$$$$
CHEMBL3753203
     RDKit          3D

  0  0  0  0  0  0  0  0  0  0999 V3000
M  V30 BEGIN CTAB
M  V30 COUNTS 46 47 0 0 0
M  V30 BEGIN ATOM
M  V30 1 C 0.464426 -6.376756 -1.113936 0
M  V30 2 C 0.333708 -6.002570 0.325700 0
M  V30 3 C 1.572236 -6.459011 1.039145 0
M  V30 4 C -0.855802 -6.698455 0.960854 0
M  V30 5 C 0.228606 -4.513317 0.510097 0
M  V30 6 C 1.313331 -3.680354 0.689893 0
M  V30 7 C 1.074700 -2.330754 0.847406 0
M  V30 8 C -0.178968 -1.759715 0.836785 0
M  V30 9 C -0.411398 -0.330573 1.004977 0
M  V30 10 C 0.509083 0.567210 1.182319 0
M  V30 11 C 0.188489 1.984905 1.343102 0
M  V30 12 O -1.005562 2.379853 1.313579 0
M  V30 13 N 1.161054 2.973660 1.535709 0
M  V30 14 C 0.546210 4.272429 1.661390 0
M  V30 15 C 0.187411 4.698759 2.940482 0
M  V30 16 C -0.402076 5.934718 3.095450 0
M  V30 17 C -0.649450 6.768468 2.015193 0
M  V30 18 C -0.280269 6.315464 0.751192 0
M  V30 19 C 0.310904 5.081738 0.574811 0
M  V30 20 C 0.694934 4.616549 -0.762055 0
M  V30 21 N 0.440809 5.477054 -1.886434 0
M  V30 22 O 1.232756 3.464455 -0.814548 0
M  V30 23 C -1.235077 -2.624774 0.654773 0
M  V30 24 C -1.051886 -4.002512 0.489931 0
M  V30 25 H -0.434554 -6.956881 -1.408711 0
M  V30 26 H 0.551125 -5.502129 -1.790807 0
M  V30 27 H 1.366132 -7.003148 -1.310444 0
M  V30 28 H 2.445198 -6.563758 0.349443 0
M  V30 29 H 1.812340 -5.805295 1.900798 0
M  V30 30 H 1.377428 -7.473999 1.477846 0
M  V30 31 H -0.645165 -7.730637 1.239447 0
M  V30 32 H -1.061008 -6.155474 1.913193 0
M  V30 33 H -1.775584 -6.574067 0.328778 0
M  V30 34 H 2.298914 -4.122173 0.699150 0
M  V30 35 H 1.947797 -1.718165 0.984703 0
M  V30 36 H -1.426198 0.040078 0.984449 0
M  V30 37 H 1.544561 0.260155 1.212431 0
M  V30 38 H 2.172219 2.714750 1.570434 0
M  V30 39 H 0.384081 4.042168 3.776680 0
M  V30 40 H -0.668235 6.232010 4.113227 0
M  V30 41 H -1.114274 7.720232 2.220347 0
M  V30 42 H -0.482268 6.985491 -0.091668 0
M  V30 43 H -0.577219 5.728380 -1.913212 0
M  V30 44 H 1.187436 5.793985 -2.569067 0
M  V30 45 H -2.231661 -2.172400 0.646116 0
M  V30 46 H -1.970940 -4.542063 0.358954 0
M  V30 END ATOM
M  V30 BEGIN BOND
M  V30 1 1 1 2
M  V30 2 1 2 3
M  V30 3 1 2 4
M  V30 4 1 2 5
M  V30 5 2 5 6
M  V30 6 1 6 7
M  V30 7 2 7 8
M  V30 8 1 8 9
M  V30 9 2 9 10
M  V30 10 1 10 11
M  V30 11 2 11 12
M  V30 12 1 11 13
M  V30 13 1 13 14
M  V30 14 2 14 15
M  V30 15 1 15 16
M  V30 16 2 16 17
M  V30 17 1 17 18
M  V30 18 2 18 19
M  V30 19 1 19 20
M  V30 20 1 20 21
M  V30 21 2 20 22
M  V30 22 1 8 23
M  V30 23 2 23 24
M  V30 24 1 24 5
M  V30 25 1 19 14
M  V30 26 1 1 25
M  V30 27 1 1 26
M  V30 28 1 1 27
M  V30 29 1 3 28
M  V30 30 1 3 29
M  V30 31 1 3 30
M  V30 32 1 4 31
M  V30 33 1 4 32
M  V30 34 1 4 33
M  V30 35 1 6 34
M  V30 36 1 7 35
M  V30 37 1 9 36
M  V30 38 1 10 37
M  V30 39 1 13 38
M  V30 40 1 15 39
M  V30 41 1 16 40
M  V30 42 1 17 41
M  V30 43 1 18 42
M  V30 44 1 21 43
M  V30 45 1 21 44
M  V30 46 1 23 45
M  V30 47 1 24 46
M  V30 END BOND
M  V30 END CTAB
M  END
>  <Dataset>  (245) 
ChEMBL_Kinases

>  <Ligand_Instance>  (245) 
nan

>  <PDB_ID>  (245) 
nan

>  <Standardized_SMILES>  (245) 
CC(C)(C)c1ccc(/C=C/C(=O)Nc2ccccc2C(N)=O)cc1

>  <Name>  (245) 
nan

>  <Pocket>  (245) 
nan

>  <ATP_Site>  (245) 
nan

>  <Peripheral>  (245) 
nan

>  <Num_H_Atoms_ProtBoundConf>  (245) 
nan

>  <Num_Resolved_Atoms>  (245) 
nan

>  <Num_Not_Resolved_Atoms>  (245) 
nan

$$$$
CHEMBL3753165
     RDKit          3D

  0  0  0  0  0  0  0  0  0  0999 V3000
M  V30 BEGIN CTAB
M  V30 COUNTS 28 29 0 0 0
M  V30 BEGIN ATOM
M  V30 1 C -1.211789 -0.652891 3.122019 0
M  V30 2 C -0.166799 -0.160919 2.187122 0
M  V30 3 N 0.954307 0.337788 2.691236 0
M  V30 4 C 1.729816 0.710440 1.656731 0
M  V30 5 C 2.984940 1.281556 1.606484 0
M  V30 6 Br 3.935948 1.680638 3.221164 0
M  V30 7 C 3.570353 1.572190 0.391126 0
M  V30 8 Br 5.305115 2.360310 0.380082 0
M  V30 9 C 2.863445 1.274622 -0.762972 0
M  V30 10 Br 3.698319 1.687825 -2.430333 0
M  V30 11 C 1.609919 0.703348 -0.670177 0
M  V30 12 Br 0.720450 0.334949 -2.288716 0
M  V30 13 C 0.998702 0.401227 0.528234 0
M  V30 14 N -0.191486 -0.145188 0.837262 0
M  V30 15 C -1.227425 -0.599405 -0.021085 0
M  V30 16 C -1.146501 -2.043203 -0.438059 0
M  V30 17 C -1.190591 -3.007417 0.727856 0
M  V30 18 C -1.104985 -4.387750 0.189686 0
M  V30 19 N -1.021361 -5.471469 -0.221160 0
M  V30 20 H -0.775820 -1.500711 3.723540 0
M  V30 21 H -2.132781 -0.946892 2.583213 0
M  V30 22 H -1.503222 0.170404 3.831683 0
M  V30 23 H -1.474157 0.020196 -0.889765 0
M  V30 24 H -2.184570 -0.555894 0.587212 0
M  V30 25 H -0.271649 -2.303822 -1.025934 0
M  V30 26 H -2.028501 -2.223932 -1.095784 0
M  V30 27 H -2.166604 -2.941750 1.250486 0
M  V30 28 H -0.367470 -2.847236 1.431459 0
M  V30 END ATOM
M  V30 BEGIN BOND
M  V30 1 1 1 2
M  V30 2 2 2 3
M  V30 3 1 3 4
M  V30 4 2 4 5
M  V30 5 1 5 6
M  V30 6 1 5 7
M  V30 7 1 7 8
M  V30 8 2 7 9
M  V30 9 1 9 10
M  V30 10 1 9 11
M  V30 11 1 11 12
M  V30 12 2 11 13
M  V30 13 1 13 14
M  V30 14 1 14 15
M  V30 15 1 15 16
M  V30 16 1 16 17
M  V30 17 1 17 18
M  V30 18 3 18 19
M  V30 19 1 14 2
M  V30 20 1 13 4
M  V30 21 1 1 20
M  V30 22 1 1 21
M  V30 23 1 1 22
M  V30 24 1 15 23
M  V30 25 1 15 24
M  V30 26 1 16 25
M  V30 27 1 16 26
M  V30 28 1 17 27
M  V30 29 1 17 28
M  V30 END BOND
M  V30 END CTAB
M  END
>  <Dataset>  (246) 
ChEMBL_Kinases

>  <Ligand_Instance>  (246) 
nan

>  <PDB_ID>  (246) 
nan

>  <Standardized_SMILES>  (246) 
Cc1nc2c(Br)c(Br)c(Br)c(Br)c2n1CCCC#N

>  <Name>  (246) 
nan

>  <Pocket>  (246) 
nan

>  <ATP_Site>  (246) 
nan

>  <Peripheral>  (246) 
nan

>  <Num_H_Atoms_ProtBoundConf>  (246) 
nan

>  <Num_Resolved_Atoms>  (246) 
nan

>  <Num_Not_Resolved_Atoms>  (246) 
nan

$$$$
CHEMBL3753160
     RDKit          3D

  0  0  0  0  0  0  0  0  0  0999 V3000
M  V30 BEGIN CTAB
M  V30 COUNTS 36 38 0 0 0
M  V30 BEGIN ATOM
M  V30 1 C 0.921448 -0.732284 2.118329 0
M  V30 2 N 0.674488 -1.136678 0.774215 0
M  V30 3 C 1.048485 -2.305825 0.238590 0
M  V30 4 C 1.763539 -3.457106 0.772211 0
M  V30 5 C 1.568009 -4.142974 1.950193 0
M  V30 6 C 2.349616 -5.217679 2.308768 0
M  V30 7 C 3.377649 -5.667490 1.500279 0
M  V30 8 Cl 4.335360 -7.042264 2.016621 0
M  V30 9 C 3.612682 -5.013176 0.309911 0
M  V30 10 C 2.813042 -3.937275 -0.025534 0
M  V30 11 C 0.618389 -2.288591 -1.094550 0
M  V30 12 N -0.003454 -1.096740 -1.305854 0
M  V30 13 C 0.037191 -0.392308 -0.143714 0
M  V30 14 C -0.556059 0.939356 -0.069192 0
M  V30 15 C -1.860449 1.136065 -0.526602 0
M  V30 16 C -2.533829 2.342364 -0.515043 0
M  V30 17 C -1.823069 3.414991 -0.001213 0
M  V30 18 C -2.462760 4.721133 0.041246 0
M  V30 19 N -3.766976 4.965507 -0.423865 0
M  V30 20 O -2.122573 5.864192 0.437674 0
M  V30 21 C -0.532123 3.281556 0.465397 0
M  V30 22 C 0.108861 2.047934 0.435145 0
M  V30 23 H 0.512110 -1.453047 2.856340 0
M  V30 24 H 2.026747 -0.695319 2.255174 0
M  V30 25 H 0.418639 0.233114 2.352307 0
M  V30 26 H 0.767883 -3.783250 2.555308 0
M  V30 27 H 2.089575 -5.657948 3.248590 0
M  V30 28 H 4.407593 -5.340374 -0.342159 0
M  V30 29 H 3.056023 -3.465567 -0.985100 0
M  V30 30 H 0.707661 -3.018167 -1.882662 0
M  V30 31 H -2.384805 0.263190 -0.923398 0
M  V30 32 H -3.544580 2.397309 -0.891900 0
M  V30 33 H -3.943275 4.748470 -1.438240 0
M  V30 34 H -4.634806 5.337272 0.059897 0
M  V30 35 H 0.043946 4.103409 0.871358 0
M  V30 36 H 1.123487 1.921330 0.796458 0
M  V30 END ATOM
M  V30 BEGIN BOND
M  V30 1 1 1 2
M  V30 2 1 2 3
M  V30 3 1 3 4
M  V30 4 2 4 5
M  V30 5 1 5 6
M  V30 6 2 6 7
M  V30 7 1 7 8
M  V30 8 1 7 9
M  V30 9 2 9 10
M  V30 10 2 3 11
M  V30 11 1 11 12
M  V30 12 2 12 13
M  V30 13 1 13 14
M  V30 14 2 14 15
M  V30 15 1 15 16
M  V30 16 2 16 17
M  V30 17 1 17 18
M  V30 18 1 18 19
M  V30 19 2 18 20
M  V30 20 1 17 21
M  V30 21 2 21 22
M  V30 22 1 13 2
M  V30 23 1 22 14
M  V30 24 1 10 4
M  V30 25 1 1 23
M  V30 26 1 1 24
M  V30 27 1 1 25
M  V30 28 1 5 26
M  V30 29 1 6 27
M  V30 30 1 9 28
M  V30 31 1 10 29
M  V30 32 1 11 30
M  V30 33 1 15 31
M  V30 34 1 16 32
M  V30 35 1 19 33
M  V30 36 1 19 34
M  V30 37 1 21 35
M  V30 38 1 22 36
M  V30 END BOND
M  V30 END CTAB
M  END
>  <Dataset>  (247) 
ChEMBL_Kinases

>  <Ligand_Instance>  (247) 
nan

>  <PDB_ID>  (247) 
nan

>  <Standardized_SMILES>  (247) 
Cn1c(-c2ccc(Cl)cc2)cnc1-c1ccc(C(N)=O)cc1

>  <Name>  (247) 
nan

>  <Pocket>  (247) 
nan

>  <ATP_Site>  (247) 
nan

>  <Peripheral>  (247) 
nan

>  <Num_H_Atoms_ProtBoundConf>  (247) 
nan

>  <Num_Resolved_Atoms>  (247) 
nan

>  <Num_Not_Resolved_Atoms>  (247) 
nan

$$$$
CHEMBL5086320
     RDKit          3D

  0  0  0  0  0  0  0  0  0  0999 V3000
M  V30 BEGIN CTAB
M  V30 COUNTS 53 56 0 0 0
M  V30 BEGIN ATOM
M  V30 1 C -0.118311 -6.610986 2.349672 0
M  V30 2 C 0.368400 -5.327284 2.919827 0
M  V30 3 N 0.695147 -5.065000 4.197563 0
M  V30 4 N 1.086213 -3.807146 4.317420 0
M  V30 5 C 1.008969 -3.252752 3.095014 0
M  V30 6 N 1.305057 -1.977511 2.703648 0
M  V30 7 C 1.148654 -1.646572 1.410449 0
M  V30 8 C 1.455775 -0.293166 0.958864 0
M  V30 9 C 1.310027 0.084950 -0.350083 0
M  V30 10 C 1.602892 1.368046 -0.769363 0
M  V30 11 C 2.058063 2.291213 0.177719 0
M  V30 12 N 2.340756 3.587894 -0.313706 0
M  V30 13 S 1.788264 4.980387 0.566099 0
M  V30 14 O 2.235971 6.230493 -0.131034 0
M  V30 15 O 2.388914 5.028300 1.945432 0
M  V30 16 C 0.022703 4.959541 0.648173 0
M  V30 17 C -0.767307 4.923470 1.779605 0
M  V30 18 C -2.124834 4.913203 1.606488 0
M  V30 19 Cl -3.090423 4.867228 3.066923 0
M  V30 20 C -2.735875 4.936608 0.381081 0
M  V30 21 C -1.940626 4.972507 -0.741020 0
M  V30 22 C -0.556085 4.983950 -0.604198 0
M  V30 23 F 0.112327 5.020188 -1.796217 0
M  V30 24 C 2.199859 1.895806 1.492283 0
M  V30 25 C 1.903683 0.603220 1.908825 0
M  V30 26 N 0.711473 -2.533138 0.500615 0
M  V30 27 C 0.399804 -3.803569 0.805195 0
M  V30 28 O -0.052329 -4.851184 0.057422 0
M  V30 29 C -0.335985 -4.910694 -1.296698 0
M  V30 30 C -1.413275 -3.956607 -1.736354 0
M  V30 31 F -1.598487 -4.123597 -3.114458 0
M  V30 32 F -0.999686 -2.674465 -1.463180 0
M  V30 33 C -2.740322 -4.261048 -1.060966 0
M  V30 34 N -3.178207 -5.605155 -1.384247 0
M  V30 35 C 0.553405 -4.175837 2.145800 0
M  V30 36 H 0.260878 -6.793206 1.340789 0
M  V30 37 H 0.148239 -7.447698 3.030286 0
M  V30 38 H -1.245417 -6.607491 2.342289 0
M  V30 39 H 1.387271 -3.363294 5.192827 0
M  V30 40 H 0.950215 -0.679396 -1.047110 0
M  V30 41 H 1.446072 1.542067 -1.830198 0
M  V30 42 H 2.887362 3.718826 -1.215110 0
M  V30 43 H -0.201768 4.907248 2.691121 0
M  V30 44 H -3.814819 4.926667 0.316619 0
M  V30 45 H -2.478241 4.989841 -1.685902 0
M  V30 46 H 2.554816 2.637717 2.198003 0
M  V30 47 H 2.027466 0.320574 2.963060 0
M  V30 48 H -0.703964 -5.954314 -1.522399 0
M  V30 49 H 0.551924 -4.716844 -1.945780 0
M  V30 50 H -2.687935 -4.121319 0.021665 0
M  V30 51 H -3.485194 -3.535842 -1.455367 0
M  V30 52 H -2.847596 -5.915787 -2.322601 0
M  V30 53 H -4.207845 -5.693026 -1.277180 0
M  V30 END ATOM
M  V30 BEGIN BOND
M  V30 1 1 1 2
M  V30 2 2 2 3
M  V30 3 1 3 4
M  V30 4 1 4 5
M  V30 5 2 5 6
M  V30 6 1 6 7
M  V30 7 1 7 8
M  V30 8 2 8 9
M  V30 9 1 9 10
M  V30 10 2 10 11
M  V30 11 1 11 12
M  V30 12 1 12 13
M  V30 13 2 13 14
M  V30 14 2 13 15
M  V30 15 1 13 16
M  V30 16 2 16 17
M  V30 17 1 17 18
M  V30 18 1 18 19
M  V30 19 2 18 20
M  V30 20 1 20 21
M  V30 21 2 21 22
M  V30 22 1 22 23
M  V30 23 1 11 24
M  V30 24 2 24 25
M  V30 25 2 7 26
M  V30 26 1 26 27
M  V30 27 1 27 28
M  V30 28 1 28 29
M  V30 29 1 29 30
M  V30 30 1 30 31
M  V30 31 1 30 32
M  V30 32 1 30 33
M  V30 33 1 33 34
M  V30 34 2 27 35
M  V30 35 1 35 2
M  V30 36 1 35 5
M  V30 37 1 25 8
M  V30 38 1 22 16
M  V30 39 1 1 36
M  V30 40 1 1 37
M  V30 41 1 1 38
M  V30 42 1 4 39
M  V30 43 1 9 40
M  V30 44 1 10 41
M  V30 45 1 12 42
M  V30 46 1 17 43
M  V30 47 1 20 44
M  V30 48 1 21 45
M  V30 49 1 24 46
M  V30 50 1 25 47
M  V30 51 1 29 48
M  V30 52 1 29 49
M  V30 53 1 33 50
M  V30 54 1 33 51
M  V30 55 1 34 52
M  V30 56 1 34 53
M  V30 END BOND
M  V30 END CTAB
M  END
>  <Dataset>  (248) 
ChEMBL_Kinases

>  <Ligand_Instance>  (248) 
nan

>  <PDB_ID>  (248) 
nan

>  <Standardized_SMILES>  (248) 
Cc1n[nH]c2nc(-c3ccc(NS(=O)(=O)c4cc(Cl)ccc4F)cc3)nc(OCC(F)(F)CN)c12

>  <Name>  (248) 
nan

>  <Pocket>  (248) 
nan

>  <ATP_Site>  (248) 
nan

>  <Peripheral>  (248) 
nan

>  <Num_H_Atoms_ProtBoundConf>  (248) 
nan

>  <Num_Resolved_Atoms>  (248) 
nan

>  <Num_Not_Resolved_Atoms>  (248) 
nan

$$$$
CHEMBL3753095
     RDKit          3D

  0  0  0  0  0  0  0  0  0  0999 V3000
M  V30 BEGIN CTAB
M  V30 COUNTS 48 51 0 0 0
M  V30 BEGIN ATOM
M  V30 1 C -2.953253 -6.616077 3.433447 0
M  V30 2 O -3.662831 -5.741115 2.545949 0
M  V30 3 C -2.995058 -4.688747 1.958358 0
M  V30 4 C -1.652941 -4.454611 2.204375 0
M  V30 5 C -1.020339 -3.398508 1.602710 0
M  V30 6 C -1.668416 -2.534592 0.742695 0
M  V30 7 C -0.996666 -1.405231 0.097940 0
M  V30 8 C 0.018973 -0.817943 0.822688 0
M  V30 9 N 0.651670 0.220145 0.252083 0
M  V30 10 C 0.351383 0.701170 -0.957427 0
M  V30 11 C 0.965937 1.768822 -1.603759 0
M  V30 12 O 1.981262 2.638169 -1.309041 0
M  V30 13 C 2.705754 2.622593 -0.126105 0
M  V30 14 C 2.464859 3.963910 0.568751 0
M  V30 15 C 3.637054 4.275239 1.463974 0
M  V30 16 C 4.139421 3.020439 2.097680 0
M  V30 17 C 4.759892 2.133553 1.044154 0
M  V30 18 C 4.197495 2.510480 -0.326436 0
M  V30 19 S 0.225510 1.994654 -3.128124 0
M  V30 20 N -0.998602 0.593341 -2.945085 0
M  V30 21 C -0.651349 0.146052 -1.710477 0
M  V30 22 C -1.322809 -0.924330 -1.152476 0
M  V30 23 C -3.019927 -2.800549 0.517881 0
M  V30 24 C -3.697281 -3.856210 1.105005 0
M  V30 25 O -5.061045 -4.049429 0.821043 0
M  V30 26 C -5.628275 -3.104043 -0.075611 0
M  V30 27 H -2.113812 -7.117828 2.874043 0
M  V30 28 H -3.621051 -7.435619 3.768785 0
M  V30 29 H -2.482835 -6.077181 4.269576 0
M  V30 30 H -1.075627 -5.085179 2.865311 0
M  V30 31 H 0.045974 -3.185970 1.777972 0
M  V30 32 H 0.366780 -1.108969 1.819052 0
M  V30 33 H 2.363749 1.823771 0.566017 0
M  V30 34 H 1.531485 3.922456 1.157318 0
M  V30 35 H 2.424800 4.718263 -0.262551 0
M  V30 36 H 4.473966 4.791142 0.954161 0
M  V30 37 H 3.274782 4.986900 2.240908 0
M  V30 38 H 3.326150 2.512339 2.671566 0
M  V30 39 H 4.916422 3.334280 2.849812 0
M  V30 40 H 4.420922 1.090715 1.305953 0
M  V30 41 H 5.854356 2.231721 1.102442 0
M  V30 42 H 4.491788 1.794878 -1.097372 0
M  V30 43 H 4.608522 3.498131 -0.610699 0
M  V30 44 H -2.128440 -1.479853 -1.590870 0
M  V30 45 H -3.500937 -2.101418 -0.164509 0
M  V30 46 H -5.458814 -2.100036 0.406488 0
M  V30 47 H -5.066767 -3.077301 -1.034909 0
M  V30 48 H -6.677803 -3.299635 -0.317964 0
M  V30 END ATOM
M  V30 BEGIN BOND
M  V30 1 1 1 2
M  V30 2 1 2 3
M  V30 3 2 3 4
M  V30 4 1 4 5
M  V30 5 2 5 6
M  V30 6 1 6 7
M  V30 7 1 7 8
M  V30 8 2 8 9
M  V30 9 1 9 10
M  V30 10 2 10 11
M  V30 11 1 11 12
M  V30 12 1 12 13
M  V30 13 1 13 14
M  V30 14 1 14 15
M  V30 15 1 15 16
M  V30 16 1 16 17
M  V30 17 1 17 18
M  V30 18 1 11 19
M  V30 19 1 19 20
M  V30 20 2 20 21
M  V30 21 1 21 22
M  V30 22 1 6 23
M  V30 23 2 23 24
M  V30 24 1 24 25
M  V30 25 1 25 26
M  V30 26 1 24 3
M  V30 27 2 22 7
M  V30 28 1 21 10
M  V30 29 1 18 13
M  V30 30 1 1 27
M  V30 31 1 1 28
M  V30 32 1 1 29
M  V30 33 1 4 30
M  V30 34 1 5 31
M  V30 35 1 8 32
M  V30 36 1 13 33
M  V30 37 1 14 34
M  V30 38 1 14 35
M  V30 39 1 15 36
M  V30 40 1 15 37
M  V30 41 1 16 38
M  V30 42 1 16 39
M  V30 43 1 17 40
M  V30 44 1 17 41
M  V30 45 1 18 42
M  V30 46 1 18 43
M  V30 47 1 22 44
M  V30 48 1 23 45
M  V30 49 1 26 46
M  V30 50 1 26 47
M  V30 51 1 26 48
M  V30 END BOND
M  V30 END CTAB
M  END
>  <Dataset>  (249) 
ChEMBL_Kinases

>  <Ligand_Instance>  (249) 
nan

>  <PDB_ID>  (249) 
nan

>  <Standardized_SMILES>  (249) 
COc1ccc(-c2cnc3c(OC4CCCCC4)snc3c2)cc1OC

>  <Name>  (249) 
nan

>  <Pocket>  (249) 
nan

>  <ATP_Site>  (249) 
nan

>  <Peripheral>  (249) 
nan

>  <Num_H_Atoms_ProtBoundConf>  (249) 
nan

>  <Num_Resolved_Atoms>  (249) 
nan

>  <Num_Not_Resolved_Atoms>  (249) 
nan

$$$$
CHEMBL3753068
     RDKit          3D

  0  0  0  0  0  0  0  0  0  0999 V3000
M  V30 BEGIN CTAB
M  V30 COUNTS 28 29 0 0 0
M  V30 BEGIN ATOM
M  V30 1 N -2.367401 -1.758332 4.110975 0
M  V30 2 C -2.376148 -2.074391 2.995417 0
M  V30 3 C -2.387687 -2.444783 1.598319 0
M  V30 4 C -1.091790 -2.067916 0.885812 0
M  V30 5 C 0.096058 -2.726292 1.482036 0
M  V30 6 C 1.363926 -2.296866 0.783121 0
M  V30 7 N 1.549854 -0.882578 0.896796 0
M  V30 8 C 2.017607 -0.497770 2.125238 0
M  V30 9 N 2.118665 0.836681 2.228919 0
M  V30 10 C 1.719409 1.376988 1.064486 0
M  V30 11 C 1.573485 2.614171 0.475415 0
M  V30 12 Br 2.032609 4.125494 1.547626 0
M  V30 13 C 1.112592 2.745412 -0.839235 0
M  V30 14 Br 0.963745 4.539534 -1.514257 0
M  V30 15 C 0.786417 1.612173 -1.594293 0
M  V30 16 Br 0.169971 1.913108 -3.374962 0
M  V30 17 C 0.929408 0.370659 -1.011593 0
M  V30 18 Br 0.508839 -1.076990 -2.150905 0
M  V30 19 C 1.384141 0.294815 0.284727 0
M  V30 20 H -2.539841 -3.541409 1.527037 0
M  V30 21 H -3.233431 -2.002368 1.016304 0
M  V30 22 H -1.017827 -0.979101 0.753772 0
M  V30 23 H -1.202510 -2.501047 -0.159023 0
M  V30 24 H 0.044133 -3.848718 1.419510 0
M  V30 25 H 0.194565 -2.482995 2.583836 0
M  V30 26 H 1.275003 -2.639885 -0.274186 0
M  V30 27 H 2.249522 -2.862074 1.191905 0
M  V30 28 H 2.332290 -0.998506 3.049812 0
M  V30 END ATOM
M  V30 BEGIN BOND
M  V30 1 3 1 2
M  V30 2 1 2 3
M  V30 3 1 3 4
M  V30 4 1 4 5
M  V30 5 1 5 6
M  V30 6 1 6 7
M  V30 7 1 7 8
M  V30 8 2 8 9
M  V30 9 1 9 10
M  V30 10 2 10 11
M  V30 11 1 11 12
M  V30 12 1 11 13
M  V30 13 1 13 14
M  V30 14 2 13 15
M  V30 15 1 15 16
M  V30 16 1 15 17
M  V30 17 1 17 18
M  V30 18 2 17 19
M  V30 19 1 19 7
M  V30 20 1 19 10
M  V30 21 1 3 20
M  V30 22 1 3 21
M  V30 23 1 4 22
M  V30 24 1 4 23
M  V30 25 1 5 24
M  V30 26 1 5 25
M  V30 27 1 6 26
M  V30 28 1 6 27
M  V30 29 1 8 28
M  V30 END BOND
M  V30 END CTAB
M  END
>  <Dataset>  (250) 
ChEMBL_Kinases

>  <Ligand_Instance>  (250) 
nan

>  <PDB_ID>  (250) 
nan

>  <Standardized_SMILES>  (250) 
N#CCCCCn1cnc2c(Br)c(Br)c(Br)c(Br)c21

>  <Name>  (250) 
nan

>  <Pocket>  (250) 
nan

>  <ATP_Site>  (250) 
nan

>  <Peripheral>  (250) 
nan

>  <Num_H_Atoms_ProtBoundConf>  (250) 
nan

>  <Num_Resolved_Atoms>  (250) 
nan

>  <Num_Not_Resolved_Atoms>  (250) 
nan

$$$$
CHEMBL3753050
     RDKit          3D

  0  0  0  0  0  0  0  0  0  0999 V3000
M  V30 BEGIN CTAB
M  V30 COUNTS 30 32 0 0 0
M  V30 BEGIN ATOM
M  V30 1 C -2.589784 -3.069373 3.011884 0
M  V30 2 C -1.188290 -3.140546 2.434601 0
M  V30 3 C -0.350984 -4.174999 3.168878 0
M  V30 4 O -1.204994 -3.519460 1.078986 0
M  V30 5 C -0.677058 -2.653797 0.139911 0
M  V30 6 S -0.830706 -3.386018 -1.487488 0
M  V30 7 N -0.026402 -1.915471 -2.316434 0
M  V30 8 C 0.232193 -1.118481 -1.299705 0
M  V30 9 C 0.840529 0.114479 -1.447726 0
M  V30 10 C 1.100306 0.929434 -0.366842 0
M  V30 11 C 1.741124 2.229152 -0.516587 0
M  V30 12 C 2.552390 2.830791 0.387000 0
M  V30 13 C 3.085324 4.034863 0.129437 0
M  V30 14 S 2.499781 4.549290 -1.520907 0
M  V30 15 C 1.513296 2.967800 -1.725267 0
M  V30 16 C 0.761984 0.546619 0.915025 0
M  V30 17 N 0.172918 -0.653784 1.031096 0
M  V30 18 C -0.084305 -1.453626 -0.010231 0
M  V30 19 H -3.316548 -2.690800 2.251650 0
M  V30 20 H -2.596795 -2.425874 3.925807 0
M  V30 21 H -2.864008 -4.092590 3.334191 0
M  V30 22 H -0.732325 -2.151397 2.598433 0
M  V30 23 H -0.392767 -3.955101 4.243854 0
M  V30 24 H 0.696943 -4.014656 2.818133 0
M  V30 25 H -0.665699 -5.202806 2.993107 0
M  V30 26 H 1.154818 0.533843 -2.385264 0
M  V30 27 H 2.794613 2.369631 1.331304 0
M  V30 28 H 3.738796 4.675637 0.692531 0
M  V30 29 H 0.863710 2.615807 -2.585391 0
M  V30 30 H 0.974815 1.204293 1.758922 0
M  V30 END ATOM
M  V30 BEGIN BOND
M  V30 1 1 1 2
M  V30 2 1 2 3
M  V30 3 1 2 4
M  V30 4 1 4 5
M  V30 5 1 5 6
M  V30 6 1 6 7
M  V30 7 2 7 8
M  V30 8 1 8 9
M  V30 9 2 9 10
M  V30 10 1 10 11
M  V30 11 1 11 12
M  V30 12 2 12 13
M  V30 13 1 13 14
M  V30 14 1 14 15
M  V30 15 1 10 16
M  V30 16 2 16 17
M  V30 17 1 17 18
M  V30 18 2 18 5
M  V30 19 1 18 8
M  V30 20 2 15 11
M  V30 21 1 1 19
M  V30 22 1 1 20
M  V30 23 1 1 21
M  V30 24 1 2 22
M  V30 25 1 3 23
M  V30 26 1 3 24
M  V30 27 1 3 25
M  V30 28 1 9 26
M  V30 29 1 12 27
M  V30 30 1 13 28
M  V30 31 1 15 29
M  V30 32 1 16 30
M  V30 END BOND
M  V30 END CTAB
M  END
>  <Dataset>  (251) 
ChEMBL_Kinases

>  <Ligand_Instance>  (251) 
nan

>  <PDB_ID>  (251) 
nan

>  <Standardized_SMILES>  (251) 
CC(C)Oc1snc2cc(-c3ccsc3)cnc12

>  <Name>  (251) 
nan

>  <Pocket>  (251) 
nan

>  <ATP_Site>  (251) 
nan

>  <Peripheral>  (251) 
nan

>  <Num_H_Atoms_ProtBoundConf>  (251) 
nan

>  <Num_Resolved_Atoms>  (251) 
nan

>  <Num_Not_Resolved_Atoms>  (251) 
nan

$$$$
CHEMBL3753027
     RDKit          3D

  0  0  0  0  0  0  0  0  0  0999 V3000
M  V30 BEGIN CTAB
M  V30 COUNTS 22 23 0 0 0
M  V30 BEGIN ATOM
M  V30 1 C -1.784013 -2.022364 1.383971 0
M  V30 2 C -0.527664 -1.261732 1.087395 0
M  V30 3 N 0.689543 -1.802644 0.900527 0
M  V30 4 C 1.571367 -0.824502 0.657646 0
M  V30 5 C 2.928053 -0.789397 0.400811 0
M  V30 6 Br 3.924898 -2.407128 0.339421 0
M  V30 7 C 3.554018 0.433541 0.188828 0
M  V30 8 Br 5.426558 0.449386 -0.163255 0
M  V30 9 C 2.810297 1.610639 0.237042 0
M  V30 10 Br 3.746248 3.226363 -0.063230 0
M  V30 11 C 1.471162 1.525157 0.494441 0
M  V30 12 Br 0.558875 3.196289 0.544160 0
M  V30 13 C 0.823413 0.328166 0.708161 0
M  V30 14 N -0.470730 0.099466 0.969674 0
M  V30 15 C -1.615697 0.971006 1.108527 0
M  V30 16 C -1.803363 1.444586 2.497738 0
M  V30 17 N -1.940503 1.800530 3.590228 0
M  V30 18 H -1.625924 -3.072669 1.077015 0
M  V30 19 H -2.034908 -1.955510 2.464636 0
M  V30 20 H -2.646530 -1.663087 0.788906 0
M  V30 21 H -1.633043 1.833879 0.439247 0
M  V30 22 H -2.535534 0.372441 0.864370 0
M  V30 END ATOM
M  V30 BEGIN BOND
M  V30 1 1 1 2
M  V30 2 2 2 3
M  V30 3 1 3 4
M  V30 4 2 4 5
M  V30 5 1 5 6
M  V30 6 1 5 7
M  V30 7 1 7 8
M  V30 8 2 7 9
M  V30 9 1 9 10
M  V30 10 1 9 11
M  V30 11 1 11 12
M  V30 12 2 11 13
M  V30 13 1 13 14
M  V30 14 1 14 15
M  V30 15 1 15 16
M  V30 16 3 16 17
M  V30 17 1 14 2
M  V30 18 1 13 4
M  V30 19 1 1 18
M  V30 20 1 1 19
M  V30 21 1 1 20
M  V30 22 1 15 21
M  V30 23 1 15 22
M  V30 END BOND
M  V30 END CTAB
M  END
>  <Dataset>  (252) 
ChEMBL_Kinases

>  <Ligand_Instance>  (252) 
nan

>  <PDB_ID>  (252) 
nan

>  <Standardized_SMILES>  (252) 
Cc1nc2c(Br)c(Br)c(Br)c(Br)c2n1CC#N

>  <Name>  (252) 
nan

>  <Pocket>  (252) 
nan

>  <ATP_Site>  (252) 
nan

>  <Peripheral>  (252) 
nan

>  <Num_H_Atoms_ProtBoundConf>  (252) 
nan

>  <Num_Resolved_Atoms>  (252) 
nan

>  <Num_Not_Resolved_Atoms>  (252) 
nan

$$$$
CHEMBL3753017
     RDKit          3D

  0  0  0  0  0  0  0  0  0  0999 V3000
M  V30 BEGIN CTAB
M  V30 COUNTS 41 43 0 0 0
M  V30 BEGIN ATOM
M  V30 1 C -0.087756 -6.318256 3.600537 0
M  V30 2 O -0.268460 -4.977001 4.024713 0
M  V30 3 C 0.023890 -3.980444 3.099078 0
M  V30 4 C 0.467308 -4.338051 1.836211 0
M  V30 5 C 0.763020 -3.356709 0.901662 0
M  V30 6 C 0.607353 -2.027223 1.254210 0
M  V30 7 C 0.919018 -1.000407 0.269597 0
M  V30 8 C 0.170182 0.157690 0.369514 0
M  V30 9 N 0.406980 1.143239 -0.506573 0
M  V30 10 C 1.305792 1.128551 -1.485633 0
M  V30 11 C 1.699994 2.027689 -2.482148 0
M  V30 12 O 1.213186 3.269194 -2.722531 0
M  V30 13 C 0.211623 3.961965 -2.043917 0
M  V30 14 C -1.139348 3.315758 -2.225648 0
M  V30 15 C 0.484379 4.175970 -0.595635 0
M  V30 16 S 2.937327 1.367264 -3.431365 0
M  V30 17 N 3.085539 -0.257721 -2.577781 0
M  V30 18 C 2.046250 -0.013132 -1.586565 0
M  V30 19 C 1.865427 -1.076141 -0.723619 0
M  V30 20 C 0.164072 -1.689756 2.518352 0
M  V30 21 C -0.136918 -2.647663 3.466204 0
M  V30 22 O -0.584869 -2.387822 4.749934 0
M  V30 23 C -0.798693 -1.117556 5.277689 0
M  V30 24 H 0.957966 -6.482709 3.262710 0
M  V30 25 H -0.365513 -6.992325 4.436708 0
M  V30 26 H -0.754048 -6.584910 2.754468 0
M  V30 27 H 0.597360 -5.361393 1.534871 0
M  V30 28 H 1.112649 -3.576309 -0.098495 0
M  V30 29 H -0.602951 0.314811 1.121456 0
M  V30 30 H 0.141006 4.976521 -2.535601 0
M  V30 31 H -1.602272 3.090643 -1.237613 0
M  V30 32 H -1.866849 3.975001 -2.749950 0
M  V30 33 H -1.031816 2.421851 -2.875311 0
M  V30 34 H 0.534485 5.261750 -0.384983 0
M  V30 35 H 1.449262 3.726221 -0.281532 0
M  V30 36 H -0.293961 3.780757 0.088821 0
M  V30 37 H 2.365105 -2.039867 -0.670399 0
M  V30 38 H 0.034738 -0.663207 2.816139 0
M  V30 39 H 0.144959 -0.526049 5.264279 0
M  V30 40 H -1.587380 -0.537264 4.756853 0
M  V30 41 H -1.035204 -1.239011 6.366375 0
M  V30 END ATOM
M  V30 BEGIN BOND
M  V30 1 1 1 2
M  V30 2 1 2 3
M  V30 3 2 3 4
M  V30 4 1 4 5
M  V30 5 2 5 6
M  V30 6 1 6 7
M  V30 7 1 7 8
M  V30 8 2 8 9
M  V30 9 1 9 10
M  V30 10 2 10 11
M  V30 11 1 11 12
M  V30 12 1 12 13
M  V30 13 1 13 14
M  V30 14 1 13 15
M  V30 15 1 11 16
M  V30 16 1 16 17
M  V30 17 2 17 18
M  V30 18 1 18 19
M  V30 19 1 6 20
M  V30 20 2 20 21
M  V30 21 1 21 22
M  V30 22 1 22 23
M  V30 23 1 21 3
M  V30 24 2 19 7
M  V30 25 1 18 10
M  V30 26 1 1 24
M  V30 27 1 1 25
M  V30 28 1 1 26
M  V30 29 1 4 27
M  V30 30 1 5 28
M  V30 31 1 8 29
M  V30 32 1 13 30
M  V30 33 1 14 31
M  V30 34 1 14 32
M  V30 35 1 14 33
M  V30 36 1 15 34
M  V30 37 1 15 35
M  V30 38 1 15 36
M  V30 39 1 19 37
M  V30 40 1 20 38
M  V30 41 1 23 39
M  V30 42 1 23 40
M  V30 43 1 23 41
M  V30 END BOND
M  V30 END CTAB
M  END
>  <Dataset>  (253) 
ChEMBL_Kinases

>  <Ligand_Instance>  (253) 
nan

>  <PDB_ID>  (253) 
nan

>  <Standardized_SMILES>  (253) 
COc1ccc(-c2cnc3c(OC(C)C)snc3c2)cc1OC

>  <Name>  (253) 
nan

>  <Pocket>  (253) 
nan

>  <ATP_Site>  (253) 
nan

>  <Peripheral>  (253) 
nan

>  <Num_H_Atoms_ProtBoundConf>  (253) 
nan

>  <Num_Resolved_Atoms>  (253) 
nan

>  <Num_Not_Resolved_Atoms>  (253) 
nan

$$$$
CHEMBL3753371
     RDKit          3D

  0  0  0  0  0  0  0  0  0  0999 V3000
M  V30 BEGIN CTAB
M  V30 COUNTS 33 35 0 0 0
M  V30 BEGIN ATOM
M  V30 1 N -0.607997 1.353406 3.530452 0
M  V30 2 C -0.101446 0.271623 2.757281 0
M  V30 3 N 0.583672 -0.764956 3.273632 0
M  V30 4 C 1.060765 -1.785618 2.538093 0
M  V30 5 C 0.815217 -1.739429 1.161047 0
M  V30 6 C 1.309472 -2.822407 0.307075 0
M  V30 7 C 1.404456 -4.116972 0.790975 0
M  V30 8 C 1.871519 -5.152411 -0.008347 0
M  V30 9 C 2.217275 -4.766593 -1.287223 0
M  V30 10 C 2.156021 -3.509011 -1.851200 0
M  V30 11 C 1.676981 -2.513658 -0.991760 0
M  V30 12 C 0.120248 -0.693682 0.616257 0
M  V30 13 C -0.353815 0.335778 1.402832 0
M  V30 14 C -1.079043 1.388008 0.692736 0
M  V30 15 C -0.871499 2.732638 0.921508 0
M  V30 16 C -1.621107 3.652365 0.184911 0
M  V30 17 C -2.557936 3.280263 -0.759328 0
M  V30 18 Cl -3.439535 4.520563 -1.623201 0
M  V30 19 C -2.744301 1.914743 -0.967189 0
M  V30 20 C -2.007208 0.979451 -0.243343 0
M  V30 21 H -0.312441 2.275381 3.923368 0
M  V30 22 H -1.609661 1.144433 3.783077 0
M  V30 23 H 1.598275 -2.583856 2.997602 0
M  V30 24 H 1.117198 -4.356723 1.805528 0
M  V30 25 H 1.974576 -6.181685 0.292695 0
M  V30 26 H 2.591287 -5.567542 -1.943626 0
M  V30 27 H 2.462673 -3.357435 -2.871488 0
M  V30 28 H 1.612947 -1.512752 -1.394471 0
M  V30 29 H -0.036156 -0.717096 -0.453632 0
M  V30 30 H -0.143058 3.044481 1.656171 0
M  V30 31 H -1.451973 4.719948 0.370774 0
M  V30 32 H -3.477655 1.624436 -1.706467 0
M  V30 33 H -2.216772 -0.077763 -0.469632 0
M  V30 END ATOM
M  V30 BEGIN BOND
M  V30 1 1 1 2
M  V30 2 2 2 3
M  V30 3 1 3 4
M  V30 4 2 4 5
M  V30 5 1 5 6
M  V30 6 2 6 7
M  V30 7 1 7 8
M  V30 8 2 8 9
M  V30 9 1 9 10
M  V30 10 2 10 11
M  V30 11 1 5 12
M  V30 12 2 12 13
M  V30 13 1 13 14
M  V30 14 2 14 15
M  V30 15 1 15 16
M  V30 16 2 16 17
M  V30 17 1 17 18
M  V30 18 1 17 19
M  V30 19 2 19 20
M  V30 20 1 13 2
M  V30 21 1 20 14
M  V30 22 1 11 6
M  V30 23 1 1 21
M  V30 24 1 1 22
M  V30 25 1 4 23
M  V30 26 1 7 24
M  V30 27 1 8 25
M  V30 28 1 9 26
M  V30 29 1 10 27
M  V30 30 1 11 28
M  V30 31 1 12 29
M  V30 32 1 15 30
M  V30 33 1 16 31
M  V30 34 1 19 32
M  V30 35 1 20 33
M  V30 END BOND
M  V30 END CTAB
M  END
>  <Dataset>  (254) 
ChEMBL_Kinases

>  <Ligand_Instance>  (254) 
nan

>  <PDB_ID>  (254) 
nan

>  <Standardized_SMILES>  (254) 
Nc1ncc(-c2ccccc2)cc1-c1ccc(Cl)cc1

>  <Name>  (254) 
nan

>  <Pocket>  (254) 
nan

>  <ATP_Site>  (254) 
nan

>  <Peripheral>  (254) 
nan

>  <Num_H_Atoms_ProtBoundConf>  (254) 
nan

>  <Num_Resolved_Atoms>  (254) 
nan

>  <Num_Not_Resolved_Atoms>  (254) 
nan

$$$$
CHEMBL585861
     RDKit          3D

  0  0  0  0  0  0  0  0  0  0999 V3000
M  V30 BEGIN CTAB
M  V30 COUNTS 42 45 0 0 0
M  V30 BEGIN ATOM
M  V30 1 C -1.180956 -4.079736 -1.291409 0
M  V30 2 C 0.053668 -4.455652 -0.537409 0
M  V30 3 N 0.407143 -5.580778 0.113081 0
M  V30 4 O 1.596511 -5.441844 0.625417 0
M  V30 5 C 2.088884 -4.240696 0.349021 0
M  V30 6 C 3.431644 -3.720202 0.772103 0
M  V30 7 C 1.118460 -3.575239 -0.401667 0
M  V30 8 C 1.306449 -2.220718 -0.889863 0
M  V30 9 C 1.888466 -2.111992 -2.140766 0
M  V30 10 C 2.096153 -0.862287 -2.664397 0
M  V30 11 C 1.725917 0.252968 -1.944234 0
M  V30 12 N 1.937593 1.468481 -2.474218 0
M  V30 13 C 1.565210 2.541163 -1.746746 0
M  V30 14 N 0.997788 2.484053 -0.530320 0
M  V30 15 C 0.780687 1.274107 0.010895 0
M  V30 16 N 0.176053 1.208611 1.307506 0
M  V30 17 C -0.186034 2.426302 2.003689 0
M  V30 18 C -0.798370 2.206939 3.326846 0
M  V30 19 C -2.188470 2.093021 3.254527 0
M  V30 20 C -2.942145 1.881775 4.413084 0
M  V30 21 C -2.218382 1.796713 5.607575 0
M  V30 22 N -0.867672 1.908261 5.670945 0
M  V30 23 C -0.139087 2.114310 4.536255 0
M  V30 24 C 1.143962 0.158951 -0.694400 0
M  V30 25 C 0.948561 -1.090559 -0.197045 0
M  V30 26 H -1.565595 -3.097816 -0.909694 0
M  V30 27 H -1.059110 -4.091560 -2.376984 0
M  V30 28 H -1.978377 -4.814535 -1.011996 0
M  V30 29 H 3.925634 -3.182623 -0.080617 0
M  V30 30 H 4.087114 -4.598767 0.948998 0
M  V30 31 H 3.406188 -3.156372 1.706258 0
M  V30 32 H 2.184465 -2.983295 -2.717803 0
M  V30 33 H 2.557062 -0.752755 -3.656500 0
M  V30 34 H 1.769620 3.493223 -2.244401 0
M  V30 35 H -0.051413 0.349629 1.848623 0
M  V30 36 H -0.788183 3.068690 1.354324 0
M  V30 37 H 0.781820 2.986618 2.150041 0
M  V30 38 H -2.779933 2.152702 2.357072 0
M  V30 39 H -4.019216 1.786919 4.409913 0
M  V30 40 H -2.790434 1.632696 6.516513 0
M  V30 41 H 0.937845 2.214075 4.500090 0
M  V30 42 H 0.505372 -1.235329 0.759408 0
M  V30 END ATOM
M  V30 BEGIN BOND
M  V30 1 1 1 2
M  V30 2 2 2 3
M  V30 3 1 3 4
M  V30 4 1 4 5
M  V30 5 1 5 6
M  V30 6 2 5 7
M  V30 7 1 7 8
M  V30 8 2 8 9
M  V30 9 1 9 10
M  V30 10 2 10 11
M  V30 11 1 11 12
M  V30 12 2 12 13
M  V30 13 1 13 14
M  V30 14 2 14 15
M  V30 15 1 15 16
M  V30 16 1 16 17
M  V30 17 1 17 18
M  V30 18 2 18 19
M  V30 19 1 19 20
M  V30 20 2 20 21
M  V30 21 1 21 22
M  V30 22 2 22 23
M  V30 23 1 15 24
M  V30 24 2 24 25
M  V30 25 1 7 2
M  V30 26 1 25 8
M  V30 27 1 24 11
M  V30 28 1 23 18
M  V30 29 1 1 26
M  V30 30 1 1 27
M  V30 31 1 1 28
M  V30 32 1 6 29
M  V30 33 1 6 30
M  V30 34 1 6 31
M  V30 35 1 9 32
M  V30 36 1 10 33
M  V30 37 1 13 34
M  V30 38 1 16 35
M  V30 39 1 17 36
M  V30 40 1 17 37
M  V30 41 1 19 38
M  V30 42 1 20 39
M  V30 43 1 21 40
M  V30 44 1 23 41
M  V30 45 1 25 42
M  V30 END BOND
M  V30 END CTAB
M  END
>  <Dataset>  (255) 
ChEMBL_Kinases

>  <Ligand_Instance>  (255) 
nan

>  <PDB_ID>  (255) 
nan

>  <Standardized_SMILES>  (255) 
Cc1noc(C)c1-c1ccc2ncnc(NCc3cccnc3)c2c1

>  <Name>  (255) 
nan

>  <Pocket>  (255) 
nan

>  <ATP_Site>  (255) 
nan

>  <Peripheral>  (255) 
nan

>  <Num_H_Atoms_ProtBoundConf>  (255) 
nan

>  <Num_Resolved_Atoms>  (255) 
nan

>  <Num_Not_Resolved_Atoms>  (255) 
nan

$$$$
CHEMBL5088263
     RDKit          3D

  0  0  0  0  0  0  0  0  0  0999 V3000
M  V30 BEGIN CTAB
M  V30 COUNTS 48 52 0 0 0
M  V30 BEGIN ATOM
M  V30 1 N 0.653425 -6.540088 2.157422 0
M  V30 2 C 0.961505 -5.437358 1.954608 0
M  V30 3 C 1.358686 -4.041672 1.722574 0
M  V30 4 C 1.749627 -3.848849 0.256316 0
M  V30 5 N 2.127815 -2.488949 0.073891 0
M  V30 6 C 2.521577 -2.186982 -1.288696 0
M  V30 7 C 3.167145 -0.840219 -1.384604 0
M  V30 8 C 2.394554 0.127759 -0.576300 0
M  V30 9 C 2.029787 1.404001 -1.298077 0
M  V30 10 C 0.551537 1.582746 -0.910176 0
M  V30 11 N 0.427519 0.756084 0.315085 0
M  V30 12 C -0.007538 0.755319 1.668311 0
M  V30 13 N 1.020374 0.675359 2.538026 0
M  V30 14 C 0.852248 0.683873 3.873565 0
M  V30 15 N -0.408950 0.777152 4.343395 0
M  V30 16 C -1.486098 0.860153 3.541840 0
M  V30 17 N -2.814464 0.955660 3.722179 0
M  V30 18 C -3.420677 1.001482 2.522253 0
M  V30 19 C -4.749928 1.094449 2.174415 0
M  V30 20 C -5.110407 1.118943 0.850462 0
M  V30 21 Br -6.951040 1.247865 0.407455 0
M  V30 22 C -4.130958 1.049604 -0.134211 0
M  V30 23 C -2.802495 0.956820 0.216719 0
M  V30 24 C -2.454447 0.933668 1.541074 0
M  V30 25 C -1.248896 0.846300 2.184841 0
M  V30 26 C 1.011780 -0.434473 -0.307604 0
M  V30 27 C 1.067700 -1.640510 0.552622 0
M  V30 28 H 2.192013 -3.824946 2.416900 0
M  V30 29 H 0.502979 -3.390401 1.989715 0
M  V30 30 H 2.442824 -4.611641 -0.086653 0
M  V30 31 H 0.798918 -4.015249 -0.321640 0
M  V30 32 H 3.320854 -2.942546 -1.525350 0
M  V30 33 H 1.730149 -2.353802 -2.035201 0
M  V30 34 H 4.243582 -0.871456 -1.094227 0
M  V30 35 H 3.166907 -0.511315 -2.442533 0
M  V30 36 H 2.951090 0.326560 0.349986 0
M  V30 37 H 2.161502 1.331970 -2.385258 0
M  V30 38 H 2.578628 2.244678 -0.831048 0
M  V30 39 H 0.279380 2.623830 -0.744134 0
M  V30 40 H -0.026390 1.069079 -1.689981 0
M  V30 41 H 1.665463 0.620591 4.586384 0
M  V30 42 H -3.231104 0.984005 4.694284 0
M  V30 43 H -5.471294 1.145493 2.995595 0
M  V30 44 H -4.508175 1.075269 -1.151061 0
M  V30 45 H -2.164836 0.906350 -0.625293 0
M  V30 46 H 0.548726 -0.641939 -1.314194 0
M  V30 47 H 1.146919 -1.493945 1.617090 0
M  V30 48 H 0.106510 -2.205934 0.373961 0
M  V30 END ATOM
M  V30 BEGIN BOND
M  V30 1 3 1 2
M  V30 2 1 2 3
M  V30 3 1 3 4
M  V30 4 1 4 5
M  V30 5 1 5 6
M  V30 6 1 6 7
M  V30 7 1 7 8
M  V30 8 1 8 9
M  V30 9 1 9 10
M  V30 10 1 10 11
M  V30 11 1 11 12
M  V30 12 2 12 13
M  V30 13 1 13 14
M  V30 14 2 14 15
M  V30 15 1 15 16
M  V30 16 1 16 17
M  V30 17 1 17 18
M  V30 18 2 18 19
M  V30 19 1 19 20
M  V30 20 1 20 21
M  V30 21 2 20 22
M  V30 22 1 22 23
M  V30 23 2 23 24
M  V30 24 1 24 25
M  V30 25 1 11 26
M  V30 26 1 26 27
M  V30 27 1 27 5
M  V30 28 1 26 8
M  V30 29 1 25 12
M  V30 30 2 25 16
M  V30 31 1 24 18
M  V30 32 1 3 28
M  V30 33 1 3 29
M  V30 34 1 4 30
M  V30 35 1 4 31
M  V30 36 1 6 32
M  V30 37 1 6 33
M  V30 38 1 7 34
M  V30 39 1 7 35
M  V30 40 1 8 36
M  V30 41 1 9 37
M  V30 42 1 9 38
M  V30 43 1 10 39
M  V30 44 1 10 40
M  V30 45 1 14 41
M  V30 46 1 17 42
M  V30 47 1 19 43
M  V30 48 1 22 44
M  V30 49 1 23 45
M  V30 50 1 26 46
M  V30 51 1 27 47
M  V30 52 1 27 48
M  V30 END BOND
M  V30 END CTAB
M  END
>  <Dataset>  (256) 
ChEMBL_Kinases

>  <Ligand_Instance>  (256) 
nan

>  <PDB_ID>  (256) 
nan

>  <Standardized_SMILES>  (256) 
N#CCCN1CCC2CCN(c3ncnc4[nH]c5cc(Br)ccc5c34)C2C1

>  <Name>  (256) 
nan

>  <Pocket>  (256) 
nan

>  <ATP_Site>  (256) 
nan

>  <Peripheral>  (256) 
nan

>  <Num_H_Atoms_ProtBoundConf>  (256) 
nan

>  <Num_Resolved_Atoms>  (256) 
nan

>  <Num_Not_Resolved_Atoms>  (256) 
nan

$$$$
CHEMBL5088267
     RDKit          3D

  0  0  0  0  0  0  0  0  0  0999 V3000
M  V30 BEGIN CTAB
M  V30 COUNTS 41 43 0 0 0
M  V30 BEGIN ATOM
M  V30 1 C 0.600168 -5.397145 2.014941 0
M  V30 2 O -0.590906 -4.835821 1.631486 0
M  V30 3 C -0.549707 -4.397744 0.330621 0
M  V30 4 C 0.516694 -3.375385 0.080492 0
M  V30 5 C 0.370972 -2.961540 -1.391652 0
M  V30 6 N -0.946606 -2.378025 -1.557217 0
M  V30 7 C -0.993161 -1.285689 -0.611957 0
M  V30 8 C -0.070463 -0.313935 -0.428400 0
M  V30 9 C -0.268123 0.653866 0.548158 0
M  V30 10 C 0.778231 1.671621 0.682832 0
M  V30 11 C 1.530502 2.108338 -0.419860 0
M  V30 12 C 2.510972 3.083628 -0.234291 0
M  V30 13 C 2.702443 3.580142 1.036339 0
M  V30 14 O 3.556671 4.484538 1.424439 0
M  V30 15 C 3.490781 4.739463 2.699970 0
M  V30 16 C 2.483315 3.914537 3.218631 0
M  V30 17 C 1.996728 3.189928 2.154142 0
M  V30 18 C 1.035084 2.227272 1.940737 0
M  V30 19 C -1.377512 0.684632 1.366008 0
M  V30 20 C -2.281352 -0.334276 1.128172 0
M  V30 21 N -3.499040 -0.448670 1.905329 0
M  V30 22 N -2.094867 -1.271265 0.184212 0
M  V30 23 H 1.406890 -4.642425 1.958594 0
M  V30 24 H 0.464428 -5.732196 3.087977 0
M  V30 25 H 0.906889 -6.263529 1.381962 0
M  V30 26 H -1.560779 -4.019209 0.059159 0
M  V30 27 H -0.371354 -5.261559 -0.376283 0
M  V30 28 H 1.542486 -3.767272 0.180566 0
M  V30 29 H 0.407598 -2.505334 0.734315 0
M  V30 30 H 1.150385 -2.227331 -1.594342 0
M  V30 31 H 0.493469 -3.868770 -2.015794 0
M  V30 32 H -1.836864 -2.488194 -2.115498 0
M  V30 33 H 0.801607 -0.328155 -1.067028 0
M  V30 34 H 1.318316 1.667774 -1.387520 0
M  V30 35 H 3.085612 3.420009 -1.087118 0
M  V30 36 H 4.083318 5.448888 3.296274 0
M  V30 37 H 2.136549 3.838624 4.221423 0
M  V30 38 H 0.459209 1.892130 2.787070 0
M  V30 39 H -1.537406 1.427460 2.128006 0
M  V30 40 H -3.772193 -0.658927 2.890351 0
M  V30 41 H -4.526150 -0.366506 1.769835 0
M  V30 END ATOM
M  V30 BEGIN BOND
M  V30 1 1 1 2
M  V30 2 1 2 3
M  V30 3 1 3 4
M  V30 4 1 4 5
M  V30 5 1 5 6
M  V30 6 1 6 7
M  V30 7 2 7 8
M  V30 8 1 8 9
M  V30 9 1 9 10
M  V30 10 2 10 11
M  V30 11 1 11 12
M  V30 12 2 12 13
M  V30 13 1 13 14
M  V30 14 1 14 15
M  V30 15 2 15 16
M  V30 16 1 16 17
M  V30 17 2 17 18
M  V30 18 2 9 19
M  V30 19 1 19 20
M  V30 20 1 20 21
M  V30 21 2 20 22
M  V30 22 1 22 7
M  V30 23 1 18 10
M  V30 24 1 17 13
M  V30 25 1 1 23
M  V30 26 1 1 24
M  V30 27 1 1 25
M  V30 28 1 3 26
M  V30 29 1 3 27
M  V30 30 1 4 28
M  V30 31 1 4 29
M  V30 32 1 5 30
M  V30 33 1 5 31
M  V30 34 1 6 32
M  V30 35 1 8 33
M  V30 36 1 11 34
M  V30 37 1 12 35
M  V30 38 1 15 36
M  V30 39 1 16 37
M  V30 40 1 18 38
M  V30 41 1 19 39
M  V30 42 1 21 40
M  V30 43 1 21 41
M  V30 END BOND
M  V30 END CTAB
M  END
>  <Dataset>  (257) 
ChEMBL_Kinases

>  <Ligand_Instance>  (257) 
nan

>  <PDB_ID>  (257) 
nan

>  <Standardized_SMILES>  (257) 
COCCCNc1cc(-c2ccc3occc3c2)cc(N)n1

>  <Name>  (257) 
nan

>  <Pocket>  (257) 
nan

>  <ATP_Site>  (257) 
nan

>  <Peripheral>  (257) 
nan

>  <Num_H_Atoms_ProtBoundConf>  (257) 
nan

>  <Num_Resolved_Atoms>  (257) 
nan

>  <Num_Not_Resolved_Atoms>  (257) 
nan

$$$$
CHEMBL5088336
     RDKit          3D

  0  0  0  0  0  0  0  0  0  0999 V3000
M  V30 BEGIN CTAB
M  V30 COUNTS 42 44 0 0 0
M  V30 BEGIN ATOM
M  V30 1 C -0.702036 -5.230146 2.403355 0
M  V30 2 O 0.345404 -4.433002 2.723853 0
M  V30 3 C 0.924642 -3.663065 1.776875 0
M  V30 4 C 0.099561 -2.636389 1.096613 0 CFG=2
M  V30 5 C -1.081976 -3.098861 0.326395 0
M  V30 6 C -1.234987 -2.327399 -0.992089 0
M  V30 7 C -0.998633 -0.832911 -0.699953 0
M  V30 8 N 0.386986 -0.698469 -0.420280 0
M  V30 9 C 1.313459 0.372319 -0.552302 0
M  V30 10 C 2.236369 0.130496 -1.546783 0
M  V30 11 C 3.252821 0.979065 -1.937436 0
M  V30 12 N 3.310951 2.153268 -1.248163 0
M  V30 13 C 2.432711 2.412993 -0.282433 0
M  V30 14 S 2.225342 3.805625 0.799087 0
M  V30 15 C 0.829607 3.199377 1.694993 0
M  V30 16 C 0.200722 3.958905 2.760689 0
M  V30 17 N 0.689237 5.238329 3.127342 0
M  V30 18 O -0.788483 3.461366 3.355355 0
M  V30 19 C 0.584581 1.989131 1.145661 0
M  V30 20 N -0.509304 1.289941 1.718678 0
M  V30 21 C 1.391978 1.563430 0.129983 0
M  V30 22 C 1.013308 -1.890868 0.104555 0
M  V30 23 H -0.476724 -5.956313 1.587665 0
M  V30 24 H -1.647086 -4.686887 2.293285 0
M  V30 25 H -0.934136 -5.945115 3.279474 0
M  V30 26 H 1.467888 -4.274259 0.989912 0
M  V30 27 H 1.759305 -3.080774 2.296232 0
M  V30 28 H -0.233760 -1.871710 1.840026 0
M  V30 29 H -1.131084 -4.148447 0.059396 0
M  V30 30 H -2.006969 -2.856383 0.924241 0
M  V30 31 H -0.527376 -2.719936 -1.738073 0
M  V30 32 H -2.256171 -2.523232 -1.349261 0
M  V30 33 H -1.714795 -0.456417 0.014058 0
M  V30 34 H -1.187666 -0.284744 -1.664027 0
M  V30 35 H 2.265778 -0.787229 -2.153500 0
M  V30 36 H 3.975324 0.789089 -2.716201 0
M  V30 37 H 1.505165 5.725103 3.593962 0
M  V30 38 H 1.512693 5.706473 3.596204 0
M  V30 39 H -0.163747 0.610387 2.454167 0
M  V30 40 H -1.486152 1.488705 1.393285 0
M  V30 41 H 1.239947 -2.550759 -0.767379 0
M  V30 42 H 1.982196 -1.713231 0.614254 0
M  V30 END ATOM
M  V30 BEGIN BOND
M  V30 1 1 1 2
M  V30 2 1 2 3
M  V30 3 1 3 4
M  V30 4 1 4 5
M  V30 5 1 5 6
M  V30 6 1 6 7
M  V30 7 1 7 8
M  V30 8 1 8 9
M  V30 9 2 9 10
M  V30 10 1 10 11
M  V30 11 2 11 12
M  V30 12 1 12 13
M  V30 13 1 13 14
M  V30 14 1 14 15
M  V30 15 1 15 16
M  V30 16 1 16 17
M  V30 17 2 16 18
M  V30 18 2 15 19
M  V30 19 1 19 20
M  V30 20 1 19 21
M  V30 21 1 8 22
M  V30 22 1 22 4
M  V30 23 1 21 9
M  V30 24 2 21 13
M  V30 25 1 1 23
M  V30 26 1 1 24
M  V30 27 1 1 25
M  V30 28 1 3 26
M  V30 29 1 3 27
M  V30 30 1 4 28 CFG=1
M  V30 31 1 5 29
M  V30 32 1 5 30
M  V30 33 1 6 31
M  V30 34 1 6 32
M  V30 35 1 7 33
M  V30 36 1 7 34
M  V30 37 1 10 35
M  V30 38 1 11 36
M  V30 39 1 17 37
M  V30 40 1 17 38
M  V30 41 1 20 39
M  V30 42 1 20 40
M  V30 43 1 22 41
M  V30 44 1 22 42
M  V30 END BOND
M  V30 END CTAB
M  END
>  <Dataset>  (258) 
ChEMBL_Kinases

>  <Ligand_Instance>  (258) 
nan

>  <PDB_ID>  (258) 
nan

>  <Standardized_SMILES>  (258) 
COC[C@@H]1CCCN(c2ccnc3sc(C(N)=O)c(N)c23)C1

>  <Name>  (258) 
nan

>  <Pocket>  (258) 
nan

>  <ATP_Site>  (258) 
nan

>  <Peripheral>  (258) 
nan

>  <Num_H_Atoms_ProtBoundConf>  (258) 
nan

>  <Num_Resolved_Atoms>  (258) 
nan

>  <Num_Not_Resolved_Atoms>  (258) 
nan

$$$$
CHEMBL585753
     RDKit          3D

  0  0  0  0  0  0  0  0  0  0999 V3000
M  V30 BEGIN CTAB
M  V30 COUNTS 60 64 0 0 0
M  V30 BEGIN ATOM
M  V30 1 C 1.144161 -0.508739 4.059533 0
M  V30 2 C 1.213425 -1.798813 3.335190 0
M  V30 3 C 2.048598 -1.990635 2.254158 0
M  V30 4 N 2.841372 -0.836922 1.893161 0
M  V30 5 C 3.767225 -0.760540 0.832677 0
M  V30 6 C 5.016932 -1.283641 1.107720 0
M  V30 7 C 5.329954 -1.859927 2.389178 0
M  V30 8 N 5.567914 -2.325895 3.437936 0
M  V30 9 C 6.019308 -1.279788 0.175475 0
M  V30 10 N 5.722513 -0.743062 -1.012861 0
M  V30 11 C 4.516749 -0.237346 -1.280137 0
M  V30 12 C 3.468779 -0.210226 -0.389222 0
M  V30 13 C 2.179321 0.364691 -0.715455 0
M  V30 14 C 1.020350 0.536888 -0.006761 0
M  V30 15 C 0.098760 1.147398 -0.816524 0
M  V30 16 C -1.196662 1.518792 -0.544570 0
M  V30 17 C -1.986511 2.140031 -1.521271 0
M  V30 18 C -3.365967 2.562902 -1.322900 0
M  V30 19 N -4.426865 1.779359 -1.746308 0
M  V30 20 C -4.658157 0.456492 -1.386409 0
M  V30 21 C -3.759191 -0.605022 -1.929619 0
M  V30 22 O -3.860060 -0.536212 -3.328644 0
M  V30 23 C -4.285695 -2.006748 -1.581498 0
M  V30 24 O -4.237830 -2.225329 -0.206488 0
M  V30 25 C -1.348314 2.330576 -2.736440 0
M  V30 26 C -0.027774 1.946233 -2.997826 0
M  V30 27 C 0.730112 1.335745 -2.019124 0
M  V30 28 O 1.922872 0.859932 -1.883490 0
M  V30 29 C 2.201785 -3.125741 1.507174 0
M  V30 30 C 1.411187 -4.212009 1.898480 0
M  V30 31 C 0.549175 -4.083101 2.979600 0
M  V30 32 N -0.317725 -4.959250 3.564342 0
M  V30 33 C -0.945388 -4.346689 4.609590 0
M  V30 34 C -0.490977 -3.053554 4.718923 0
M  V30 35 C 0.436002 -2.895629 3.705163 0
M  V30 36 H 0.931170 0.358664 3.396509 0
M  V30 37 H 0.377801 -0.577068 4.852013 0
M  V30 38 H 2.153772 -0.317764 4.511396 0
M  V30 39 H 2.815852 0.081086 2.385362 0
M  V30 40 H 6.999064 -1.681266 0.368748 0
M  V30 41 H 4.340923 0.189288 -2.280931 0
M  V30 42 H 0.863457 0.248690 1.007527 0
M  V30 43 H -1.669666 1.360864 0.405712 0
M  V30 44 H -3.532000 2.916343 -0.242304 0
M  V30 45 H -3.453843 3.566800 -1.869947 0
M  V30 46 H -5.307614 2.337069 -1.733085 0
M  V30 47 H -4.808248 0.329080 -0.265322 0
M  V30 48 H -5.696960 0.181534 -1.769516 0
M  V30 49 H -2.766429 -0.534511 -1.531623 0
M  V30 50 H -4.796882 -0.493126 -3.583215 0
M  V30 51 H -5.346262 -2.109831 -1.917838 0
M  V30 52 H -3.621223 -2.760917 -2.055361 0
M  V30 53 H -3.744969 -3.059006 0.025442 0
M  V30 54 H -1.845162 2.801498 -3.580928 0
M  V30 55 H 0.420601 2.117050 -3.958639 0
M  V30 56 H 2.864478 -3.221282 0.678379 0
M  V30 57 H 1.434373 -5.172031 1.392179 0
M  V30 58 H -0.502106 -5.955379 3.284141 0
M  V30 59 H -1.686771 -4.761418 5.276966 0
M  V30 60 H -0.766060 -2.283550 5.426450 0
M  V30 END ATOM
M  V30 BEGIN BOND
M  V30 1 1 1 2
M  V30 2 2 2 3
M  V30 3 1 3 4
M  V30 4 1 4 5
M  V30 5 2 5 6
M  V30 6 1 6 7
M  V30 7 3 7 8
M  V30 8 1 6 9
M  V30 9 2 9 10
M  V30 10 1 10 11
M  V30 11 2 11 12
M  V30 12 1 12 13
M  V30 13 2 13 14
M  V30 14 1 14 15
M  V30 15 2 15 16
M  V30 16 1 16 17
M  V30 17 1 17 18
M  V30 18 1 18 19
M  V30 19 1 19 20
M  V30 20 1 20 21
M  V30 21 1 21 22
M  V30 22 1 21 23
M  V30 23 1 23 24
M  V30 24 2 17 25
M  V30 25 1 25 26
M  V30 26 2 26 27
M  V30 27 1 27 28
M  V30 28 1 3 29
M  V30 29 2 29 30
M  V30 30 1 30 31
M  V30 31 1 31 32
M  V30 32 1 32 33
M  V30 33 2 33 34
M  V30 34 1 34 35
M  V30 35 1 35 2
M  V30 36 1 12 5
M  V30 37 1 28 13
M  V30 38 2 35 31
M  V30 39 1 27 15
M  V30 40 1 1 36
M  V30 41 1 1 37
M  V30 42 1 1 38
M  V30 43 1 4 39
M  V30 44 1 9 40
M  V30 45 1 11 41
M  V30 46 1 14 42
M  V30 47 1 16 43
M  V30 48 1 18 44
M  V30 49 1 18 45
M  V30 50 1 19 46
M  V30 51 1 20 47
M  V30 52 1 20 48
M  V30 53 1 21 49
M  V30 54 1 22 50
M  V30 55 1 23 51
M  V30 56 1 23 52
M  V30 57 1 24 53
M  V30 58 1 25 54
M  V30 59 1 26 55
M  V30 60 1 29 56
M  V30 61 1 30 57
M  V30 62 1 32 58
M  V30 63 1 33 59
M  V30 64 1 34 60
M  V30 END BOND
M  V30 END CTAB
M  END
>  <Dataset>  (259) 
ChEMBL_Kinases

>  <Ligand_Instance>  (259) 
nan

>  <PDB_ID>  (259) 
nan

>  <Standardized_SMILES>  (259) 
Cc1c(Nc2c(C#N)cncc2-c2cc3cc(CNCC(O)CO)ccc3o2)ccc2[nH]ccc12

>  <Name>  (259) 
nan

>  <Pocket>  (259) 
nan

>  <ATP_Site>  (259) 
nan

>  <Peripheral>  (259) 
nan

>  <Num_H_Atoms_ProtBoundConf>  (259) 
nan

>  <Num_Resolved_Atoms>  (259) 
nan

>  <Num_Not_Resolved_Atoms>  (259) 
nan

$$$$
CHEMBL5088456
     RDKit          3D

  0  0  0  0  0  0  0  0  0  0999 V3000
M  V30 BEGIN CTAB
M  V30 COUNTS 60 64 0 0 0
M  V30 BEGIN ATOM
M  V30 1 C 2.425312 -2.727487 5.075074 0
M  V30 2 O 2.633651 -2.690164 3.688284 0
M  V30 3 C 2.894257 -1.575295 2.942451 0
M  V30 4 C 3.010464 -0.295070 3.393066 0
M  V30 5 C 3.272995 0.793070 2.563900 0
M  V30 6 C 3.428002 0.600830 1.214204 0
M  V30 7 S 3.783235 1.822016 0.018441 0
M  V30 8 O 5.121629 2.430344 0.433576 0
M  V30 9 O 4.010898 1.172295 -1.329062 0
M  V30 10 N 2.614561 3.048633 -0.094850 0
M  V30 11 C 1.295320 2.608917 -0.456570 0
M  V30 12 C 0.355685 3.778127 -0.540357 0
M  V30 13 C -1.042318 3.370795 -0.846279 0
M  V30 14 N -1.637257 2.516532 0.162930 0
M  V30 15 C -1.719801 1.168859 0.576193 0
M  V30 16 N -2.172454 0.880811 1.823603 0
M  V30 17 C -2.275236 -0.387272 2.204938 0
M  V30 18 C -1.924302 -1.375824 1.330887 0
M  V30 19 C -1.467920 -1.102907 0.065738 0
M  V30 20 C -1.071210 -2.094989 -0.924203 0
M  V30 21 C -1.978130 -3.105924 -1.141679 0
M  V30 22 C -3.264890 -3.659057 -0.742547 0
M  V30 23 C -3.487327 -4.423363 0.380725 0
M  V30 24 C -4.747066 -4.925081 0.719979 0
M  V30 25 C -5.766438 -4.605686 -0.148834 0
M  V30 26 C -5.618077 -3.848633 -1.287204 0
M  V30 27 C -4.331041 -3.374496 -1.572174 0
M  V30 28 N -1.462302 -3.912624 -2.094778 0
M  V30 29 C -0.206471 -3.336758 -2.436408 0
M  V30 30 S 1.202612 -3.464837 -3.437209 0
M  V30 31 C 1.982644 -2.048101 -2.832782 0
M  V30 32 C 1.110761 -1.593165 -1.920643 0
M  V30 33 N 0.006341 -2.267708 -1.738512 0
M  V30 34 N -1.370024 0.183767 -0.297342 0
M  V30 35 C 3.307694 -0.721089 0.774295 0
M  V30 36 C 3.045938 -1.828569 1.580120 0
M  V30 37 H 1.320956 -2.865933 5.296748 0
M  V30 38 H 2.945583 -3.630261 5.494039 0
M  V30 39 H 2.767257 -1.804064 5.567809 0
M  V30 40 H 2.887545 -0.112562 4.457183 0
M  V30 41 H 3.368005 1.810558 2.911897 0
M  V30 42 H 2.924006 3.762836 -0.768742 0
M  V30 43 H 1.338761 2.112926 -1.441114 0
M  V30 44 H 0.960131 1.895266 0.322417 0
M  V30 45 H 0.416040 4.422934 0.373673 0
M  V30 46 H 0.684396 4.457061 -1.379533 0
M  V30 47 H -1.694874 4.220640 -1.140540 0
M  V30 48 H -0.984979 2.730032 -1.779070 0
M  V30 49 H -2.190292 3.198539 0.777764 0
M  V30 50 H -2.643430 -0.540224 3.206686 0
M  V30 51 H -2.004018 -2.396486 1.666826 0
M  V30 52 H -2.613380 -4.606486 0.981404 0
M  V30 53 H -4.854639 -5.522450 1.620589 0
M  V30 54 H -6.739100 -5.002707 0.120562 0
M  V30 55 H -6.494990 -3.652935 -1.911793 0
M  V30 56 H -4.226731 -2.787089 -2.461263 0
M  V30 57 H 2.991138 -1.655096 -3.170573 0
M  V30 58 H 1.420060 -0.655887 -1.411810 0
M  V30 59 H 3.445308 -0.932040 -0.295761 0
M  V30 60 H 2.974182 -2.802428 1.120499 0
M  V30 END ATOM
M  V30 BEGIN BOND
M  V30 1 1 1 2
M  V30 2 1 2 3
M  V30 3 2 3 4
M  V30 4 1 4 5
M  V30 5 2 5 6
M  V30 6 1 6 7
M  V30 7 2 7 8
M  V30 8 2 7 9
M  V30 9 1 7 10
M  V30 10 1 10 11
M  V30 11 1 11 12
M  V30 12 1 12 13
M  V30 13 1 13 14
M  V30 14 1 14 15
M  V30 15 2 15 16
M  V30 16 1 16 17
M  V30 17 2 17 18
M  V30 18 1 18 19
M  V30 19 1 19 20
M  V30 20 2 20 21
M  V30 21 1 21 22
M  V30 22 2 22 23
M  V30 23 1 23 24
M  V30 24 2 24 25
M  V30 25 1 25 26
M  V30 26 2 26 27
M  V30 27 1 21 28
M  V30 28 2 28 29
M  V30 29 1 29 30
M  V30 30 1 30 31
M  V30 31 2 31 32
M  V30 32 1 32 33
M  V30 33 2 19 34
M  V30 34 1 6 35
M  V30 35 2 35 36
M  V30 36 1 36 3
M  V30 37 1 34 15
M  V30 38 1 33 20
M  V30 39 1 27 22
M  V30 40 1 33 29
M  V30 41 1 1 37
M  V30 42 1 1 38
M  V30 43 1 1 39
M  V30 44 1 4 40
M  V30 45 1 5 41
M  V30 46 1 10 42
M  V30 47 1 11 43
M  V30 48 1 11 44
M  V30 49 1 12 45
M  V30 50 1 12 46
M  V30 51 1 13 47
M  V30 52 1 13 48
M  V30 53 1 14 49
M  V30 54 1 17 50
M  V30 55 1 18 51
M  V30 56 1 23 52
M  V30 57 1 24 53
M  V30 58 1 25 54
M  V30 59 1 26 55
M  V30 60 1 27 56
M  V30 61 1 31 57
M  V30 62 1 32 58
M  V30 63 1 35 59
M  V30 64 1 36 60
M  V30 END BOND
M  V30 END CTAB
M  END
>  <Dataset>  (260) 
ChEMBL_Kinases

>  <Ligand_Instance>  (260) 
nan

>  <PDB_ID>  (260) 
nan

>  <Standardized_SMILES>  (260) 
COc1ccc(S(=O)(=O)NCCCNc2nccc(-c3c(-c4ccccc4)nc4sccn34)n2)cc1

>  <Name>  (260) 
nan

>  <Pocket>  (260) 
nan

>  <ATP_Site>  (260) 
nan

>  <Peripheral>  (260) 
nan

>  <Num_H_Atoms_ProtBoundConf>  (260) 
nan

>  <Num_Resolved_Atoms>  (260) 
nan

>  <Num_Not_Resolved_Atoms>  (260) 
nan

$$$$
CHEMBL585681
     RDKit          3D

  0  0  0  0  0  0  0  0  0  0999 V3000
M  V30 BEGIN CTAB
M  V30 COUNTS 48 51 0 0 0
M  V30 BEGIN ATOM
M  V30 1 C 0.327740 -2.249605 -2.127838 0
M  V30 2 C 0.002076 -2.425128 -0.716154 0
M  V30 3 C 0.725550 -1.817202 0.296134 0
M  V30 4 N 1.830411 -0.959530 0.081831 0
M  V30 5 C 2.301737 0.157415 -0.573845 0
M  V30 6 C 3.158266 -0.219365 -1.626021 0
M  V30 7 C 3.558315 -1.589401 -1.920704 0
M  V30 8 N 3.866988 -2.692330 -2.140923 0
M  V30 9 C 3.749577 0.677580 -2.491303 0
M  V30 10 N 3.488647 1.979500 -2.311410 0
M  V30 11 C 2.686580 2.415606 -1.332711 0
M  V30 12 C 2.105321 1.507918 -0.478417 0
M  V30 13 C 1.295033 2.013246 0.596142 0
M  V30 14 C 0.656728 1.654885 1.674137 0
M  V30 15 C -0.139850 2.361013 2.662065 0
M  V30 16 C -0.666594 1.616025 3.689982 0
M  V30 17 C -1.419094 2.307792 4.615677 0
M  V30 18 C -1.655568 3.663215 4.554822 0
M  V30 19 C -1.122632 4.409044 3.517269 0
M  V30 20 C -0.369156 3.714920 2.590826 0
M  V30 21 C 0.245633 -2.094871 1.582693 0
M  V30 22 C -0.814348 -2.869377 1.906122 0
M  V30 23 C -1.473828 -3.431500 0.863492 0
M  V30 24 C -1.103335 -3.236650 -0.428158 0
M  V30 25 C -1.977277 -3.944218 -1.235883 0
M  V30 26 C -2.904540 -4.589156 -0.449116 0
M  V30 27 N -2.556498 -4.246888 0.812647 0
M  V30 28 C -3.286036 -4.718056 1.994494 0
M  V30 29 H 0.572023 -1.204112 -2.407394 0
M  V30 30 H 1.088947 -2.993945 -2.454777 0
M  V30 31 H -0.563387 -2.490147 -2.745175 0
M  V30 32 H 2.613274 -1.356620 0.686337 0
M  V30 33 H 4.403641 0.440232 -3.302097 0
M  V30 34 H 2.523191 3.473482 -1.248191 0
M  V30 35 H 1.078180 3.098393 0.575079 0
M  V30 36 H 0.841636 0.597164 1.763991 0
M  V30 37 H -0.509311 0.561820 3.777657 0
M  V30 38 H -1.849024 1.752376 5.438393 0
M  V30 39 H -2.257782 4.160443 5.313063 0
M  V30 40 H -1.297251 5.467596 3.454502 0
M  V30 41 H 0.032050 4.325518 1.794586 0
M  V30 42 H 0.762706 -1.659389 2.457361 0
M  V30 43 H -1.137188 -3.046613 2.913652 0
M  V30 44 H -1.934482 -3.981637 -2.315970 0
M  V30 45 H -3.717878 -5.216747 -0.720799 0
M  V30 46 H -3.101549 -4.066965 2.871073 0
M  V30 47 H -2.953482 -5.741896 2.296801 0
M  V30 48 H -4.360135 -4.681050 1.740784 0
M  V30 END ATOM
M  V30 BEGIN BOND
M  V30 1 1 1 2
M  V30 2 2 2 3
M  V30 3 1 3 4
M  V30 4 1 4 5
M  V30 5 2 5 6
M  V30 6 1 6 7
M  V30 7 3 7 8
M  V30 8 1 6 9
M  V30 9 2 9 10
M  V30 10 1 10 11
M  V30 11 2 11 12
M  V30 12 1 12 13
M  V30 13 2 13 14
M  V30 14 1 14 15
M  V30 15 2 15 16
M  V30 16 1 16 17
M  V30 17 2 17 18
M  V30 18 1 18 19
M  V30 19 2 19 20
M  V30 20 1 3 21
M  V30 21 2 21 22
M  V30 22 1 22 23
M  V30 23 2 23 24
M  V30 24 1 24 25
M  V30 25 2 25 26
M  V30 26 1 26 27
M  V30 27 1 27 28
M  V30 28 1 24 2
M  V30 29 1 12 5
M  V30 30 1 20 15
M  V30 31 1 27 23
M  V30 32 1 1 29
M  V30 33 1 1 30
M  V30 34 1 1 31
M  V30 35 1 4 32
M  V30 36 1 9 33
M  V30 37 1 11 34
M  V30 38 1 13 35
M  V30 39 1 14 36
M  V30 40 1 16 37
M  V30 41 1 17 38
M  V30 42 1 18 39
M  V30 43 1 19 40
M  V30 44 1 20 41
M  V30 45 1 21 42
M  V30 46 1 22 43
M  V30 47 1 25 44
M  V30 48 1 26 45
M  V30 49 1 28 46
M  V30 50 1 28 47
M  V30 51 1 28 48
M  V30 END BOND
M  V30 END CTAB
M  END
>  <Dataset>  (261) 
ChEMBL_Kinases

>  <Ligand_Instance>  (261) 
nan

>  <PDB_ID>  (261) 
nan

>  <Standardized_SMILES>  (261) 
Cc1c(Nc2c(C#N)cncc2/C=C/c2ccccc2)ccc2c1ccn2C

>  <Name>  (261) 
nan

>  <Pocket>  (261) 
nan

>  <ATP_Site>  (261) 
nan

>  <Peripheral>  (261) 
nan

>  <Num_H_Atoms_ProtBoundConf>  (261) 
nan

>  <Num_Resolved_Atoms>  (261) 
nan

>  <Num_Not_Resolved_Atoms>  (261) 
nan

$$$$
CHEMBL5088528
     RDKit          3D

  0  0  0  0  0  0  0  0  0  0999 V3000
M  V30 BEGIN CTAB
M  V30 COUNTS 50 51 0 0 0
M  V30 BEGIN ATOM
M  V30 1 C -2.838099 -6.954277 -1.861309 0
M  V30 2 C -1.879837 -6.512753 -0.820187 0
M  V30 3 C -1.578619 -5.193175 -0.564259 0
M  V30 4 C -0.703687 -4.708124 0.380889 0
M  V30 5 C -0.505004 -3.273305 0.516981 0
M  V30 6 C 0.358101 -2.748750 1.448435 0
M  V30 7 C 0.461857 -1.382761 1.485249 0
M  V30 8 C -0.236214 -0.531988 0.658651 0
M  V30 9 O -0.218341 0.744165 0.603842 0
M  V30 10 C -0.200048 2.049567 0.547789 0
M  V30 11 C 1.168139 2.687060 0.253860 0 CFG=1
M  V30 12 C 1.594453 2.224262 -1.107126 0
M  V30 13 N 0.912031 4.128724 0.171852 0
M  V30 14 C 2.214516 2.376958 1.249654 0
M  V30 15 C 2.038012 2.815655 2.647069 0
M  V30 16 C 1.899713 4.328309 2.781190 0
M  V30 17 C 1.025731 2.152041 3.497526 0
M  V30 18 C -1.099978 -1.132601 -0.269088 0
M  V30 19 C -1.943550 -0.369829 -1.251656 0
M  V30 20 N -1.216605 -2.489257 -0.321120 0
M  V30 21 C -0.054674 -5.644084 1.160228 0
M  V30 22 C -0.361069 -6.978831 0.899524 0
M  V30 23 N -1.222154 -7.414449 -0.033286 0
M  V30 24 H -3.490631 -7.794257 -1.487990 0
M  V30 25 H -3.551486 -6.150299 -2.129452 0
M  V30 26 H -2.264840 -7.268814 -2.757947 0
M  V30 27 H -2.133442 -4.506932 -1.224301 0
M  V30 28 H 0.927766 -3.362288 2.118820 0
M  V30 29 H 1.144248 -0.976909 2.215164 0
M  V30 30 H -0.535116 2.602216 1.487131 0
M  V30 31 H -0.912160 2.529313 -0.221404 0
M  V30 32 H 1.978382 1.194903 -1.093502 0
M  V30 33 H 0.728480 2.216951 -1.822906 0
M  V30 34 H 2.326212 2.940045 -1.576977 0
M  V30 35 H 0.466524 4.267184 -0.774917 0
M  V30 36 H 1.837488 4.630397 0.076414 0
M  V30 37 H 2.315126 1.251543 1.280515 0
M  V30 38 H 3.237375 2.704481 0.915897 0
M  V30 39 H 3.048389 2.616979 3.146074 0
M  V30 40 H 0.896488 4.696826 2.484814 0
M  V30 41 H 2.728627 4.877381 2.290521 0
M  V30 42 H 1.988148 4.585775 3.875097 0
M  V30 43 H 1.503810 1.863956 4.491811 0
M  V30 44 H 0.145782 2.808361 3.729429 0
M  V30 45 H 0.741829 1.179727 3.063717 0
M  V30 46 H -2.927152 -0.922455 -1.284288 0
M  V30 47 H -1.519107 -0.380954 -2.265438 0
M  V30 48 H -2.202011 0.633413 -0.889720 0
M  V30 49 H 0.640874 -5.348428 1.916576 0
M  V30 50 H 0.167246 -7.702111 1.531419 0
M  V30 END ATOM
M  V30 BEGIN BOND
M  V30 1 1 1 2
M  V30 2 2 2 3
M  V30 3 1 3 4
M  V30 4 1 4 5
M  V30 5 2 5 6
M  V30 6 1 6 7
M  V30 7 2 7 8
M  V30 8 1 8 9
M  V30 9 1 9 10
M  V30 10 1 10 11
M  V30 11 1 11 12
M  V30 12 1 11 13 CFG=3
M  V30 13 1 11 14
M  V30 14 1 14 15
M  V30 15 1 15 16
M  V30 16 1 15 17
M  V30 17 1 8 18
M  V30 18 1 18 19
M  V30 19 2 18 20
M  V30 20 2 4 21
M  V30 21 1 21 22
M  V30 22 2 22 23
M  V30 23 1 23 2
M  V30 24 1 20 5
M  V30 25 1 1 24
M  V30 26 1 1 25
M  V30 27 1 1 26
M  V30 28 1 3 27
M  V30 29 1 6 28
M  V30 30 1 7 29
M  V30 31 1 10 30
M  V30 32 1 10 31
M  V30 33 1 12 32
M  V30 34 1 12 33
M  V30 35 1 12 34
M  V30 36 1 13 35
M  V30 37 1 13 36
M  V30 38 1 14 37
M  V30 39 1 14 38
M  V30 40 1 15 39
M  V30 41 1 16 40
M  V30 42 1 16 41
M  V30 43 1 16 42
M  V30 44 1 17 43
M  V30 45 1 17 44
M  V30 46 1 17 45
M  V30 47 1 19 46
M  V30 48 1 19 47
M  V30 49 1 19 48
M  V30 50 1 21 49
M  V30 51 1 22 50
M  V30 END BOND
M  V30 END CTAB
M  END
>  <Dataset>  (262) 
ChEMBL_Kinases

>  <Ligand_Instance>  (262) 
nan

>  <PDB_ID>  (262) 
nan

>  <Standardized_SMILES>  (262) 
Cc1cc(-c2ccc(OC[C@@](C)(N)CC(C)C)c(C)n2)ccn1

>  <Name>  (262) 
nan

>  <Pocket>  (262) 
nan

>  <ATP_Site>  (262) 
nan

>  <Peripheral>  (262) 
nan

>  <Num_H_Atoms_ProtBoundConf>  (262) 
nan

>  <Num_Resolved_Atoms>  (262) 
nan

>  <Num_Not_Resolved_Atoms>  (262) 
nan

$$$$
CHEMBL5088551
     RDKit          3D

  0  0  0  0  0  0  0  0  0  0999 V3000
M  V30 BEGIN CTAB
M  V30 COUNTS 60 63 0 0 0
M  V30 BEGIN ATOM
M  V30 1 C -0.788001 -5.836398 1.657551 0
M  V30 2 C -1.469101 -5.047030 0.603695 0
M  V30 3 C -0.895913 -3.881451 0.086952 0
M  V30 4 N 0.351825 -3.295821 0.440915 0
M  V30 5 C 0.879628 -2.081950 -0.077449 0
M  V30 6 N 1.396610 -1.989925 -1.334543 0
M  V30 7 C 1.907298 -0.822678 -1.793397 0
M  V30 8 N 2.438536 -0.738790 -3.107158 0
M  V30 9 C 1.917754 0.303784 -1.000589 0
M  V30 10 C 2.333518 1.603971 -1.104852 0
M  V30 11 C 2.921813 2.036229 -2.348749 0
M  V30 12 N 3.416125 2.393249 -3.352671 0
M  V30 13 C 2.090437 2.312935 0.049953 0
M  V30 14 N 2.426101 3.693684 0.268239 0
M  V30 15 C 3.190635 4.420391 -0.735424 0
M  V30 16 C 3.739251 5.632765 0.008910 0
M  V30 17 C 3.426644 5.382952 1.461997 0
M  V30 18 C 2.126305 4.587486 1.343369 0 CFG=1
M  V30 19 C 1.039691 5.593173 0.951826 0
M  V30 20 N 1.513423 1.408559 0.859609 0
M  V30 21 C 1.060970 1.626594 2.203882 0
M  V30 22 C 1.392143 0.195894 0.267775 0
M  V30 23 N 0.896588 -0.979296 0.681518 0
M  V30 24 C -1.789744 -3.429250 -0.860887 0
M  V30 25 N -2.847982 -4.277287 -0.914862 0
M  V30 26 N -2.640484 -5.252223 -0.022603 0
M  V30 27 C -3.583639 -6.311244 0.191959 0
M  V30 28 C -4.688659 -5.985242 1.158951 0
M  V30 29 C -5.501995 -4.787794 0.649135 0
M  V30 30 C -4.251496 -5.711023 2.557933 0
M  V30 31 O -5.573404 -7.069841 1.172955 0
M  V30 32 H 0.043531 -6.467004 1.229823 0
M  V30 33 H -1.516509 -6.455077 2.202805 0
M  V30 34 H -0.255456 -5.161267 2.378869 0
M  V30 35 H 0.930409 -3.786817 1.134538 0
M  V30 36 H 3.284375 -0.840962 -3.708122 0
M  V30 37 H 1.999604 -0.490904 -4.036970 0
M  V30 38 H 4.043047 3.804096 -1.117882 0
M  V30 39 H 2.511001 4.707779 -1.560246 0
M  V30 40 H 4.846618 5.693699 -0.190662 0
M  V30 41 H 3.224288 6.537301 -0.370520 0
M  V30 42 H 4.179664 4.763754 1.953635 0
M  V30 43 H 3.215197 6.324075 2.005829 0
M  V30 44 H 1.858519 4.142043 2.302050 0
M  V30 45 H 0.274967 5.660150 1.762116 0
M  V30 46 H 1.501082 6.572160 0.731253 0
M  V30 47 H 0.584224 5.228013 0.016714 0
M  V30 48 H 1.957776 1.894338 2.821780 0
M  V30 49 H 0.719847 0.658549 2.691882 0
M  V30 50 H 0.312582 2.407238 2.337709 0
M  V30 51 H -1.710932 -2.546239 -1.486476 0
M  V30 52 H -4.090161 -6.570548 -0.783114 0
M  V30 53 H -3.099371 -7.253227 0.569069 0
M  V30 54 H -4.883198 -3.886592 0.563205 0
M  V30 55 H -6.324310 -4.556221 1.351539 0
M  V30 56 H -6.002003 -5.063191 -0.328461 0
M  V30 57 H -4.058657 -6.616842 3.169749 0
M  V30 58 H -5.119346 -5.185469 3.057310 0
M  V30 59 H -3.392052 -4.979083 2.584512 0
M  V30 60 H -5.512937 -7.573142 2.018998 0
M  V30 END ATOM
M  V30 BEGIN BOND
M  V30 1 1 1 2
M  V30 2 2 2 3
M  V30 3 1 3 4
M  V30 4 1 4 5
M  V30 5 2 5 6
M  V30 6 1 6 7
M  V30 7 1 7 8
M  V30 8 2 7 9
M  V30 9 1 9 10
M  V30 10 1 10 11
M  V30 11 3 11 12
M  V30 12 2 10 13
M  V30 13 1 13 14
M  V30 14 1 14 15
M  V30 15 1 15 16
M  V30 16 1 16 17
M  V30 17 1 17 18
M  V30 18 1 18 19
M  V30 19 1 13 20
M  V30 20 1 20 21
M  V30 21 1 20 22
M  V30 22 2 22 23
M  V30 23 1 3 24
M  V30 24 2 24 25
M  V30 25 1 25 26
M  V30 26 1 26 27
M  V30 27 1 27 28
M  V30 28 1 28 29
M  V30 29 1 28 30
M  V30 30 1 28 31
M  V30 31 1 26 2
M  V30 32 1 23 5
M  V30 33 1 22 9
M  V30 34 1 18 14
M  V30 35 1 1 32
M  V30 36 1 1 33
M  V30 37 1 1 34
M  V30 38 1 4 35
M  V30 39 1 8 36
M  V30 40 1 8 37
M  V30 41 1 15 38
M  V30 42 1 15 39
M  V30 43 1 16 40
M  V30 44 1 16 41
M  V30 45 1 17 42
M  V30 46 1 17 43
M  V30 47 1 18 44 CFG=1
M  V30 48 1 19 45
M  V30 49 1 19 46
M  V30 50 1 19 47
M  V30 51 1 21 48
M  V30 52 1 21 49
M  V30 53 1 21 50
M  V30 54 1 24 51
M  V30 55 1 27 52
M  V30 56 1 27 53
M  V30 57 1 29 54
M  V30 58 1 29 55
M  V30 59 1 29 56
M  V30 60 1 30 57
M  V30 61 1 30 58
M  V30 62 1 30 59
M  V30 63 1 31 60
M  V30 END BOND
M  V30 END CTAB
M  END
>  <Dataset>  (263) 
ChEMBL_Kinases

>  <Ligand_Instance>  (263) 
nan

>  <PDB_ID>  (263) 
nan

>  <Standardized_SMILES>  (263) 
Cc1c(Nc2nc(N)c3c(C#N)c(N4CCC[C@H]4C)n(C)c3n2)cnn1CC(C)(C)O

>  <Name>  (263) 
nan

>  <Pocket>  (263) 
nan

>  <ATP_Site>  (263) 
nan

>  <Peripheral>  (263) 
nan

>  <Num_H_Atoms_ProtBoundConf>  (263) 
nan

>  <Num_Resolved_Atoms>  (263) 
nan

>  <Num_Not_Resolved_Atoms>  (263) 
nan

$$$$
CHEMBL585666
     RDKit          3D

  0  0  0  0  0  0  0  0  0  0999 V3000
M  V30 BEGIN CTAB
M  V30 COUNTS 63 67 0 0 0
M  V30 BEGIN ATOM
M  V30 1 C 3.008407 -0.531390 4.268547 0
M  V30 2 N 2.627499 0.816853 3.946582 0
M  V30 3 C 3.534799 1.815997 3.999166 0
M  V30 4 O 4.734772 1.627001 4.324915 0
M  V30 5 C 3.162719 3.104616 3.689493 0
M  V30 6 C 4.045536 4.272934 3.707705 0
M  V30 7 C 4.196709 5.036123 4.856001 0
M  V30 8 Cl 3.309107 4.580774 6.299400 0
M  V30 9 C 5.035799 6.135679 4.851526 0
M  V30 10 C 5.728124 6.475250 3.693386 0
M  V30 11 C 5.563135 5.702462 2.562432 0
M  V30 12 C 4.729626 4.599860 2.545768 0
M  V30 13 Cl 4.537849 3.637305 1.099926 0
M  V30 14 C 1.854628 3.378371 3.322826 0
M  V30 15 C 0.927363 2.332841 3.273207 0
M  V30 16 C -0.381193 2.571188 2.912573 0
M  V30 17 N -1.245303 1.533472 2.877308 0
M  V30 18 C -0.827360 0.294956 3.189843 0
M  V30 19 N -1.862589 -0.673416 3.100824 0
M  V30 20 C -2.116191 -1.377976 1.891699 0
M  V30 21 C -3.117966 -2.317252 1.796306 0
M  V30 22 C -3.366021 -2.999183 0.632662 0
M  V30 23 C -2.625844 -2.783431 -0.510142 0
M  V30 24 O -2.677269 -3.322614 -1.761046 0
M  V30 25 C -3.575366 -4.311398 -2.222015 0
M  V30 26 O -2.800277 -5.382104 -2.630276 0
M  V30 27 C -2.785643 -5.550981 -4.007941 0
M  V30 28 C -1.606483 -6.456663 -4.321468 0
M  V30 29 O -0.460530 -5.792121 -3.854384 0
M  V30 30 C -2.546394 -4.251808 -4.750978 0
M  V30 31 O -2.592343 -4.512732 -6.109874 0
M  V30 32 C -3.555435 -3.194338 -4.424661 0
M  V30 33 O -4.323497 -2.914916 -5.541713 0
M  V30 34 C -4.441991 -3.773235 -3.337112 0
M  V30 35 O -5.360591 -2.851696 -2.904648 0
M  V30 36 C -1.601881 -1.829393 -0.428064 0
M  V30 37 C -1.357497 -1.139209 0.764936 0
M  V30 38 N 0.460389 0.040133 3.548132 0
M  V30 39 C 1.356517 1.061569 3.593963 0
M  V30 40 H 2.640438 -1.174233 3.432797 0
M  V30 41 H 4.105969 -0.671897 4.327668 0
M  V30 42 H 2.486741 -0.894360 5.182518 0
M  V30 43 H 5.172377 6.748598 5.732827 0
M  V30 44 H 6.396747 7.328226 3.643162 0
M  V30 45 H 6.090599 5.939787 1.636517 0
M  V30 46 H 1.498278 4.366867 3.067990 0
M  V30 47 H -0.643613 3.594753 2.674479 0
M  V30 48 H -2.453615 -0.877822 3.935137 0
M  V30 49 H -3.734445 -2.537759 2.644685 0
M  V30 50 H -4.129535 -3.748188 0.475556 0
M  V30 51 H -4.240298 -4.575037 -1.375600 0
M  V30 52 H -3.674425 -6.058040 -4.418035 0
M  V30 53 H -1.722404 -7.366629 -3.713514 0
M  V30 54 H -1.538798 -6.667072 -5.407217 0
M  V30 55 H 0.205227 -6.428110 -3.492069 0
M  V30 56 H -1.536431 -3.841384 -4.543175 0
M  V30 57 H -1.831158 -4.143863 -6.607331 0
M  V30 58 H -3.071297 -2.251407 -4.101470 0
M  V30 59 H -3.891151 -2.192683 -6.075715 0
M  V30 60 H -4.993543 -4.621157 -3.794479 0
M  V30 61 H -4.872154 -1.982922 -2.798477 0
M  V30 62 H -0.922248 -1.529874 -1.220243 0
M  V30 63 H -0.582037 -0.399892 0.869477 0
M  V30 END ATOM
M  V30 BEGIN BOND
M  V30 1 1 1 2
M  V30 2 1 2 3
M  V30 3 2 3 4
M  V30 4 1 3 5
M  V30 5 1 5 6
M  V30 6 2 6 7
M  V30 7 1 7 8
M  V30 8 1 7 9
M  V30 9 2 9 10
M  V30 10 1 10 11
M  V30 11 2 11 12
M  V30 12 1 12 13
M  V30 13 2 5 14
M  V30 14 1 14 15
M  V30 15 2 15 16
M  V30 16 1 16 17
M  V30 17 2 17 18
M  V30 18 1 18 19
M  V30 19 1 19 20
M  V30 20 2 20 21
M  V30 21 1 21 22
M  V30 22 2 22 23
M  V30 23 1 23 24
M  V30 24 1 24 25
M  V30 25 1 25 26
M  V30 26 1 26 27
M  V30 27 1 27 28
M  V30 28 1 28 29
M  V30 29 1 27 30
M  V30 30 1 30 31
M  V30 31 1 30 32
M  V30 32 1 32 33
M  V30 33 1 32 34
M  V30 34 1 34 35
M  V30 35 1 23 36
M  V30 36 2 36 37
M  V30 37 1 18 38
M  V30 38 2 38 39
M  V30 39 1 39 2
M  V30 40 1 12 6
M  V30 41 1 39 15
M  V30 42 1 37 20
M  V30 43 1 34 25
M  V30 44 1 1 40
M  V30 45 1 1 41
M  V30 46 1 1 42
M  V30 47 1 9 43
M  V30 48 1 10 44
M  V30 49 1 11 45
M  V30 50 1 14 46
M  V30 51 1 16 47
M  V30 52 1 19 48
M  V30 53 1 21 49
M  V30 54 1 22 50
M  V30 55 1 25 51
M  V30 56 1 27 52
M  V30 57 1 28 53
M  V30 58 1 28 54
M  V30 59 1 29 55
M  V30 60 1 30 56
M  V30 61 1 31 57
M  V30 62 1 32 58
M  V30 63 1 33 59
M  V30 64 1 34 60
M  V30 65 1 35 61
M  V30 66 1 36 62
M  V30 67 1 37 63
M  V30 END BOND
M  V30 END CTAB
M  END
>  <Dataset>  (264) 
ChEMBL_Kinases

>  <Ligand_Instance>  (264) 
nan

>  <PDB_ID>  (264) 
nan

>  <Standardized_SMILES>  (264) 
Cn1c(=O)c(-c2c(Cl)cccc2Cl)cc2cnc(Nc3ccc(OC4OC(CO)C(O)C(O)C4O)cc3)nc21

>  <Name>  (264) 
nan

>  <Pocket>  (264) 
nan

>  <ATP_Site>  (264) 
nan

>  <Peripheral>  (264) 
nan

>  <Num_H_Atoms_ProtBoundConf>  (264) 
nan

>  <Num_Resolved_Atoms>  (264) 
nan

>  <Num_Not_Resolved_Atoms>  (264) 
nan

$$$$
CHEMBL5087151
     RDKit          3D

  0  0  0  0  0  0  0  0  0  0999 V3000
M  V30 BEGIN CTAB
M  V30 COUNTS 61 65 0 0 0
M  V30 BEGIN ATOM
M  V30 1 C -1.309902 -3.779305 4.256032 0
M  V30 2 C -0.869156 -2.382922 3.998193 0
M  V30 3 C -1.015719 -1.442568 4.997891 0
M  V30 4 C -0.616895 -0.136923 4.790713 0
M  V30 5 C -0.071888 0.204106 3.569018 0
M  V30 6 N 0.371551 1.519933 3.250826 0
M  V30 7 C 1.688543 2.010728 3.469665 0
M  V30 8 O 2.574755 1.283264 3.977111 0
M  V30 9 C 2.083062 3.371239 3.121965 0
M  V30 10 C 3.375913 3.762371 3.365219 0
M  V30 11 C 3.792783 5.060208 3.045394 0
M  V30 12 N 2.940887 5.951193 2.494687 0
M  V30 13 C 1.651268 5.588055 2.242872 0
M  V30 14 C 0.744900 6.587473 1.639662 0
M  V30 15 F -0.474432 5.962625 1.425254 0
M  V30 16 F 0.541832 7.615533 2.546628 0
M  V30 17 F 1.164328 7.082047 0.442433 0
M  V30 18 C 1.236825 4.304610 2.558492 0
M  V30 19 C 0.063277 -0.752582 2.588879 0
M  V30 20 C -0.329729 -2.084766 2.763470 0
M  V30 21 C -0.157108 -3.049673 1.680168 0
M  V30 22 C 0.338671 -4.334528 1.714530 0
M  V30 23 C 0.405021 -5.063161 0.545357 0
M  V30 24 C -0.012016 -4.545986 -0.672108 0
M  V30 25 C -0.510244 -3.253127 -0.703453 0
M  V30 26 C -0.582057 -2.513054 0.459708 0
M  V30 27 O -0.944843 -2.657563 -1.852934 0
M  V30 28 C -0.938140 -2.860205 -3.219019 0
M  V30 29 C -0.595766 -1.504667 -3.853898 0
M  V30 30 C -1.724910 -0.532207 -3.706490 0
M  V30 31 O -2.807187 -0.932567 -4.481506 0
M  V30 32 C -2.700749 -2.260085 -4.882124 0
M  V30 33 C -2.350192 -3.164093 -3.705295 0
M  V30 34 C 0.060244 -3.820931 -3.762288 0
M  V30 35 C 0.034864 -5.161499 -3.105977 0
M  V30 36 O -0.129747 -6.173295 -3.867370 0
M  V30 37 N 0.168008 -5.517148 -1.723343 0
M  V30 38 H -0.542298 -4.394190 4.766839 0
M  V30 39 H -2.236301 -3.734335 4.882932 0
M  V30 40 H -1.650036 -4.205501 3.289819 0
M  V30 41 H -1.445819 -1.716093 5.959033 0
M  V30 42 H -0.709959 0.630391 5.536191 0
M  V30 43 H -0.362272 2.130441 2.827785 0
M  V30 44 H 4.120142 3.100336 3.806841 0
M  V30 45 H 4.816560 5.369967 3.237966 0
M  V30 46 H 0.221966 4.026653 2.357664 0
M  V30 47 H 0.487438 -0.496334 1.632108 0
M  V30 48 H 0.631491 -4.639608 2.689585 0
M  V30 49 H 0.803401 -6.072233 0.622432 0
M  V30 50 H -0.992883 -1.507009 0.307521 0
M  V30 51 H -0.320536 -1.587076 -4.905218 0
M  V30 52 H 0.293012 -1.065687 -3.328382 0
M  V30 53 H -1.348622 0.450470 -4.050378 0
M  V30 54 H -2.031062 -0.398167 -2.642849 0
M  V30 55 H -2.012227 -2.378538 -5.734918 0
M  V30 56 H -3.706271 -2.576442 -5.240012 0
M  V30 57 H -3.076682 -2.950524 -2.910116 0
M  V30 58 H -2.352093 -4.198219 -4.078250 0
M  V30 59 H 1.072035 -3.370505 -3.709218 0
M  V30 60 H -0.181067 -3.970358 -4.833863 0
M  V30 61 H 0.398216 -6.488583 -1.456444 0
M  V30 END ATOM
M  V30 BEGIN BOND
M  V30 1 1 1 2
M  V30 2 2 2 3
M  V30 3 1 3 4
M  V30 4 2 4 5
M  V30 5 1 5 6
M  V30 6 1 6 7
M  V30 7 2 7 8
M  V30 8 1 7 9
M  V30 9 2 9 10
M  V30 10 1 10 11
M  V30 11 2 11 12
M  V30 12 1 12 13
M  V30 13 1 13 14
M  V30 14 1 14 15
M  V30 15 1 14 16
M  V30 16 1 14 17
M  V30 17 2 13 18
M  V30 18 1 5 19
M  V30 19 2 19 20
M  V30 20 1 20 21
M  V30 21 2 21 22
M  V30 22 1 22 23
M  V30 23 2 23 24
M  V30 24 1 24 25
M  V30 25 2 25 26
M  V30 26 1 25 27
M  V30 27 1 27 28
M  V30 28 1 28 29
M  V30 29 1 29 30
M  V30 30 1 30 31
M  V30 31 1 31 32
M  V30 32 1 32 33
M  V30 33 1 28 34
M  V30 34 1 34 35
M  V30 35 2 35 36
M  V30 36 1 35 37
M  V30 37 1 20 2
M  V30 38 1 26 21
M  V30 39 1 33 28
M  V30 40 1 18 9
M  V30 41 1 37 24
M  V30 42 1 1 38
M  V30 43 1 1 39
M  V30 44 1 1 40
M  V30 45 1 3 41
M  V30 46 1 4 42
M  V30 47 1 6 43
M  V30 48 1 10 44
M  V30 49 1 11 45
M  V30 50 1 18 46
M  V30 51 1 19 47
M  V30 52 1 22 48
M  V30 53 1 23 49
M  V30 54 1 26 50
M  V30 55 1 29 51
M  V30 56 1 29 52
M  V30 57 1 30 53
M  V30 58 1 30 54
M  V30 59 1 32 55
M  V30 60 1 32 56
M  V30 61 1 33 57
M  V30 62 1 33 58
M  V30 63 1 34 59
M  V30 64 1 34 60
M  V30 65 1 37 61
M  V30 END BOND
M  V30 END CTAB
M  END
>  <Dataset>  (265) 
ChEMBL_Kinases

>  <Ligand_Instance>  (265) 
nan

>  <PDB_ID>  (265) 
nan

>  <Standardized_SMILES>  (265) 
Cc1ccc(NC(=O)c2ccnc(C(F)(F)F)c2)cc1-c1ccc2c(c1)OC1(CCOCC1)CC(=O)N2

>  <Name>  (265) 
nan

>  <Pocket>  (265) 
nan

>  <ATP_Site>  (265) 
nan

>  <Peripheral>  (265) 
nan

>  <Num_H_Atoms_ProtBoundConf>  (265) 
nan

>  <Num_Resolved_Atoms>  (265) 
nan

>  <Num_Not_Resolved_Atoms>  (265) 
nan

$$$$
CHEMBL3752778
     RDKit          3D

  0  0  0  0  0  0  0  0  0  0999 V3000
M  V30 BEGIN CTAB
M  V30 COUNTS 19 20 0 0 0
M  V30 BEGIN ATOM
M  V30 1 N 0.691252 -0.811322 4.826022 0
M  V30 2 C 0.271715 -1.143469 3.797404 0
M  V30 3 C -0.280173 -1.548162 2.492970 0
M  V30 4 N 0.665225 -1.276278 1.450838 0
M  V30 5 C 1.647940 -2.080228 0.946380 0
M  V30 6 N 2.321639 -1.455255 -0.027219 0
M  V30 7 C 1.800272 -0.230012 -0.185885 0
M  V30 8 C 2.143372 0.785070 -1.053451 0
M  V30 9 Br 3.578571 0.560110 -2.296895 0
M  V30 10 C 1.444791 1.974768 -1.024555 0
M  V30 11 Br 1.890059 3.399600 -2.207845 0
M  V30 12 C 0.412010 2.119403 -0.120536 0
M  V30 13 Br -0.568693 3.754618 -0.061290 0
M  V30 14 C 0.106595 1.073520 0.727660 0
M  V30 15 Br -1.320327 1.335126 1.944765 0
M  V30 16 C 0.774086 -0.134613 0.738093 0
M  V30 17 H -1.310242 -1.267117 2.331896 0
M  V30 18 H -0.315795 -2.678501 2.557888 0
M  V30 19 H 1.846199 -3.085629 1.294687 0
M  V30 END ATOM
M  V30 BEGIN BOND
M  V30 1 3 1 2
M  V30 2 1 2 3
M  V30 3 1 3 4
M  V30 4 1 4 5
M  V30 5 2 5 6
M  V30 6 1 6 7
M  V30 7 2 7 8
M  V30 8 1 8 9
M  V30 9 1 8 10
M  V30 10 1 10 11
M  V30 11 2 10 12
M  V30 12 1 12 13
M  V30 13 1 12 14
M  V30 14 1 14 15
M  V30 15 2 14 16
M  V30 16 1 16 4
M  V30 17 1 16 7
M  V30 18 1 3 17
M  V30 19 1 3 18
M  V30 20 1 5 19
M  V30 END BOND
M  V30 END CTAB
M  END
>  <Dataset>  (266) 
ChEMBL_Kinases

>  <Ligand_Instance>  (266) 
nan

>  <PDB_ID>  (266) 
nan

>  <Standardized_SMILES>  (266) 
N#CCn1cnc2c(Br)c(Br)c(Br)c(Br)c21

>  <Name>  (266) 
nan

>  <Pocket>  (266) 
nan

>  <ATP_Site>  (266) 
nan

>  <Peripheral>  (266) 
nan

>  <Num_H_Atoms_ProtBoundConf>  (266) 
nan

>  <Num_Resolved_Atoms>  (266) 
nan

>  <Num_Not_Resolved_Atoms>  (266) 
nan

$$$$
CHEMBL3752684
     RDKit          3D

  0  0  0  0  0  0  0  0  0  0999 V3000
M  V30 BEGIN CTAB
M  V30 COUNTS 24 25 0 0 0
M  V30 BEGIN ATOM
M  V30 1 N -0.218221 0.106740 4.315423 0
M  V30 2 C 0.652099 -0.130996 3.205648 0
M  V30 3 N 0.302410 -0.930414 2.283367 0
M  V30 4 C 1.065296 -1.270123 1.109809 0
M  V30 5 C 0.328741 -0.816397 -0.123393 0
M  V30 6 C 0.154884 -1.565473 -1.270665 0
M  V30 7 C -0.547960 -1.010529 -2.325433 0
M  V30 8 C -1.037416 0.268504 -2.167371 0
M  V30 9 F -1.740684 0.850890 -3.195631 0
M  V30 10 C -0.881409 1.043206 -1.035353 0
M  V30 11 C -0.166884 0.461475 0.019373 0
M  V30 12 N 2.357304 -0.572008 1.069193 0
M  V30 13 C 2.769402 0.334781 2.102088 0
M  V30 14 O 3.919666 0.859956 1.918578 0
M  V30 15 N 1.893459 0.551955 3.185241 0
M  V30 16 H -1.180352 0.493288 4.297562 0
M  V30 17 H 0.216718 -0.157316 5.222106 0
M  V30 18 H 1.279276 -2.335494 1.014323 0
M  V30 19 H 0.577693 -2.539146 -1.275929 0
M  V30 20 H -0.692997 -1.584022 -3.231117 0
M  V30 21 H -1.289871 2.044933 -0.969027 0
M  V30 22 H -0.062740 1.090699 0.887107 0
M  V30 23 H 2.912064 -0.825478 0.205984 0
M  V30 24 H 2.241661 1.222716 3.912129 0
M  V30 END ATOM
M  V30 BEGIN BOND
M  V30 1 1 1 2
M  V30 2 2 2 3
M  V30 3 1 3 4
M  V30 4 1 4 5
M  V30 5 2 5 6
M  V30 6 1 6 7
M  V30 7 2 7 8
M  V30 8 1 8 9
M  V30 9 1 8 10
M  V30 10 2 10 11
M  V30 11 1 4 12
M  V30 12 1 12 13
M  V30 13 2 13 14
M  V30 14 1 13 15
M  V30 15 1 15 2
M  V30 16 1 11 5
M  V30 17 1 1 16
M  V30 18 1 1 17
M  V30 19 1 4 18
M  V30 20 1 6 19
M  V30 21 1 7 20
M  V30 22 1 10 21
M  V30 23 1 11 22
M  V30 24 1 12 23
M  V30 25 1 15 24
M  V30 END BOND
M  V30 END CTAB
M  END
>  <Dataset>  (267) 
ChEMBL_Kinases

>  <Ligand_Instance>  (267) 
nan

>  <PDB_ID>  (267) 
nan

>  <Standardized_SMILES>  (267) 
NC1=NC(c2ccc(F)cc2)NC(=O)N1

>  <Name>  (267) 
nan

>  <Pocket>  (267) 
nan

>  <ATP_Site>  (267) 
nan

>  <Peripheral>  (267) 
nan

>  <Num_H_Atoms_ProtBoundConf>  (267) 
nan

>  <Num_Resolved_Atoms>  (267) 
nan

>  <Num_Not_Resolved_Atoms>  (267) 
nan

$$$$
CHEMBL585533
     RDKit          3D

  0  0  0  0  0  0  0  0  0  0999 V3000
M  V30 BEGIN CTAB
M  V30 COUNTS 43 45 0 0 0
M  V30 BEGIN ATOM
M  V30 1 C 0.394167 -6.591106 0.759874 0
M  V30 2 C 0.464712 -5.292081 0.071056 0
M  V30 3 O 0.010737 -5.212897 -1.108989 0
M  V30 4 N 1.039088 -4.195611 0.768120 0
M  V30 5 C 1.368092 -2.817047 0.668053 0
M  V30 6 C 0.471464 -1.837065 1.046748 0
M  V30 7 C 0.805766 -0.499593 0.944030 0
M  V30 8 C -0.030186 0.604897 1.301265 0
M  V30 9 C -0.424004 1.554090 0.370681 0
M  V30 10 C -0.146305 1.694862 -1.047503 0
M  V30 11 C -0.478604 0.859265 -2.094613 0
M  V30 12 C -0.112515 1.185515 -3.382548 0
M  V30 13 C 0.588732 2.352464 -3.623277 0
M  V30 14 F 0.945394 2.662463 -4.908693 0
M  V30 15 C 0.944862 3.222762 -2.604819 0
M  V30 16 C 0.561628 2.868085 -1.310388 0
M  V30 17 N -1.199402 2.434056 1.069962 0
M  V30 18 O -1.277752 2.063511 2.316563 0
M  V30 19 C -0.581940 0.949428 2.519485 0
M  V30 20 C -0.404945 0.189985 3.789253 0
M  V30 21 C 0.793475 0.671549 4.575391 0
M  V30 22 C -1.628717 0.506395 4.659454 0
M  V30 23 C 2.062851 -0.229858 0.450230 0
M  V30 24 C 2.962390 -1.209532 0.070381 0
M  V30 25 N 2.584866 -2.510713 0.191109 0
M  V30 26 H -0.672259 -6.803648 1.009695 0
M  V30 27 H 0.753626 -7.422166 0.111030 0
M  V30 28 H 0.937527 -6.568820 1.725444 0
M  V30 29 H 1.396342 -4.345096 1.756021 0
M  V30 30 H -0.511454 -2.078075 1.432240 0
M  V30 31 H -1.026184 -0.019736 -1.774260 0
M  V30 32 H -0.402066 0.489690 -4.162777 0
M  V30 33 H 1.492544 4.125288 -2.828534 0
M  V30 34 H 0.882316 3.609810 -0.564702 0
M  V30 35 H -0.415343 -0.905732 3.646353 0
M  V30 36 H 1.647308 0.962033 3.937524 0
M  V30 37 H 0.551354 1.554933 5.202685 0
M  V30 38 H 1.047533 -0.134084 5.299467 0
M  V30 39 H -1.401312 0.448915 5.737087 0
M  V30 40 H -1.926742 1.580740 4.486351 0
M  V30 41 H -2.504457 -0.100882 4.387392 0
M  V30 42 H 2.456615 0.788227 0.316582 0
M  V30 43 H 3.955763 -0.984599 -0.319630 0
M  V30 END ATOM
M  V30 BEGIN BOND
M  V30 1 1 1 2
M  V30 2 2 2 3
M  V30 3 1 2 4
M  V30 4 1 4 5
M  V30 5 2 5 6
M  V30 6 1 6 7
M  V30 7 1 7 8
M  V30 8 1 8 9
M  V30 9 1 9 10
M  V30 10 2 10 11
M  V30 11 1 11 12
M  V30 12 2 12 13
M  V30 13 1 13 14
M  V30 14 1 13 15
M  V30 15 2 15 16
M  V30 16 2 9 17
M  V30 17 1 17 18
M  V30 18 1 18 19
M  V30 19 1 19 20
M  V30 20 1 20 21
M  V30 21 1 20 22
M  V30 22 2 7 23
M  V30 23 1 23 24
M  V30 24 2 24 25
M  V30 25 1 25 5
M  V30 26 2 19 8
M  V30 27 1 16 10
M  V30 28 1 1 26
M  V30 29 1 1 27
M  V30 30 1 1 28
M  V30 31 1 4 29
M  V30 32 1 6 30
M  V30 33 1 11 31
M  V30 34 1 12 32
M  V30 35 1 15 33
M  V30 36 1 16 34
M  V30 37 1 20 35
M  V30 38 1 21 36
M  V30 39 1 21 37
M  V30 40 1 21 38
M  V30 41 1 22 39
M  V30 42 1 22 40
M  V30 43 1 22 41
M  V30 44 1 23 42
M  V30 45 1 24 43
M  V30 END BOND
M  V30 END CTAB
M  END
>  <Dataset>  (268) 
ChEMBL_Kinases

>  <Ligand_Instance>  (268) 
nan

>  <PDB_ID>  (268) 
nan

>  <Standardized_SMILES>  (268) 
CC(=O)Nc1cc(-c2c(-c3ccc(F)cc3)noc2C(C)C)ccn1

>  <Name>  (268) 
nan

>  <Pocket>  (268) 
nan

>  <ATP_Site>  (268) 
nan

>  <Peripheral>  (268) 
nan

>  <Num_H_Atoms_ProtBoundConf>  (268) 
nan

>  <Num_Resolved_Atoms>  (268) 
nan

>  <Num_Not_Resolved_Atoms>  (268) 
nan

$$$$
CHEMBL5088612
     RDKit          3D

  0  0  0  0  0  0  0  0  0  0999 V3000
M  V30 BEGIN CTAB
M  V30 COUNTS 35 37 0 0 0
M  V30 BEGIN ATOM
M  V30 1 C -1.126538 -2.434105 2.407495 0
M  V30 2 O -0.410286 -1.534215 1.617208 0
M  V30 3 C 0.717008 -1.933286 0.932839 0
M  V30 4 N 1.140435 -3.221674 1.027938 0
M  V30 5 C 2.258445 -3.623211 0.352563 0
M  V30 6 C 2.669597 -5.050400 0.499176 0
M  V30 7 N 2.979920 -2.766833 -0.427636 0
M  V30 8 C 2.606371 -1.475628 -0.559352 0
M  V30 9 N 3.054729 -0.386954 -1.211536 0
M  V30 10 C 2.232632 0.643718 -0.940014 0
M  V30 11 C 1.203722 0.234529 -0.081634 0
M  V30 12 C 0.192082 1.202306 0.320931 0
M  V30 13 C 0.671288 2.412805 0.833298 0
M  V30 14 C -0.106759 3.464711 1.262336 0
M  V30 15 C -1.468077 3.297147 1.173844 0
M  V30 16 C -1.993442 2.124307 0.676368 0
M  V30 17 C -3.439772 1.958062 0.587260 0
M  V30 18 N -4.013043 0.765597 0.080973 0
M  V30 19 O -4.161216 2.912796 0.976611 0
M  V30 20 C -1.180765 1.102882 0.260333 0
M  V30 21 C 1.473523 -1.100950 0.134524 0
M  V30 22 H -1.857853 -1.897706 3.047100 0
M  V30 23 H -0.454086 -3.047058 3.067776 0
M  V30 24 H -1.616992 -3.151774 1.717663 0
M  V30 25 H 2.524678 -5.321739 1.559925 0
M  V30 26 H 1.934912 -5.678439 -0.069925 0
M  V30 27 H 3.710342 -5.187075 0.148779 0
M  V30 28 H 3.907410 -0.421992 -1.808899 0
M  V30 29 H 2.456801 1.614814 -1.396187 0
M  V30 30 H 1.750537 2.579451 0.917574 0
M  V30 31 H 0.324376 4.366408 1.644999 0
M  V30 32 H -2.130646 4.089306 1.496070 0
M  V30 33 H -4.605904 0.498379 -0.723402 0
M  V30 34 H -3.797439 -0.077682 0.646861 0
M  V30 35 H -1.551828 0.172051 -0.142569 0
M  V30 END ATOM
M  V30 BEGIN BOND
M  V30 1 1 1 2
M  V30 2 1 2 3
M  V30 3 2 3 4
M  V30 4 1 4 5
M  V30 5 1 5 6
M  V30 6 2 5 7
M  V30 7 1 7 8
M  V30 8 1 8 9
M  V30 9 1 9 10
M  V30 10 2 10 11
M  V30 11 1 11 12
M  V30 12 2 12 13
M  V30 13 1 13 14
M  V30 14 2 14 15
M  V30 15 1 15 16
M  V30 16 1 16 17
M  V30 17 1 17 18
M  V30 18 2 17 19
M  V30 19 2 16 20
M  V30 20 1 11 21
M  V30 21 1 21 3
M  V30 22 2 21 8
M  V30 23 1 20 12
M  V30 24 1 1 22
M  V30 25 1 1 23
M  V30 26 1 1 24
M  V30 27 1 6 25
M  V30 28 1 6 26
M  V30 29 1 6 27
M  V30 30 1 9 28
M  V30 31 1 10 29
M  V30 32 1 13 30
M  V30 33 1 14 31
M  V30 34 1 15 32
M  V30 35 1 18 33
M  V30 36 1 18 34
M  V30 37 1 20 35
M  V30 END BOND
M  V30 END CTAB
M  END
>  <Dataset>  (269) 
ChEMBL_Kinases

>  <Ligand_Instance>  (269) 
nan

>  <PDB_ID>  (269) 
nan

>  <Standardized_SMILES>  (269) 
COc1nc(C)nc2[nH]cc(-c3cccc(C(N)=O)c3)c12

>  <Name>  (269) 
nan

>  <Pocket>  (269) 
nan

>  <ATP_Site>  (269) 
nan

>  <Peripheral>  (269) 
nan

>  <Num_H_Atoms_ProtBoundConf>  (269) 
nan

>  <Num_Resolved_Atoms>  (269) 
nan

>  <Num_Not_Resolved_Atoms>  (269) 
nan

$$$$
CHEMBL585367
     RDKit          3D

  0  0  0  0  0  0  0  0  0  0999 V3000
M  V30 BEGIN CTAB
M  V30 COUNTS 44 46 0 0 0
M  V30 BEGIN ATOM
M  V30 1 C 0.949747 -6.320386 1.223033 0
M  V30 2 C 0.638123 -5.143385 0.379097 0
M  V30 3 C -0.456502 -4.326503 0.674322 0
M  V30 4 C -0.695953 -3.228735 -0.163034 0
M  V30 5 C 0.118361 -2.936029 -1.266589 0
M  V30 6 O -0.366577 -1.821448 -1.873737 0
M  V30 7 C 0.244959 -0.618257 -2.090216 0
M  V30 8 C 0.927283 -0.244426 -3.248075 0
M  V30 9 C 1.501483 0.999052 -3.342292 0
M  V30 10 N 1.425920 1.869928 -2.349827 0
M  V30 11 C 0.802368 1.623418 -1.200747 0
M  V30 12 N 0.768915 2.629916 -0.212773 0
M  V30 13 C 0.322067 2.668970 1.131905 0
M  V30 14 C 0.431111 1.581883 1.977351 0
M  V30 15 C -0.018369 1.580088 3.290341 0
M  V30 16 C -0.608212 2.710580 3.802246 0
M  V30 17 S -1.186997 2.740615 5.454219 0
M  V30 18 N 0.032009 3.287655 6.535394 0
M  V30 19 O -1.549957 1.320287 5.801021 0
M  V30 20 O -2.423980 3.565331 5.589644 0
M  V30 21 C -0.728803 3.807709 2.981715 0
M  V30 22 C -0.273568 3.766796 1.697418 0
M  V30 23 C 0.228793 0.377419 -1.111433 0
M  V30 24 C 1.160208 -3.786999 -1.475793 0
M  V30 25 C 1.965863 -3.396326 -2.667700 0
M  V30 26 N 1.405862 -4.843875 -0.684722 0
M  V30 27 H 2.011410 -6.577169 1.111358 0
M  V30 28 H 0.343455 -7.175349 0.901898 0
M  V30 29 H 0.750628 -6.075416 2.272032 0
M  V30 30 H -1.024105 -4.612121 1.523985 0
M  V30 31 H -1.586599 -2.693855 0.205207 0
M  V30 32 H 0.983240 -0.956025 -4.051005 0
M  V30 33 H 2.025427 1.266707 -4.248839 0
M  V30 34 H 1.142235 3.574329 -0.463798 0
M  V30 35 H 0.878718 0.662903 1.697868 0
M  V30 36 H 0.063525 0.737369 3.954343 0
M  V30 37 H -0.265123 3.089070 7.502789 0
M  V30 38 H 0.919712 2.771607 6.298528 0
M  V30 39 H -1.203862 4.702985 3.409964 0
M  V30 40 H -0.402642 4.661370 1.115521 0
M  V30 41 H -0.303307 0.111371 -0.218671 0
M  V30 42 H 2.608741 -4.260454 -2.957686 0
M  V30 43 H 2.562299 -2.501598 -2.500089 0
M  V30 44 H 1.279981 -3.259822 -3.526587 0
M  V30 END ATOM
M  V30 BEGIN BOND
M  V30 1 1 1 2
M  V30 2 2 2 3
M  V30 3 1 3 4
M  V30 4 2 4 5
M  V30 5 1 5 6
M  V30 6 1 6 7
M  V30 7 2 7 8
M  V30 8 1 8 9
M  V30 9 2 9 10
M  V30 10 1 10 11
M  V30 11 1 11 12
M  V30 12 1 12 13
M  V30 13 2 13 14
M  V30 14 1 14 15
M  V30 15 2 15 16
M  V30 16 1 16 17
M  V30 17 1 17 18
M  V30 18 2 17 19
M  V30 19 2 17 20
M  V30 20 1 16 21
M  V30 21 2 21 22
M  V30 22 2 11 23
M  V30 23 1 5 24
M  V30 24 1 24 25
M  V30 25 2 24 26
M  V30 26 1 26 2
M  V30 27 1 23 7
M  V30 28 1 22 13
M  V30 29 1 1 27
M  V30 30 1 1 28
M  V30 31 1 1 29
M  V30 32 1 3 30
M  V30 33 1 4 31
M  V30 34 1 8 32
M  V30 35 1 9 33
M  V30 36 1 12 34
M  V30 37 1 14 35
M  V30 38 1 15 36
M  V30 39 1 18 37
M  V30 40 1 18 38
M  V30 41 1 21 39
M  V30 42 1 22 40
M  V30 43 1 23 41
M  V30 44 1 25 42
M  V30 45 1 25 43
M  V30 46 1 25 44
M  V30 END BOND
M  V30 END CTAB
M  END
>  <Dataset>  (270) 
ChEMBL_Kinases

>  <Ligand_Instance>  (270) 
nan

>  <PDB_ID>  (270) 
nan

>  <Standardized_SMILES>  (270) 
Cc1ccc(Oc2ccnc(Nc3ccc(S(N)(=O)=O)cc3)c2)c(C)n1

>  <Name>  (270) 
nan

>  <Pocket>  (270) 
nan

>  <ATP_Site>  (270) 
nan

>  <Peripheral>  (270) 
nan

>  <Num_H_Atoms_ProtBoundConf>  (270) 
nan

>  <Num_Resolved_Atoms>  (270) 
nan

>  <Num_Not_Resolved_Atoms>  (270) 
nan

$$$$
CHEMBL5088760
     RDKit          3D

  0  0  0  0  0  0  0  0  0  0999 V3000
M  V30 BEGIN CTAB
M  V30 COUNTS 37 39 0 0 0
M  V30 BEGIN ATOM
M  V30 1 C 1.822431 1.303782 3.861821 0
M  V30 2 C 1.126928 1.412988 2.738697 0
M  V30 3 C 1.379385 0.169440 2.021646 0
M  V30 4 O 1.986912 0.201897 3.121523 0
M  V30 5 N 0.879492 -0.231199 0.767114 0
M  V30 6 C 0.019250 0.704280 0.140719 0
M  V30 7 O 0.069558 1.917481 0.471110 0
M  V30 8 C -0.989055 0.457896 -0.904779 0
M  V30 9 C -1.803889 -0.782204 -0.741856 0
M  V30 10 C -3.004851 -0.645717 -1.617549 0
M  V30 11 C -2.668800 -0.538134 -2.972016 0
M  V30 12 C -3.685639 -0.404803 -3.907816 0
M  V30 13 C -5.010167 -0.377183 -3.524353 0
M  V30 14 Cl -6.338863 -0.211525 -4.652628 0
M  V30 15 C -5.311948 -0.485692 -2.177606 0
M  V30 16 C -4.318047 -0.619047 -1.229626 0
M  V30 17 S -0.958426 -2.288214 -1.241122 0
M  V30 18 C 0.662221 -2.422969 -0.454696 0
M  V30 19 C 1.250446 -3.628174 -0.752632 0
M  V30 20 C 2.515879 -3.865057 -0.204611 0
M  V30 21 C 3.177066 -2.944133 0.608914 0
M  V30 22 C 2.577583 -1.743971 0.898308 0
M  V30 23 C 1.332209 -1.513872 0.357549 0
M  V30 24 H 2.433414 1.110717 4.757716 0
M  V30 25 H 2.093089 1.787897 4.790858 0
M  V30 26 H 0.596907 2.353377 2.683015 0
M  V30 27 H -0.520260 0.387695 -1.929320 0
M  V30 28 H -1.712863 1.292872 -1.006373 0
M  V30 29 H -2.107021 -0.864256 0.323382 0
M  V30 30 H -1.659040 -0.549498 -3.370011 0
M  V30 31 H -3.509673 -0.314871 -4.985936 0
M  V30 32 H -6.322894 -0.476870 -1.750165 0
M  V30 33 H -4.461435 -0.709323 -0.164864 0
M  V30 34 H 0.785625 -4.363124 -1.368724 0
M  V30 35 H 3.064319 -4.783946 -0.378956 0
M  V30 36 H 4.150468 -3.158053 1.014512 0
M  V30 37 H 3.098253 -1.037269 1.527250 0
M  V30 END ATOM
M  V30 BEGIN BOND
M  V30 1 2 1 2
M  V30 2 1 2 3
M  V30 3 2 3 4
M  V30 4 1 3 5
M  V30 5 1 5 6
M  V30 6 2 6 7
M  V30 7 1 6 8
M  V30 8 1 8 9
M  V30 9 1 9 10
M  V30 10 2 10 11
M  V30 11 1 11 12
M  V30 12 2 12 13
M  V30 13 1 13 14
M  V30 14 1 13 15
M  V30 15 2 15 16
M  V30 16 1 9 17
M  V30 17 1 17 18
M  V30 18 2 18 19
M  V30 19 1 19 20
M  V30 20 2 20 21
M  V30 21 1 21 22
M  V30 22 2 22 23
M  V30 23 1 23 5
M  V30 24 1 16 10
M  V30 25 1 23 18
M  V30 26 1 1 24
M  V30 27 1 1 25
M  V30 28 1 2 26
M  V30 29 1 8 27
M  V30 30 1 8 28
M  V30 31 1 9 29
M  V30 32 1 11 30
M  V30 33 1 12 31
M  V30 34 1 15 32
M  V30 35 1 16 33
M  V30 36 1 19 34
M  V30 37 1 20 35
M  V30 38 1 21 36
M  V30 39 1 22 37
M  V30 END BOND
M  V30 END CTAB
M  END
>  <Dataset>  (271) 
ChEMBL_Kinases

>  <Ligand_Instance>  (271) 
nan

>  <PDB_ID>  (271) 
nan

>  <Standardized_SMILES>  (271) 
C=CC(=O)N1C(=O)CC(c2ccc(Cl)cc2)Sc2ccccc21

>  <Name>  (271) 
nan

>  <Pocket>  (271) 
nan

>  <ATP_Site>  (271) 
nan

>  <Peripheral>  (271) 
nan

>  <Num_H_Atoms_ProtBoundConf>  (271) 
nan

>  <Num_Resolved_Atoms>  (271) 
nan

>  <Num_Not_Resolved_Atoms>  (271) 
nan

$$$$
CHEMBL5088767
     RDKit          3D

  0  0  0  0  0  0  0  0  0  0999 V3000
M  V30 BEGIN CTAB
M  V30 COUNTS 47 48 0 0 0
M  V30 BEGIN ATOM
M  V30 1 C 0.535052 -2.937828 1.533524 0
M  V30 2 C 1.348373 -1.920652 0.845111 0
M  V30 3 C 2.524204 -2.327808 0.244317 0
M  V30 4 C 3.343673 -1.414505 -0.426379 0
M  V30 5 C 4.591924 -1.811900 -1.071821 0
M  V30 6 C 5.426103 -2.827796 -0.645414 0
M  V30 7 C 6.594650 -3.106881 -1.355370 0
M  V30 8 N 6.945883 -2.413287 -2.457314 0
M  V30 9 C 6.173396 -1.400966 -2.934114 0
M  V30 10 Cl 6.559350 -0.455305 -4.355793 0
M  V30 11 C 5.027209 -1.154586 -2.206412 0
M  V30 12 C 2.923353 -0.098856 -0.457850 0
M  V30 13 N 1.776190 0.314906 0.124860 0
M  V30 14 C 0.976623 -0.573418 0.778638 0
M  V30 15 O -0.214423 -0.176490 1.390331 0
M  V30 16 C -0.646264 1.181197 1.356561 0
M  V30 17 C -1.959325 1.240534 2.108468 0 CFG=1
M  V30 18 C -1.649508 0.828144 3.541923 0
M  V30 19 N -2.435222 2.582936 2.104614 0
M  V30 20 C -2.870281 0.247890 1.440231 0
M  V30 21 C -4.232454 0.167286 2.056020 0
M  V30 22 C -4.969164 1.486960 2.009251 0
M  V30 23 C -5.027444 -0.822159 1.226613 0
M  V30 24 H 1.020183 -3.201452 2.503407 0
M  V30 25 H -0.489836 -2.606628 1.716042 0
M  V30 26 H 0.591593 -3.866330 0.910741 0
M  V30 27 H 2.913114 -3.334416 0.229609 0
M  V30 28 H 5.123114 -3.373931 0.244678 0
M  V30 29 H 7.223198 -3.914951 -0.985480 0
M  V30 30 H 4.398162 -0.340791 -2.582558 0
M  V30 31 H 3.523380 0.636108 -0.962900 0
M  V30 32 H 0.103314 1.856872 1.814612 0
M  V30 33 H -0.857357 1.415668 0.289065 0
M  V30 34 H -2.587357 0.802259 4.164294 0
M  V30 35 H -0.960370 1.540844 4.010347 0
M  V30 36 H -1.164331 -0.175159 3.558964 0
M  V30 37 H -1.965476 3.104888 1.332012 0
M  V30 38 H -2.314514 3.125238 2.969177 0
M  V30 39 H -2.979278 0.432636 0.361027 0
M  V30 40 H -2.401790 -0.746883 1.567170 0
M  V30 41 H -4.195574 -0.233399 3.089302 0
M  V30 42 H -6.069410 1.351751 2.049895 0
M  V30 43 H -4.758475 2.062998 1.109114 0
M  V30 44 H -4.691916 2.071535 2.925001 0
M  V30 45 H -4.539582 -1.829524 1.268548 0
M  V30 46 H -6.088464 -0.858207 1.518444 0
M  V30 47 H -4.984141 -0.470817 0.171091 0
M  V30 END ATOM
M  V30 BEGIN BOND
M  V30 1 1 1 2
M  V30 2 2 2 3
M  V30 3 1 3 4
M  V30 4 1 4 5
M  V30 5 2 5 6
M  V30 6 1 6 7
M  V30 7 2 7 8
M  V30 8 1 8 9
M  V30 9 1 9 10
M  V30 10 2 9 11
M  V30 11 2 4 12
M  V30 12 1 12 13
M  V30 13 2 13 14
M  V30 14 1 14 15
M  V30 15 1 15 16
M  V30 16 1 16 17
M  V30 17 1 17 18
M  V30 18 1 17 19 CFG=1
M  V30 19 1 17 20
M  V30 20 1 20 21
M  V30 21 1 21 22
M  V30 22 1 21 23
M  V30 23 1 14 2
M  V30 24 1 11 5
M  V30 25 1 1 24
M  V30 26 1 1 25
M  V30 27 1 1 26
M  V30 28 1 3 27
M  V30 29 1 6 28
M  V30 30 1 7 29
M  V30 31 1 11 30
M  V30 32 1 12 31
M  V30 33 1 16 32
M  V30 34 1 16 33
M  V30 35 1 18 34
M  V30 36 1 18 35
M  V30 37 1 18 36
M  V30 38 1 19 37
M  V30 39 1 19 38
M  V30 40 1 20 39
M  V30 41 1 20 40
M  V30 42 1 21 41
M  V30 43 1 22 42
M  V30 44 1 22 43
M  V30 45 1 22 44
M  V30 46 1 23 45
M  V30 47 1 23 46
M  V30 48 1 23 47
M  V30 END BOND
M  V30 END CTAB
M  END
>  <Dataset>  (272) 
ChEMBL_Kinases

>  <Ligand_Instance>  (272) 
nan

>  <PDB_ID>  (272) 
nan

>  <Standardized_SMILES>  (272) 
Cc1cc(-c2ccnc(Cl)c2)cnc1OC[C@@](C)(N)CC(C)C

>  <Name>  (272) 
nan

>  <Pocket>  (272) 
nan

>  <ATP_Site>  (272) 
nan

>  <Peripheral>  (272) 
nan

>  <Num_H_Atoms_ProtBoundConf>  (272) 
nan

>  <Num_Resolved_Atoms>  (272) 
nan

>  <Num_Not_Resolved_Atoms>  (272) 
nan

$$$$
CHEMBL5088768
     RDKit          3D

  0  0  0  0  0  0  0  0  0  0999 V3000
M  V30 BEGIN CTAB
M  V30 COUNTS 57 61 0 0 0
M  V30 BEGIN ATOM
M  V30 1 C 1.326674 -0.425399 4.752089 0
M  V30 2 C 1.908895 0.604880 3.874859 0
M  V30 3 C 2.935665 1.355901 4.386777 0
M  V30 4 N 3.487175 2.292974 3.619471 0
M  V30 5 C 3.130980 2.585694 2.361522 0
M  V30 6 N 3.756637 3.593130 1.593671 0
M  V30 7 C 3.621278 4.134249 0.305619 0
M  V30 8 C 4.476291 5.166127 -0.105174 0
M  V30 9 C 4.128926 5.500637 -1.382554 0
M  V30 10 N 3.109742 4.717706 -1.749440 0
M  V30 11 N 2.807309 3.896659 -0.730053 0
M  V30 12 C 1.750017 2.917018 -0.784830 0
M  V30 13 N 2.135298 1.810611 1.956714 0
M  V30 14 C 1.490549 0.847993 2.594431 0
M  V30 15 C 0.405138 0.068371 2.014145 0
M  V30 16 C -0.776817 -0.201141 2.669576 0
M  V30 17 C -1.823989 -0.937219 2.155469 0
M  V30 18 C -1.654025 -1.441705 0.864834 0
M  V30 19 C -0.492320 -1.205432 0.157188 0
M  V30 20 C 0.526385 -0.459515 0.723251 0
M  V30 21 C -0.597515 -1.861681 -1.176712 0
M  V30 22 N -1.905955 -2.478740 -1.152526 0
M  V30 23 C -2.584320 -3.273595 -2.191963 0 CFG=2
M  V30 24 C -3.806911 -2.520374 -2.631186 0
M  V30 25 O -4.458669 -3.219245 -3.616086 0
M  V30 26 C -2.913686 -4.601699 -1.631216 0
M  V30 27 C -4.028999 -5.379118 -1.623571 0
M  V30 28 C -4.059905 -6.611125 -1.014632 0
M  V30 29 C -2.959686 -7.137578 -0.371579 0
M  V30 30 C -1.815351 -6.374996 -0.361643 0
M  V30 31 Cl -0.446254 -7.083986 0.465611 0
M  V30 32 C -1.791296 -5.131382 -0.978870 0
M  V30 33 C -2.598464 -2.255680 0.070587 0
M  V30 34 O -3.724807 -2.622060 0.454326 0
M  V30 35 H 2.141129 -0.916761 5.363355 0
M  V30 36 H 0.877795 -1.291688 4.184908 0
M  V30 37 H 0.593802 -0.038383 5.489629 0
M  V30 38 H 3.375275 1.276706 5.388770 0
M  V30 39 H 4.525429 4.021502 2.200881 0
M  V30 40 H 5.304199 5.715598 0.358833 0
M  V30 41 H 4.547047 6.242860 -2.038922 0
M  V30 42 H 1.229944 3.059591 -1.791077 0
M  V30 43 H 2.148081 1.872800 -0.743582 0
M  V30 44 H 0.939126 3.126216 -0.063033 0
M  V30 45 H -0.938082 0.178384 3.668472 0
M  V30 46 H -2.729473 -1.115186 2.720759 0
M  V30 47 H 1.436904 -0.289429 0.135127 0
M  V30 48 H 0.231552 -2.556994 -1.318317 0
M  V30 49 H -0.514564 -1.094973 -1.974518 0
M  V30 50 H -1.862997 -3.323252 -3.053981 0
M  V30 51 H -4.440938 -2.305644 -1.747165 0
M  V30 52 H -3.458600 -1.552776 -3.084832 0
M  V30 53 H -4.098083 -2.974618 -4.486998 0
M  V30 54 H -4.854494 -4.916938 -2.136314 0
M  V30 55 H -5.010754 -7.123171 -1.083878 0
M  V30 56 H -3.133598 -8.108748 0.057149 0
M  V30 57 H -0.804678 -4.669131 -0.872278 0
M  V30 END ATOM
M  V30 BEGIN BOND
M  V30 1 1 1 2
M  V30 2 2 2 3
M  V30 3 1 3 4
M  V30 4 2 4 5
M  V30 5 1 5 6
M  V30 6 1 6 7
M  V30 7 2 7 8
M  V30 8 1 8 9
M  V30 9 2 9 10
M  V30 10 1 10 11
M  V30 11 1 11 12
M  V30 12 1 5 13
M  V30 13 2 13 14
M  V30 14 1 14 15
M  V30 15 2 15 16
M  V30 16 1 16 17
M  V30 17 2 17 18
M  V30 18 1 18 19
M  V30 19 2 19 20
M  V30 20 1 19 21
M  V30 21 1 21 22
M  V30 22 1 22 23
M  V30 23 1 23 24
M  V30 24 1 24 25
M  V30 25 1 23 26
M  V30 26 2 26 27
M  V30 27 1 27 28
M  V30 28 2 28 29
M  V30 29 1 29 30
M  V30 30 1 30 31
M  V30 31 2 30 32
M  V30 32 1 22 33
M  V30 33 2 33 34
M  V30 34 1 14 2
M  V30 35 1 20 15
M  V30 36 1 32 26
M  V30 37 1 11 7
M  V30 38 1 33 18
M  V30 39 1 1 35
M  V30 40 1 1 36
M  V30 41 1 1 37
M  V30 42 1 3 38
M  V30 43 1 6 39
M  V30 44 1 8 40
M  V30 45 1 9 41
M  V30 46 1 12 42
M  V30 47 1 12 43
M  V30 48 1 12 44
M  V30 49 1 16 45
M  V30 50 1 17 46
M  V30 51 1 20 47
M  V30 52 1 21 48
M  V30 53 1 21 49
M  V30 54 1 23 50 CFG=3
M  V30 55 1 24 51
M  V30 56 1 24 52
M  V30 57 1 25 53
M  V30 58 1 27 54
M  V30 59 1 28 55
M  V30 60 1 29 56
M  V30 61 1 32 57
M  V30 END BOND
M  V30 END CTAB
M  END
>  <Dataset>  (273) 
ChEMBL_Kinases

>  <Ligand_Instance>  (273) 
nan

>  <PDB_ID>  (273) 
nan

>  <Standardized_SMILES>  (273) 
Cc1cnc(Nc2ccnn2C)nc1-c1ccc2c(c1)CN([C@H](CO)c1cccc(Cl)c1)C2=O

>  <Name>  (273) 
nan

>  <Pocket>  (273) 
nan

>  <ATP_Site>  (273) 
nan

>  <Peripheral>  (273) 
nan

>  <Num_H_Atoms_ProtBoundConf>  (273) 
nan

>  <Num_Resolved_Atoms>  (273) 
nan

>  <Num_Not_Resolved_Atoms>  (273) 
nan

$$$$
CHEMBL5088804
     RDKit          3D

  0  0  0  0  0  0  0  0  0  0999 V3000
M  V30 BEGIN CTAB
M  V30 COUNTS 33 35 0 0 0
M  V30 BEGIN ATOM
M  V30 1 C -1.494914 -2.067579 3.814665 0
M  V30 2 O -1.832135 -0.982764 2.986832 0
M  V30 3 C -1.183634 -0.572452 1.857914 0
M  V30 4 C -0.057237 -1.157741 1.311246 0
M  V30 5 C 0.468209 -0.607794 0.159445 0
M  V30 6 C 1.658053 -1.306609 -0.330367 0
M  V30 7 C 1.792106 -2.684677 -0.130590 0
M  V30 8 C 2.916285 -3.335507 -0.594385 0
M  V30 9 C 3.903061 -2.627429 -1.252317 0
M  V30 10 O 5.061732 -3.212570 -1.746840 0
M  V30 11 C 3.810315 -1.268164 -1.470142 0
M  V30 12 C 2.668722 -0.613879 -0.997925 0
M  V30 13 C -0.089267 0.495597 -0.456845 0
M  V30 14 C -1.224837 1.077423 0.103196 0
M  V30 15 C -1.707350 2.172758 -0.583199 0
M  V30 16 N -2.820626 2.752264 -0.044032 0
M  V30 17 C -3.366168 2.232982 1.095551 0
M  V30 18 N -4.525164 2.795772 1.701168 0
M  V30 19 N -2.868667 1.160902 1.740965 0
M  V30 20 C -1.755809 0.530926 1.257259 0
M  V30 21 H -0.416317 -2.317070 3.826038 0
M  V30 22 H -2.104826 -2.937052 3.469124 0
M  V30 23 H -1.789277 -1.901954 4.874345 0
M  V30 24 H 0.336942 -2.017585 1.833854 0
M  V30 25 H 1.039491 -3.261495 0.378137 0
M  V30 26 H 3.109551 -4.400137 -0.487432 0
M  V30 27 H 5.023715 -3.668505 -2.641172 0
M  V30 28 H 4.550361 -0.658141 -1.979147 0
M  V30 29 H 2.575337 0.452353 -1.157579 0
M  V30 30 H 0.445722 0.802881 -1.354249 0
M  V30 31 H -1.243344 2.543557 -1.474940 0
M  V30 32 H -5.552224 2.952864 1.612979 0
M  V30 33 H -5.386829 2.646756 1.113549 0
M  V30 END ATOM
M  V30 BEGIN BOND
M  V30 1 1 1 2
M  V30 2 1 2 3
M  V30 3 2 3 4
M  V30 4 1 4 5
M  V30 5 1 5 6
M  V30 6 2 6 7
M  V30 7 1 7 8
M  V30 8 2 8 9
M  V30 9 1 9 10
M  V30 10 1 9 11
M  V30 11 2 11 12
M  V30 12 2 5 13
M  V30 13 1 13 14
M  V30 14 2 14 15
M  V30 15 1 15 16
M  V30 16 2 16 17
M  V30 17 1 17 18
M  V30 18 1 17 19
M  V30 19 2 19 20
M  V30 20 1 20 3
M  V30 21 1 12 6
M  V30 22 1 20 14
M  V30 23 1 1 21
M  V30 24 1 1 22
M  V30 25 1 1 23
M  V30 26 1 4 24
M  V30 27 1 7 25
M  V30 28 1 8 26
M  V30 29 1 10 27
M  V30 30 1 11 28
M  V30 31 1 12 29
M  V30 32 1 13 30
M  V30 33 1 15 31
M  V30 34 1 18 32
M  V30 35 1 18 33
M  V30 END BOND
M  V30 END CTAB
M  END
>  <Dataset>  (274) 
ChEMBL_Kinases

>  <Ligand_Instance>  (274) 
nan

>  <PDB_ID>  (274) 
nan

>  <Standardized_SMILES>  (274) 
COc1cc(-c2ccc(O)cc2)cc2cnc(N)nc12

>  <Name>  (274) 
nan

>  <Pocket>  (274) 
nan

>  <ATP_Site>  (274) 
nan

>  <Peripheral>  (274) 
nan

>  <Num_H_Atoms_ProtBoundConf>  (274) 
nan

>  <Num_Resolved_Atoms>  (274) 
nan

>  <Num_Not_Resolved_Atoms>  (274) 
nan

$$$$
CHEMBL585192
     RDKit          3D

  0  0  0  0  0  0  0  0  0  0999 V3000
M  V30 BEGIN CTAB
M  V30 COUNTS 45 48 0 0 0
M  V30 BEGIN ATOM
M  V30 1 C -0.960419 -1.491713 0.174751 0
M  V30 2 C 0.031414 -2.443354 0.706293 0
M  V30 3 C 1.313543 -1.953409 0.690049 0
M  V30 4 N 1.924587 -0.745708 0.285618 0
M  V30 5 C 2.037504 0.052505 -0.874306 0
M  V30 6 C 2.913211 -0.467406 -1.801688 0
M  V30 7 C 3.642596 -1.688169 -1.634655 0
M  V30 8 N 4.246421 -2.664031 -1.509304 0
M  V30 9 C 3.115166 0.216864 -2.973334 0
M  V30 10 N 2.455045 1.366795 -3.177075 0
M  V30 11 C 1.606688 1.860771 -2.266022 0
M  V30 12 C 1.356176 1.227380 -1.067976 0
M  V30 13 C 0.452748 1.833950 -0.130734 0
M  V30 14 C 0.005746 1.591255 1.055191 0
M  V30 15 C -0.932562 2.337388 1.874358 0
M  V30 16 C -1.257580 1.866969 3.127767 0
M  V30 17 C -2.142878 2.541195 3.940202 0
M  V30 18 C -2.739242 3.714931 3.530194 0
M  V30 19 C -2.434744 4.212856 2.279813 0
M  V30 20 C -1.541724 3.493601 1.512375 0
M  V30 21 C 2.328528 -2.799900 1.163383 0
M  V30 22 C 2.051424 -4.088749 1.633381 0
M  V30 23 C 0.737246 -4.501753 1.615459 0
M  V30 24 N 0.100934 -5.650396 1.981033 0
M  V30 25 C -1.229345 -5.563901 1.763871 0
M  V30 26 C -1.504650 -4.301591 1.228019 0
M  V30 27 C -0.283872 -3.701483 1.159255 0
M  V30 28 H -1.853701 -2.027602 -0.264130 0
M  V30 29 H -1.394124 -0.944280 1.042799 0
M  V30 30 H -0.600408 -0.840808 -0.620486 0
M  V30 31 H 2.520365 -0.180907 0.962735 0
M  V30 32 H 3.787221 -0.133849 -3.742474 0
M  V30 33 H 1.126570 2.799595 -2.536391 0
M  V30 34 H -0.025124 2.766994 -0.452650 0
M  V30 35 H 0.429591 0.676170 1.452074 0
M  V30 36 H -0.809649 0.942639 3.492591 0
M  V30 37 H -2.353976 2.108665 4.923244 0
M  V30 38 H -3.441214 4.253756 4.168773 0
M  V30 39 H -2.889479 5.133154 1.933497 0
M  V30 40 H -1.341491 3.930820 0.544073 0
M  V30 41 H 3.411935 -2.614319 1.239258 0
M  V30 42 H 2.780732 -4.789512 2.009948 0
M  V30 43 H 0.623723 -6.472630 2.377327 0
M  V30 44 H -1.960351 -6.335831 1.967805 0
M  V30 45 H -2.473748 -3.899956 0.936234 0
M  V30 END ATOM
M  V30 BEGIN BOND
M  V30 1 1 1 2
M  V30 2 2 2 3
M  V30 3 1 3 4
M  V30 4 1 4 5
M  V30 5 2 5 6
M  V30 6 1 6 7
M  V30 7 3 7 8
M  V30 8 1 6 9
M  V30 9 2 9 10
M  V30 10 1 10 11
M  V30 11 2 11 12
M  V30 12 1 12 13
M  V30 13 2 13 14
M  V30 14 1 14 15
M  V30 15 2 15 16
M  V30 16 1 16 17
M  V30 17 2 17 18
M  V30 18 1 18 19
M  V30 19 2 19 20
M  V30 20 1 3 21
M  V30 21 2 21 22
M  V30 22 1 22 23
M  V30 23 1 23 24
M  V30 24 1 24 25
M  V30 25 2 25 26
M  V30 26 1 26 27
M  V30 27 1 27 2
M  V30 28 1 12 5
M  V30 29 1 20 15
M  V30 30 2 27 23
M  V30 31 1 1 28
M  V30 32 1 1 29
M  V30 33 1 1 30
M  V30 34 1 4 31
M  V30 35 1 9 32
M  V30 36 1 11 33
M  V30 37 1 13 34
M  V30 38 1 14 35
M  V30 39 1 16 36
M  V30 40 1 17 37
M  V30 41 1 18 38
M  V30 42 1 19 39
M  V30 43 1 20 40
M  V30 44 1 21 41
M  V30 45 1 22 42
M  V30 46 1 24 43
M  V30 47 1 25 44
M  V30 48 1 26 45
M  V30 END BOND
M  V30 END CTAB
M  END
>  <Dataset>  (275) 
ChEMBL_Kinases

>  <Ligand_Instance>  (275) 
nan

>  <PDB_ID>  (275) 
nan

>  <Standardized_SMILES>  (275) 
Cc1c(Nc2c(C#N)cncc2/C=C/c2ccccc2)ccc2[nH]ccc12

>  <Name>  (275) 
nan

>  <Pocket>  (275) 
nan

>  <ATP_Site>  (275) 
nan

>  <Peripheral>  (275) 
nan

>  <Num_H_Atoms_ProtBoundConf>  (275) 
nan

>  <Num_Resolved_Atoms>  (275) 
nan

>  <Num_Not_Resolved_Atoms>  (275) 
nan

$$$$
CHEMBL3752670
     RDKit          3D

  0  0  0  0  0  0  0  0  0  0999 V3000
M  V30 BEGIN CTAB
M  V30 COUNTS 35 37 0 0 0
M  V30 BEGIN ATOM
M  V30 1 N 1.996114 -4.830714 4.785528 0
M  V30 2 C 1.112053 -5.082774 3.701878 0
M  V30 3 O 0.933308 -6.288639 3.914914 0
M  V30 4 C 0.672084 -4.080980 2.741078 0
M  V30 5 C -0.189916 -4.484400 1.744566 0
M  V30 6 C -0.568482 -3.468526 0.861038 0
M  V30 7 C -0.119111 -2.185655 0.979765 0
M  V30 8 C -0.585492 -1.217278 -0.002551 0
M  V30 9 C -0.233731 0.115553 -0.031847 0
M  V30 10 C -0.696064 0.998989 -0.976211 0
M  V30 11 C -0.287256 2.410670 -0.958776 0
M  V30 12 C 0.952194 2.821056 -0.510210 0
M  V30 13 C 1.287994 4.160144 -0.513952 0
M  V30 14 C 0.393620 5.130539 -0.966859 0
M  V30 15 Cl 0.893168 6.819109 -0.941577 0
M  V30 16 C -0.849928 4.707966 -1.415816 0
M  V30 17 C -1.197104 3.370874 -1.416757 0
M  V30 18 C -1.563145 0.565337 -1.967655 0
M  V30 19 C -1.897319 -0.778175 -1.911011 0
M  V30 20 N -1.426435 -1.639930 -0.963376 0
M  V30 21 C 0.740614 -1.866785 2.004893 0
M  V30 22 C 1.175070 -2.814188 2.937150 0
M  V30 23 H 3.022440 -5.017666 4.990348 0
M  V30 24 H 3.027389 -5.077640 4.861804 0
M  V30 25 H -0.536130 -5.500917 1.663571 0
M  V30 26 H -1.254628 -3.795290 0.070325 0
M  V30 27 H 0.441328 0.479302 0.729900 0
M  V30 28 H 1.660766 2.090098 -0.155194 0
M  V30 29 H 2.258889 4.479355 -0.162226 0
M  V30 30 H -1.518877 5.479318 -1.759165 0
M  V30 31 H -2.165640 3.054977 -1.768133 0
M  V30 32 H -1.965507 1.203672 -2.740566 0
M  V30 33 H -2.570508 -1.189214 -2.653521 0
M  V30 34 H 1.105877 -0.856607 2.113585 0
M  V30 35 H 1.846526 -2.583036 3.744349 0
M  V30 END ATOM
M  V30 BEGIN BOND
M  V30 1 1 1 2
M  V30 2 2 2 3
M  V30 3 1 2 4
M  V30 4 2 4 5
M  V30 5 1 5 6
M  V30 6 2 6 7
M  V30 7 1 7 8
M  V30 8 2 8 9
M  V30 9 1 9 10
M  V30 10 1 10 11
M  V30 11 2 11 12
M  V30 12 1 12 13
M  V30 13 2 13 14
M  V30 14 1 14 15
M  V30 15 1 14 16
M  V30 16 2 16 17
M  V30 17 2 10 18
M  V30 18 1 18 19
M  V30 19 2 19 20
M  V30 20 1 7 21
M  V30 21 2 21 22
M  V30 22 1 22 4
M  V30 23 1 20 8
M  V30 24 1 17 11
M  V30 25 1 1 23
M  V30 26 1 1 24
M  V30 27 1 5 25
M  V30 28 1 6 26
M  V30 29 1 9 27
M  V30 30 1 12 28
M  V30 31 1 13 29
M  V30 32 1 16 30
M  V30 33 1 17 31
M  V30 34 1 18 32
M  V30 35 1 19 33
M  V30 36 1 21 34
M  V30 37 1 22 35
M  V30 END BOND
M  V30 END CTAB
M  END
>  <Dataset>  (276) 
ChEMBL_Kinases

>  <Ligand_Instance>  (276) 
nan

>  <PDB_ID>  (276) 
nan

>  <Standardized_SMILES>  (276) 
NC(=O)c1ccc(-c2cc(-c3ccc(Cl)cc3)ccn2)cc1

>  <Name>  (276) 
nan

>  <Pocket>  (276) 
nan

>  <ATP_Site>  (276) 
nan

>  <Peripheral>  (276) 
nan

>  <Num_H_Atoms_ProtBoundConf>  (276) 
nan

>  <Num_Resolved_Atoms>  (276) 
nan

>  <Num_Not_Resolved_Atoms>  (276) 
nan

$$$$
CHEMBL3752816
     RDKit          3D

  0  0  0  0  0  0  0  0  0  0999 V3000
M  V30 BEGIN CTAB
M  V30 COUNTS 47 49 0 0 0
M  V30 BEGIN ATOM
M  V30 1 C -2.599097 -6.574006 3.237228 0
M  V30 2 O -3.085215 -5.252159 3.019497 0
M  V30 3 C -2.311848 -4.342960 2.311277 0
M  V30 4 C -1.073187 -4.767059 1.835182 0
M  V30 5 C -0.351694 -3.819198 1.139635 0
M  V30 6 C -0.762648 -2.533517 0.896894 0
M  V30 7 C 0.083696 -1.613856 0.146197 0
M  V30 8 C 0.018844 -0.285251 0.441500 0
M  V30 9 N 0.814716 0.518586 -0.276629 0
M  V30 10 C 1.638123 0.100576 -1.231876 0
M  V30 11 C 2.417699 0.974636 -1.933570 0
M  V30 12 O 2.827776 2.194823 -2.170885 0
M  V30 13 C 2.724815 3.479450 -1.788009 0
M  V30 14 C 3.141163 3.916279 -0.435603 0
M  V30 15 C 2.459315 3.326235 0.739538 0
M  V30 16 C 0.973085 3.607264 0.726083 0
M  V30 17 C 3.053249 3.890848 2.048846 0
M  V30 18 S 3.313725 0.018443 -3.072884 0
M  V30 19 N 2.588144 -1.628411 -2.559892 0
M  V30 20 C 1.729575 -1.204346 -1.552165 0
M  V30 21 C 0.926967 -2.067685 -0.836576 0
M  V30 22 C -1.994253 -2.182341 1.395030 0
M  V30 23 C -2.811218 -3.061441 2.114554 0
M  V30 24 O -3.941754 -2.726707 2.567200 0
M  V30 25 C -5.102669 -2.336398 3.015719 0
M  V30 26 H -3.379180 -7.233084 3.640654 0
M  V30 27 H -2.304086 -7.016405 2.246228 0
M  V30 28 H -1.664621 -6.559664 3.840189 0
M  V30 29 H -0.709250 -5.770624 2.003064 0
M  V30 30 H 0.609109 -4.138753 0.766922 0
M  V30 31 H -0.651566 0.058641 1.219996 0
M  V30 32 H 1.662718 3.819586 -1.977998 0
M  V30 33 H 3.378276 4.093729 -2.508279 0
M  V30 34 H 2.939571 5.032654 -0.387395 0
M  V30 35 H 4.248674 3.831801 -0.319675 0
M  V30 36 H 2.615301 2.253197 0.815263 0
M  V30 37 H 0.412591 2.850964 1.340898 0
M  V30 38 H 0.553039 3.564596 -0.297508 0
M  V30 39 H 0.731342 4.589585 1.169959 0
M  V30 40 H 4.044180 4.281667 1.801031 0
M  V30 41 H 3.179131 3.097309 2.812498 0
M  V30 42 H 2.367391 4.639940 2.492451 0
M  V30 43 H 0.914635 -3.135426 -1.004513 0
M  V30 44 H -2.376586 -1.185502 1.239062 0
M  V30 45 H -5.910544 -3.140083 2.899866 0
M  V30 46 H -5.153112 -2.033119 4.116553 0
M  V30 47 H -5.594235 -1.477088 2.436036 0
M  V30 END ATOM
M  V30 BEGIN BOND
M  V30 1 1 1 2
M  V30 2 1 2 3
M  V30 3 2 3 4
M  V30 4 1 4 5
M  V30 5 2 5 6
M  V30 6 1 6 7
M  V30 7 1 7 8
M  V30 8 2 8 9
M  V30 9 1 9 10
M  V30 10 2 10 11
M  V30 11 1 11 12
M  V30 12 1 12 13
M  V30 13 1 13 14
M  V30 14 1 14 15
M  V30 15 1 15 16
M  V30 16 1 15 17
M  V30 17 1 11 18
M  V30 18 1 18 19
M  V30 19 2 19 20
M  V30 20 1 20 21
M  V30 21 1 6 22
M  V30 22 2 22 23
M  V30 23 1 23 24
M  V30 24 1 24 25
M  V30 25 1 23 3
M  V30 26 2 21 7
M  V30 27 1 20 10
M  V30 28 1 1 26
M  V30 29 1 1 27
M  V30 30 1 1 28
M  V30 31 1 4 29
M  V30 32 1 5 30
M  V30 33 1 8 31
M  V30 34 1 13 32
M  V30 35 1 13 33
M  V30 36 1 14 34
M  V30 37 1 14 35
M  V30 38 1 15 36
M  V30 39 1 16 37
M  V30 40 1 16 38
M  V30 41 1 16 39
M  V30 42 1 17 40
M  V30 43 1 17 41
M  V30 44 1 17 42
M  V30 45 1 21 43
M  V30 46 1 22 44
M  V30 47 1 25 45
M  V30 48 1 25 46
M  V30 49 1 25 47
M  V30 END BOND
M  V30 END CTAB
M  END
>  <Dataset>  (277) 
ChEMBL_Kinases

>  <Ligand_Instance>  (277) 
nan

>  <PDB_ID>  (277) 
nan

>  <Standardized_SMILES>  (277) 
COc1ccc(-c2cnc3c(OCCC(C)C)snc3c2)cc1OC

>  <Name>  (277) 
nan

>  <Pocket>  (277) 
nan

>  <ATP_Site>  (277) 
nan

>  <Peripheral>  (277) 
nan

>  <Num_H_Atoms_ProtBoundConf>  (277) 
nan

>  <Num_Resolved_Atoms>  (277) 
nan

>  <Num_Not_Resolved_Atoms>  (277) 
nan

$$$$
CHEMBL5087162
     RDKit          3D

  0  0  0  0  0  0  0  0  0  0999 V3000
M  V30 BEGIN CTAB
M  V30 COUNTS 63 67 0 0 0
M  V30 BEGIN ATOM
M  V30 1 C 0.223440 -6.258697 2.136593 0
M  V30 2 C 1.158574 -5.169433 2.541803 0
M  V30 3 N 2.026442 -5.170852 3.589050 0
M  V30 4 N 2.695031 -4.028127 3.637721 0
M  V30 5 C 2.286890 -3.240973 2.623950 0
M  V30 6 N 2.638152 -1.986234 2.215765 0
M  V30 7 C 2.049678 -1.435806 1.141493 0
M  V30 8 C 2.370501 -0.101047 0.643739 0
M  V30 9 C 3.317261 0.689114 1.262143 0
M  V30 10 C 3.636177 1.954366 0.808457 0
M  V30 11 C 2.994772 2.464039 -0.302878 0
M  V30 12 N 3.178686 3.733436 -0.922393 0
M  V30 13 S 3.273610 5.177252 0.057137 0
M  V30 14 O 4.392616 4.954694 1.035510 0
M  V30 15 O 3.631886 6.334426 -0.809156 0
M  V30 16 C 1.800527 5.421494 0.948408 0
M  V30 17 C 1.668204 5.480869 2.323444 0
M  V30 18 C 0.428411 5.679841 2.868596 0
M  V30 19 Cl 0.338595 5.743206 4.604594 0
M  V30 20 C -0.714158 5.826476 2.101554 0
M  V30 21 C -0.587621 5.767827 0.720921 0
M  V30 22 C 0.672916 5.565436 0.164068 0
M  V30 23 F 0.680292 5.524700 -1.205749 0
M  V30 24 C 2.035527 1.696666 -0.951454 0
M  V30 25 C 1.736335 0.434281 -0.475911 0
M  V30 26 N 1.113881 -2.143543 0.482395 0
M  V30 27 C 0.706471 -3.373333 0.806302 0
M  V30 28 O -0.269642 -4.053518 0.080214 0
M  V30 29 C -0.833532 -3.403129 -1.030786 0
M  V30 30 C -1.870771 -4.283606 -1.698588 0
M  V30 31 C -3.022283 -4.666141 -0.793039 0
M  V30 32 N -3.905248 -4.056217 -1.718882 0
M  V30 33 C -4.908789 -3.146419 -1.247015 0
M  V30 34 C -4.308040 -1.957505 -0.531660 0
M  V30 35 C -5.921456 -3.763321 -0.348296 0
M  V30 36 C -2.868908 -3.496467 -2.526040 0
M  V30 37 C 1.322741 -3.935024 1.921580 0
M  V30 38 H 0.536548 -6.760052 1.199464 0
M  V30 39 H 0.106262 -6.961369 2.984914 0
M  V30 40 H -0.780726 -5.798343 1.966192 0
M  V30 41 H 3.425368 -3.731853 4.321781 0
M  V30 42 H 3.846556 0.333025 2.136678 0
M  V30 43 H 4.364600 2.622622 1.244230 0
M  V30 44 H 3.259020 3.817055 -1.966564 0
M  V30 45 H 2.590980 5.360425 2.874388 0
M  V30 46 H -1.672665 5.980767 2.541316 0
M  V30 47 H -1.483443 5.882637 0.114293 0
M  V30 48 H 1.456948 1.969455 -1.830022 0
M  V30 49 H 1.001353 -0.213132 -0.933482 0
M  V30 50 H -0.127367 -2.968673 -1.734403 0
M  V30 51 H -1.413099 -2.532205 -0.612403 0
M  V30 52 H -1.414295 -5.102255 -2.279462 0
M  V30 53 H -2.889479 -4.218614 0.189926 0
M  V30 54 H -3.184313 -5.777485 -0.801347 0
M  V30 55 H -5.432960 -2.754557 -2.145798 0
M  V30 56 H -5.190878 -1.399143 -0.101768 0
M  V30 57 H -3.747727 -1.277208 -1.196020 0
M  V30 58 H -3.723031 -2.266473 0.360248 0
M  V30 59 H -5.494069 -3.972392 0.631748 0
M  V30 60 H -6.450458 -4.628207 -0.799712 0
M  V30 61 H -6.723549 -2.986912 -0.194270 0
M  V30 62 H -2.967359 -3.909614 -3.571019 0
M  V30 63 H -2.714848 -2.418803 -2.532204 0
M  V30 END ATOM
M  V30 BEGIN BOND
M  V30 1 1 1 2
M  V30 2 2 2 3
M  V30 3 1 3 4
M  V30 4 1 4 5
M  V30 5 2 5 6
M  V30 6 1 6 7
M  V30 7 1 7 8
M  V30 8 2 8 9
M  V30 9 1 9 10
M  V30 10 2 10 11
M  V30 11 1 11 12
M  V30 12 1 12 13
M  V30 13 2 13 14
M  V30 14 2 13 15
M  V30 15 1 13 16
M  V30 16 2 16 17
M  V30 17 1 17 18
M  V30 18 1 18 19
M  V30 19 2 18 20
M  V30 20 1 20 21
M  V30 21 2 21 22
M  V30 22 1 22 23
M  V30 23 1 11 24
M  V30 24 2 24 25
M  V30 25 2 7 26
M  V30 26 1 26 27
M  V30 27 1 27 28
M  V30 28 1 28 29
M  V30 29 1 29 30
M  V30 30 1 30 31
M  V30 31 1 31 32
M  V30 32 1 32 33
M  V30 33 1 33 34
M  V30 34 1 33 35
M  V30 35 1 32 36
M  V30 36 2 27 37
M  V30 37 1 37 2
M  V30 38 1 37 5
M  V30 39 1 25 8
M  V30 40 1 36 30
M  V30 41 1 22 16
M  V30 42 1 1 38
M  V30 43 1 1 39
M  V30 44 1 1 40
M  V30 45 1 4 41
M  V30 46 1 9 42
M  V30 47 1 10 43
M  V30 48 1 12 44
M  V30 49 1 17 45
M  V30 50 1 20 46
M  V30 51 1 21 47
M  V30 52 1 24 48
M  V30 53 1 25 49
M  V30 54 1 29 50
M  V30 55 1 29 51
M  V30 56 1 30 52
M  V30 57 1 31 53
M  V30 58 1 31 54
M  V30 59 1 33 55
M  V30 60 1 34 56
M  V30 61 1 34 57
M  V30 62 1 34 58
M  V30 63 1 35 59
M  V30 64 1 35 60
M  V30 65 1 35 61
M  V30 66 1 36 62
M  V30 67 1 36 63
M  V30 END BOND
M  V30 END CTAB
M  END
>  <Dataset>  (278) 
ChEMBL_Kinases

>  <Ligand_Instance>  (278) 
nan

>  <PDB_ID>  (278) 
nan

>  <Standardized_SMILES>  (278) 
Cc1n[nH]c2nc(-c3ccc(NS(=O)(=O)c4cc(Cl)ccc4F)cc3)nc(OCC3CN(C(C)C)C3)c12

>  <Name>  (278) 
nan

>  <Pocket>  (278) 
nan

>  <ATP_Site>  (278) 
nan

>  <Peripheral>  (278) 
nan

>  <Num_H_Atoms_ProtBoundConf>  (278) 
nan

>  <Num_Resolved_Atoms>  (278) 
nan

>  <Num_Not_Resolved_Atoms>  (278) 
nan

$$$$
CHEMBL5087208
     RDKit          3D

  0  0  0  0  0  0  0  0  0  0999 V3000
M  V30 BEGIN CTAB
M  V30 COUNTS 64 68 0 0 0
M  V30 BEGIN ATOM
M  V30 1 C 0.021807 0.151220 7.364686 0
M  V30 2 O -1.096154 -0.213049 6.551023 0
M  V30 3 C -0.950008 -0.281176 5.172995 0
M  V30 4 C -2.022194 -0.632423 4.381374 0
M  V30 5 C -1.943546 -0.718672 3.006719 0
M  V30 6 C -0.773471 -0.453806 2.352925 0
M  V30 7 S -0.688885 -0.567251 0.610205 0
M  V30 8 O -1.685747 -1.588010 0.162327 0
M  V30 9 O 0.726325 -0.949422 0.288768 0
M  V30 10 N -1.099782 0.936102 -0.133629 0
M  V30 11 C -0.190422 1.983607 0.238373 0
M  V30 12 C -0.450372 3.320746 -0.328511 0
M  V30 13 C -0.447606 3.494557 -1.795719 0
M  V30 14 N 0.829336 3.154988 -2.360812 0
M  V30 15 C 1.598532 2.005309 -2.682040 0
M  V30 16 N 2.872266 2.023661 -3.135397 0
M  V30 17 C 3.472950 0.889185 -3.443272 0
M  V30 18 C 2.859474 -0.343182 -3.326064 0
M  V30 19 C 1.559582 -0.342942 -2.861719 0
M  V30 20 C 1.062065 -1.728743 -2.812194 0
M  V30 21 C -0.070818 -2.027774 -3.532555 0
M  V30 22 C -0.959117 -1.244985 -4.380670 0
M  V30 23 C -0.648300 -0.575598 -5.554816 0
M  V30 24 C -1.640581 0.116256 -6.220119 0
M  V30 25 C -2.923045 0.141651 -5.724467 0
M  V30 26 C -3.251885 -0.517207 -4.559342 0
M  V30 27 O -4.588535 -0.373671 -4.225704 0
M  V30 28 C -5.208256 -0.929729 -3.099892 0
M  V30 29 C -2.274091 -1.195501 -3.909192 0
M  V30 30 N -0.307382 -3.333594 -3.328894 0
M  V30 31 C 0.661286 -3.790074 -2.510011 0
M  V30 32 S 1.266946 -5.237839 -1.668090 0
M  V30 33 C 2.693742 -4.366763 -0.902197 0
M  V30 34 C 2.549765 -3.050770 -1.378461 0
M  V30 35 N 1.504354 -2.832635 -2.183117 0
M  V30 36 N 0.960664 0.810631 -2.552237 0
M  V30 37 C 0.312700 -0.098662 3.145767 0
M  V30 38 C 0.256911 -0.006250 4.520979 0
M  V30 39 H 0.563500 1.010608 6.926637 0
M  V30 40 H -0.280038 0.441992 8.374558 0
M  V30 41 H 0.705665 -0.736955 7.350710 0
M  V30 42 H -2.959379 -0.846622 4.881814 0
M  V30 43 H -2.828552 -1.000319 2.459160 0
M  V30 44 H -2.078637 1.221825 0.078274 0
M  V30 45 H 0.865483 1.636484 0.110515 0
M  V30 46 H -0.300267 2.076688 1.363026 0
M  V30 47 H -1.440972 3.742976 0.038553 0
M  V30 48 H 0.286310 4.051208 0.125362 0
M  V30 49 H -1.184820 2.825285 -2.315868 0
M  V30 50 H -0.727561 4.515011 -2.119104 0
M  V30 51 H 1.385332 4.027006 -2.621747 0
M  V30 52 H 4.499563 1.062286 -3.795478 0
M  V30 53 H 3.497122 -1.165711 -3.621822 0
M  V30 54 H 0.389553 -0.668346 -5.844245 0
M  V30 55 H -1.336414 0.616982 -7.128310 0
M  V30 56 H -3.612356 0.717533 -6.334583 0
M  V30 57 H -5.536134 -0.077185 -2.458108 0
M  V30 58 H -4.557807 -1.571512 -2.481235 0
M  V30 59 H -6.155552 -1.458467 -3.364045 0
M  V30 60 H -2.595600 -1.695760 -2.993883 0
M  V30 61 H 3.424359 -4.836173 -0.249972 0
M  V30 62 H 3.324032 -2.392314 -1.015283 0
M  V30 63 H 1.237034 0.108950 2.604082 0
M  V30 64 H 1.122589 0.273470 5.109285 0
M  V30 END ATOM
M  V30 BEGIN BOND
M  V30 1 1 1 2
M  V30 2 1 2 3
M  V30 3 2 3 4
M  V30 4 1 4 5
M  V30 5 2 5 6
M  V30 6 1 6 7
M  V30 7 2 7 8
M  V30 8 2 7 9
M  V30 9 1 7 10
M  V30 10 1 10 11
M  V30 11 1 11 12
M  V30 12 1 12 13
M  V30 13 1 13 14
M  V30 14 1 14 15
M  V30 15 2 15 16
M  V30 16 1 16 17
M  V30 17 2 17 18
M  V30 18 1 18 19
M  V30 19 1 19 20
M  V30 20 2 20 21
M  V30 21 1 21 22
M  V30 22 2 22 23
M  V30 23 1 23 24
M  V30 24 2 24 25
M  V30 25 1 25 26
M  V30 26 1 26 27
M  V30 27 1 27 28
M  V30 28 2 26 29
M  V30 29 1 21 30
M  V30 30 2 30 31
M  V30 31 1 31 32
M  V30 32 1 32 33
M  V30 33 2 33 34
M  V30 34 1 34 35
M  V30 35 2 19 36
M  V30 36 1 6 37
M  V30 37 2 37 38
M  V30 38 1 38 3
M  V30 39 1 36 15
M  V30 40 1 35 20
M  V30 41 1 29 22
M  V30 42 1 35 31
M  V30 43 1 1 39
M  V30 44 1 1 40
M  V30 45 1 1 41
M  V30 46 1 4 42
M  V30 47 1 5 43
M  V30 48 1 10 44
M  V30 49 1 11 45
M  V30 50 1 11 46
M  V30 51 1 12 47
M  V30 52 1 12 48
M  V30 53 1 13 49
M  V30 54 1 13 50
M  V30 55 1 14 51
M  V30 56 1 17 52
M  V30 57 1 18 53
M  V30 58 1 23 54
M  V30 59 1 24 55
M  V30 60 1 25 56
M  V30 61 1 28 57
M  V30 62 1 28 58
M  V30 63 1 28 59
M  V30 64 1 29 60
M  V30 65 1 33 61
M  V30 66 1 34 62
M  V30 67 1 37 63
M  V30 68 1 38 64
M  V30 END BOND
M  V30 END CTAB
M  END
>  <Dataset>  (279) 
ChEMBL_Kinases

>  <Ligand_Instance>  (279) 
nan

>  <PDB_ID>  (279) 
nan

>  <Standardized_SMILES>  (279) 
COc1ccc(S(=O)(=O)NCCCNc2nccc(-c3c(-c4cccc(OC)c4)nc4sccn34)n2)cc1

>  <Name>  (279) 
nan

>  <Pocket>  (279) 
nan

>  <ATP_Site>  (279) 
nan

>  <Peripheral>  (279) 
nan

>  <Num_H_Atoms_ProtBoundConf>  (279) 
nan

>  <Num_Resolved_Atoms>  (279) 
nan

>  <Num_Not_Resolved_Atoms>  (279) 
nan

$$$$
CHEMBL5087340
     RDKit          3D

  0  0  0  0  0  0  0  0  0  0999 V3000
M  V30 BEGIN CTAB
M  V30 COUNTS 95 101 0 0 0
M  V30 BEGIN ATOM
M  V30 1 C 3.172228 -2.340418 2.206134 0
M  V30 2 C 3.896832 -1.826493 3.422524 0
M  V30 3 C 3.157065 -2.217972 4.641185 0
M  V30 4 C 3.688959 -3.284604 5.372607 0
M  V30 5 C 3.138217 -3.772919 6.535362 0
M  V30 6 C 1.994346 -3.124374 6.945477 0
M  V30 7 C 1.414023 -2.062264 6.269314 0
M  V30 8 C 0.180999 -1.452102 6.817449 0
M  V30 9 C 0.431994 -0.129032 7.516075 0
M  V30 10 C 2.013726 -1.601871 5.089192 0
M  V30 11 N 1.449492 -0.506511 4.380882 0
M  V30 12 C 1.765150 0.883740 4.401035 0
M  V30 13 C 0.628879 1.829741 4.259807 0
M  V30 14 N -0.398573 1.398619 3.365705 0
M  V30 15 C -1.323893 2.201362 2.809843 0
M  V30 16 C -2.133238 1.423203 2.023916 0
M  V30 17 C -3.280664 1.763334 1.190084 0
M  V30 18 N -3.307923 1.200370 -0.019029 0
M  V30 19 C -4.249504 1.365439 -0.956428 0
M  V30 20 N -4.281732 0.767145 -2.243029 0
M  V30 21 C -3.334542 -0.144342 -2.770000 0
M  V30 22 C -2.236170 -0.654781 -2.160668 0
M  V30 23 C -1.331746 -1.546762 -2.697608 0
M  V30 24 C -1.542544 -1.979517 -3.983055 0
M  V30 25 N -0.648641 -2.903460 -4.591717 0
M  V30 26 C 0.421133 -3.641665 -3.951154 0
M  V30 27 C 1.676527 -3.720422 -4.789863 0
M  V30 28 N 1.749246 -2.651517 -5.759954 0
M  V30 29 C 2.032053 -1.420464 -5.041011 0
M  V30 30 C 2.130998 -0.258485 -5.938115 0
M  V30 31 O 2.047200 0.022916 -7.160765 0
M  V30 32 N 2.410549 0.905546 -5.155470 0
M  V30 33 C 2.558457 2.208088 -5.820480 0
M  V30 34 C 2.594263 1.088759 -3.727031 0
M  V30 35 C 0.578954 -2.574163 -6.593580 0
M  V30 36 C -0.606682 -3.295221 -5.985339 0
M  V30 37 C -2.627992 -1.508727 -4.658806 0
M  V30 38 C -3.504915 -0.617289 -4.079668 0
M  V30 39 O -4.615052 -0.156908 -4.817303 0
M  V30 40 C -4.830407 -0.606598 -6.144979 0
M  V30 41 N -5.243390 2.190114 -0.591609 0
M  V30 42 C -5.326630 2.812962 0.592025 0
M  V30 43 N -6.192541 3.667927 1.190852 0
M  V30 44 C -5.742077 3.965630 2.421092 0
M  V30 45 C -4.537505 3.300881 2.677832 0
M  V30 46 C -4.324072 2.599938 1.512344 0
M  V30 47 C -1.636561 0.142593 2.150709 0
M  V30 48 C -0.547247 0.117162 2.990624 0
M  V30 49 C 0.392210 -0.908689 3.496030 0
M  V30 50 O 0.099429 -2.048557 3.044069 0
M  V30 51 H 3.907946 -2.672808 1.419998 0
M  V30 52 H 2.567102 -1.563325 1.696444 0
M  V30 53 H 2.514592 -3.209102 2.419452 0
M  V30 54 H 4.054543 -0.720484 3.371454 0
M  V30 55 H 4.915623 -2.291242 3.395644 0
M  V30 56 H 4.600561 -3.783176 5.023310 0
M  V30 57 H 3.551443 -4.589468 7.088984 0
M  V30 58 H 1.531612 -3.492332 7.871755 0
M  V30 59 H -0.254191 -2.139203 7.566558 0
M  V30 60 H -0.605002 -1.338592 6.038378 0
M  V30 61 H -0.270464 0.645934 7.181388 0
M  V30 62 H 1.457246 0.197713 7.272433 0
M  V30 63 H 0.330349 -0.250417 8.636158 0
M  V30 64 H 2.467986 1.048312 3.527754 0
M  V30 65 H 2.391820 1.126168 5.283118 0
M  V30 66 H 1.043278 2.842569 3.979110 0
M  V30 67 H 0.179930 2.000142 5.261539 0
M  V30 68 H -1.486486 3.266783 2.899621 0
M  V30 69 H -5.089621 1.030780 -2.855178 0
M  V30 70 H -2.027057 -0.346980 -1.151451 0
M  V30 71 H -0.488808 -1.876440 -2.095419 0
M  V30 72 H 0.038819 -4.705695 -3.900807 0
M  V30 73 H 0.617551 -3.333829 -2.919329 0
M  V30 74 H 1.812126 -4.682278 -5.284649 0
M  V30 75 H 2.530403 -3.570440 -4.091832 0
M  V30 76 H 1.265188 -1.297765 -4.253854 0
M  V30 77 H 3.008908 -1.549190 -4.534521 0
M  V30 78 H 3.449845 2.735270 -5.479078 0
M  V30 79 H 2.691724 2.014338 -6.913903 0
M  V30 80 H 1.597848 2.745539 -5.610184 0
M  V30 81 H 2.568523 0.133217 -3.180256 0
M  V30 82 H 3.626566 1.483280 -3.581014 0
M  V30 83 H 1.897002 1.828512 -3.283603 0
M  V30 84 H 0.265113 -1.544871 -6.811985 0
M  V30 85 H 0.808282 -3.074112 -7.554683 0
M  V30 86 H -1.488879 -2.934571 -6.566733 0
M  V30 87 H -0.558210 -4.399155 -6.131954 0
M  V30 88 H -2.874238 -1.795289 -5.674496 0
M  V30 89 H -5.077456 -1.705008 -6.086827 0
M  V30 90 H -3.976241 -0.422726 -6.819718 0
M  V30 91 H -5.711161 -0.071353 -6.536002 0
M  V30 92 H -7.051583 3.991764 0.695394 0
M  V30 93 H -6.229072 4.625618 3.128017 0
M  V30 94 H -3.902229 3.306566 3.552487 0
M  V30 95 H -2.044461 -0.729977 1.657895 0
M  V30 END ATOM
M  V30 BEGIN BOND
M  V30 1 1 1 2
M  V30 2 1 2 3
M  V30 3 2 3 4
M  V30 4 1 4 5
M  V30 5 2 5 6
M  V30 6 1 6 7
M  V30 7 1 7 8
M  V30 8 1 8 9
M  V30 9 2 7 10
M  V30 10 1 10 11
M  V30 11 1 11 12
M  V30 12 1 12 13
M  V30 13 1 13 14
M  V30 14 1 14 15
M  V30 15 2 15 16
M  V30 16 1 16 17
M  V30 17 2 17 18
M  V30 18 1 18 19
M  V30 19 1 19 20
M  V30 20 1 20 21
M  V30 21 2 21 22
M  V30 22 1 22 23
M  V30 23 2 23 24
M  V30 24 1 24 25
M  V30 25 1 25 26
M  V30 26 1 26 27
M  V30 27 1 27 28
M  V30 28 1 28 29
M  V30 29 1 29 30
M  V30 30 2 30 31
M  V30 31 1 30 32
M  V30 32 1 32 33
M  V30 33 1 32 34
M  V30 34 1 28 35
M  V30 35 1 35 36
M  V30 36 1 24 37
M  V30 37 2 37 38
M  V30 38 1 38 39
M  V30 39 1 39 40
M  V30 40 2 19 41
M  V30 41 1 41 42
M  V30 42 1 42 43
M  V30 43 1 43 44
M  V30 44 2 44 45
M  V30 45 1 45 46
M  V30 46 1 16 47
M  V30 47 2 47 48
M  V30 48 1 48 49
M  V30 49 2 49 50
M  V30 50 1 10 3
M  V30 51 1 49 11
M  V30 52 1 48 14
M  V30 53 1 46 17
M  V30 54 1 38 21
M  V30 55 2 46 42
M  V30 56 1 36 25
M  V30 57 1 1 51
M  V30 58 1 1 52
M  V30 59 1 1 53
M  V30 60 1 2 54
M  V30 61 1 2 55
M  V30 62 1 4 56
M  V30 63 1 5 57
M  V30 64 1 6 58
M  V30 65 1 8 59
M  V30 66 1 8 60
M  V30 67 1 9 61
M  V30 68 1 9 62
M  V30 69 1 9 63
M  V30 70 1 12 64
M  V30 71 1 12 65
M  V30 72 1 13 66
M  V30 73 1 13 67
M  V30 74 1 15 68
M  V30 75 1 20 69
M  V30 76 1 22 70
M  V30 77 1 23 71
M  V30 78 1 26 72
M  V30 79 1 26 73
M  V30 80 1 27 74
M  V30 81 1 27 75
M  V30 82 1 29 76
M  V30 83 1 29 77
M  V30 84 1 33 78
M  V30 85 1 33 79
M  V30 86 1 33 80
M  V30 87 1 34 81
M  V30 88 1 34 82
M  V30 89 1 34 83
M  V30 90 1 35 84
M  V30 91 1 35 85
M  V30 92 1 36 86
M  V30 93 1 36 87
M  V30 94 1 37 88
M  V30 95 1 40 89
M  V30 96 1 40 90
M  V30 97 1 40 91
M  V30 98 1 43 92
M  V30 99 1 44 93
M  V30 100 1 45 94
M  V30 101 1 47 95
M  V30 END BOND
M  V30 END CTAB
M  END
>  <Dataset>  (280) 
ChEMBL_Kinases

>  <Ligand_Instance>  (280) 
nan

>  <PDB_ID>  (280) 
nan

>  <Standardized_SMILES>  (280) 
CCc1cccc(CC)c1N1CCn2cc(-c3nc(Nc4ccc(N5CCN(CC(=O)N(C)C)CC5)cc4OC)nc4[nH]ccc34)cc2C1=O

>  <Name>  (280) 
nan

>  <Pocket>  (280) 
nan

>  <ATP_Site>  (280) 
nan

>  <Peripheral>  (280) 
nan

>  <Num_H_Atoms_ProtBoundConf>  (280) 
nan

>  <Num_Resolved_Atoms>  (280) 
nan

>  <Num_Not_Resolved_Atoms>  (280) 
nan

$$$$
CHEMBL5087398
     RDKit          3D

  0  0  0  0  0  0  0  0  0  0999 V3000
M  V30 BEGIN CTAB
M  V30 COUNTS 40 43 0 0 0
M  V30 BEGIN ATOM
M  V30 1 C 1.415383 -5.981097 2.751283 0
M  V30 2 O 1.574828 -5.402029 1.482260 0
M  V30 3 C 1.439675 -4.038829 1.317014 0
M  V30 4 O 1.174429 -3.460311 2.396111 0
M  V30 5 C 1.594147 -3.366602 0.012946 0
M  V30 6 C 1.886718 -3.988483 -1.196895 0
M  V30 7 C 2.001684 -3.212025 -2.334956 0
M  V30 8 C 1.829843 -1.841170 -2.276124 0
M  V30 9 C 1.536172 -1.181579 -1.086287 0
M  V30 10 C 1.352669 0.260925 -0.989173 0
M  V30 11 C 1.989500 1.218780 -1.751554 0
M  V30 12 N 1.750581 2.534879 -1.592238 0
M  V30 13 C 0.861577 2.993041 -0.664150 0
M  V30 14 N 0.443153 4.232563 -0.304929 0
M  V30 15 C -0.461995 4.147718 0.681510 0
M  V30 16 C -0.648482 2.816792 0.983742 0
M  V30 17 C -1.536393 2.231962 1.983337 0
M  V30 18 C -2.345580 1.156477 1.684107 0
M  V30 19 C -3.205182 0.567784 2.613095 0
M  V30 20 C -3.209528 1.122789 3.873004 0
M  V30 21 N -2.431296 2.187805 4.229901 0
M  V30 22 C -1.620324 2.707943 3.274758 0
M  V30 23 C 0.171775 2.087731 0.150902 0
M  V30 24 C 0.460941 0.755991 -0.061125 0
M  V30 25 C 1.427081 -1.984432 0.037493 0
M  V30 26 H 0.812511 -6.913999 2.675217 0
M  V30 27 H 2.392385 -6.222629 3.232720 0
M  V30 28 H 0.867970 -5.304528 3.460433 0
M  V30 29 H 2.003543 -5.061637 -1.143003 0
M  V30 30 H 2.229711 -3.725952 -3.262469 0
M  V30 31 H 1.926410 -1.269606 -3.172468 0
M  V30 32 H 2.704854 0.843277 -2.495933 0
M  V30 33 H 0.769686 5.119478 -0.724141 0
M  V30 34 H -1.007594 4.914896 1.212310 0
M  V30 35 H -2.360358 0.703168 0.695060 0
M  V30 36 H -3.827490 -0.273233 2.350426 0
M  V30 37 H -3.895380 0.640816 4.580520 0
M  V30 38 H -1.006281 3.551181 3.558319 0
M  V30 39 H -0.062066 0.057385 0.559998 0
M  V30 40 H 1.204202 -1.473686 0.964809 0
M  V30 END ATOM
M  V30 BEGIN BOND
M  V30 1 1 1 2
M  V30 2 1 2 3
M  V30 3 2 3 4
M  V30 4 1 3 5
M  V30 5 2 5 6
M  V30 6 1 6 7
M  V30 7 2 7 8
M  V30 8 1 8 9
M  V30 9 1 9 10
M  V30 10 2 10 11
M  V30 11 1 11 12
M  V30 12 2 12 13
M  V30 13 1 13 14
M  V30 14 1 14 15
M  V30 15 2 15 16
M  V30 16 1 16 17
M  V30 17 2 17 18
M  V30 18 1 18 19
M  V30 19 2 19 20
M  V30 20 1 20 21
M  V30 21 2 21 22
M  V30 22 1 16 23
M  V30 23 2 23 24
M  V30 24 2 9 25
M  V30 25 1 25 5
M  V30 26 1 24 10
M  V30 27 1 23 13
M  V30 28 1 22 17
M  V30 29 1 1 26
M  V30 30 1 1 27
M  V30 31 1 1 28
M  V30 32 1 6 29
M  V30 33 1 7 30
M  V30 34 1 8 31
M  V30 35 1 11 32
M  V30 36 1 14 33
M  V30 37 1 15 34
M  V30 38 1 18 35
M  V30 39 1 19 36
M  V30 40 1 20 37
M  V30 41 1 22 38
M  V30 42 1 24 39
M  V30 43 1 25 40
M  V30 END BOND
M  V30 END CTAB
M  END
>  <Dataset>  (281) 
ChEMBL_Kinases

>  <Ligand_Instance>  (281) 
nan

>  <PDB_ID>  (281) 
nan

>  <Standardized_SMILES>  (281) 
COC(=O)c1cccc(-c2cnc3[nH]cc(-c4cccnc4)c3c2)c1

>  <Name>  (281) 
nan

>  <Pocket>  (281) 
nan

>  <ATP_Site>  (281) 
nan

>  <Peripheral>  (281) 
nan

>  <Num_H_Atoms_ProtBoundConf>  (281) 
nan

>  <Num_Resolved_Atoms>  (281) 
nan

>  <Num_Not_Resolved_Atoms>  (281) 
nan

$$$$
CHEMBL5087420
     RDKit          3D

  0  0  0  0  0  0  0  0  0  0999 V3000
M  V30 BEGIN CTAB
M  V30 COUNTS 57 60 0 0 0
M  V30 BEGIN ATOM
M  V30 1 N 3.003591 1.031870 5.362065 0
M  V30 2 C 4.226761 1.530017 4.852702 0
M  V30 3 C 5.293654 1.255502 5.670579 0
M  V30 4 C 6.576767 1.674892 5.322637 0
M  V30 5 C 6.726257 2.373265 4.128283 0
M  V30 6 C 5.651703 2.646333 3.310475 0
M  V30 7 C 4.360350 2.228240 3.653389 0
M  V30 8 N 3.213847 2.459995 2.889866 0
M  V30 9 C 2.283883 1.591683 2.283476 0
M  V30 10 C 2.461479 0.226577 2.377022 0
M  V30 11 C 1.515821 -0.608402 1.762480 0
M  V30 12 C 0.449948 -0.003179 1.091956 0
M  V30 13 C 0.292360 1.365332 1.011199 0
M  V30 14 C 1.227154 2.177784 1.618509 0
M  V30 15 C -0.790695 2.118576 0.332142 0
M  V30 16 C -2.156382 1.572175 0.638049 0
M  V30 17 C -2.494496 0.315048 -0.033519 0
M  V30 18 C -3.711805 0.293903 -0.683327 0
M  V30 19 C -4.149948 -0.848943 -1.362718 0
M  V30 20 C -3.391009 -1.998926 -1.414055 0
M  V30 21 C -3.932326 -3.135977 -2.145568 0
M  V30 22 O -5.055091 -2.973871 -2.675941 0
M  V30 23 N -3.289824 -4.393094 -2.297975 0
M  V30 24 C -3.733314 -5.557422 -2.991129 0
M  V30 25 C -3.972115 -5.402520 -4.454576 0
M  V30 26 O -4.923996 -4.476066 -4.793183 0
M  V30 27 C -2.677887 -5.135557 -5.219069 0
M  V30 28 O -1.714660 -6.078764 -4.871529 0
M  V30 29 C -2.180201 -1.958528 -0.760093 0
M  V30 30 C -1.736142 -0.837728 -0.086202 0
M  V30 31 C -0.420725 -1.057676 0.522010 0
M  V30 32 O -0.016453 -2.261037 0.550583 0
M  V30 33 H 2.270897 1.583424 5.877094 0
M  V30 34 H 2.451913 0.150988 5.429782 0
M  V30 35 H 5.250901 0.722574 6.603999 0
M  V30 36 H 7.444387 1.483852 5.930757 0
M  V30 37 H 7.736478 2.691125 3.877026 0
M  V30 38 H 5.764468 3.184619 2.389883 0
M  V30 39 H 3.164506 3.498599 2.844495 0
M  V30 40 H 3.284522 -0.249161 2.893826 0
M  V30 41 H 1.590263 -1.683031 1.794531 0
M  V30 42 H 1.087682 3.247683 1.544634 0
M  V30 43 H -0.801446 3.183292 0.625312 0
M  V30 44 H -0.608047 2.102095 -0.770277 0
M  V30 45 H -2.888531 2.333187 0.267933 0
M  V30 46 H -2.285151 1.560808 1.726085 0
M  V30 47 H -4.315120 1.205348 -0.643504 0
M  V30 48 H -5.110706 -0.741436 -1.826745 0
M  V30 49 H -2.349968 -4.385594 -1.795331 0
M  V30 50 H -2.959222 -6.340712 -2.871716 0
M  V30 51 H -4.660183 -5.996696 -2.521889 0
M  V30 52 H -4.311554 -6.404399 -4.848357 0
M  V30 53 H -4.510976 -3.728320 -5.276167 0
M  V30 54 H -2.911743 -5.281778 -6.286339 0
M  V30 55 H -2.324034 -4.097589 -5.097381 0
M  V30 56 H -1.316466 -5.860572 -3.987350 0
M  V30 57 H -1.567361 -2.825560 -0.777748 0
M  V30 END ATOM
M  V30 BEGIN BOND
M  V30 1 1 1 2
M  V30 2 2 2 3
M  V30 3 1 3 4
M  V30 4 2 4 5
M  V30 5 1 5 6
M  V30 6 2 6 7
M  V30 7 1 7 8
M  V30 8 1 8 9
M  V30 9 2 9 10
M  V30 10 1 10 11
M  V30 11 2 11 12
M  V30 12 1 12 13
M  V30 13 2 13 14
M  V30 14 1 13 15
M  V30 15 1 15 16
M  V30 16 1 16 17
M  V30 17 2 17 18
M  V30 18 1 18 19
M  V30 19 2 19 20
M  V30 20 1 20 21
M  V30 21 2 21 22
M  V30 22 1 21 23
M  V30 23 1 23 24
M  V30 24 1 24 25
M  V30 25 1 25 26
M  V30 26 1 25 27
M  V30 27 1 27 28
M  V30 28 1 20 29
M  V30 29 2 29 30
M  V30 30 1 30 31
M  V30 31 2 31 32
M  V30 32 1 7 2
M  V30 33 1 14 9
M  V30 34 1 30 17
M  V30 35 1 31 12
M  V30 36 1 1 33
M  V30 37 1 1 34
M  V30 38 1 3 35
M  V30 39 1 4 36
M  V30 40 1 5 37
M  V30 41 1 6 38
M  V30 42 1 8 39
M  V30 43 1 10 40
M  V30 44 1 11 41
M  V30 45 1 14 42
M  V30 46 1 15 43
M  V30 47 1 15 44
M  V30 48 1 16 45
M  V30 49 1 16 46
M  V30 50 1 18 47
M  V30 51 1 19 48
M  V30 52 1 23 49
M  V30 53 1 24 50
M  V30 54 1 24 51
M  V30 55 1 25 52
M  V30 56 1 26 53
M  V30 57 1 27 54
M  V30 58 1 27 55
M  V30 59 1 28 56
M  V30 60 1 29 57
M  V30 END BOND
M  V30 END CTAB
M  END
>  <Dataset>  (282) 
ChEMBL_Kinases

>  <Ligand_Instance>  (282) 
nan

>  <PDB_ID>  (282) 
nan

>  <Standardized_SMILES>  (282) 
Nc1ccccc1Nc1ccc2c(c1)CCc1ccc(C(=O)NCC(O)CO)cc1C2=O

>  <Name>  (282) 
nan

>  <Pocket>  (282) 
nan

>  <ATP_Site>  (282) 
nan

>  <Peripheral>  (282) 
nan

>  <Num_H_Atoms_ProtBoundConf>  (282) 
nan

>  <Num_Resolved_Atoms>  (282) 
nan

>  <Num_Not_Resolved_Atoms>  (282) 
nan

$$$$
CHEMBL5087421
     RDKit          3D

  0  0  0  0  0  0  0  0  0  0999 V3000
M  V30 BEGIN CTAB
M  V30 COUNTS 47 50 0 0 0
M  V30 BEGIN ATOM
M  V30 1 C 1.253681 -0.236025 3.223916 0
M  V30 2 N 1.258432 -0.791812 1.859976 0
M  V30 3 C 2.216270 -0.569493 0.837878 0
M  V30 4 N 2.986643 -1.676488 0.643564 0
M  V30 5 C 3.993121 -1.668137 -0.265894 0
M  V30 6 N 4.222738 -0.555726 -0.974068 0
M  V30 7 C 3.495050 0.576474 -0.830651 0
M  V30 8 N 3.481905 1.807104 -1.382549 0
M  V30 9 C 2.484502 2.528957 -0.818574 0
M  V30 10 C 2.060926 3.830911 -1.043603 0
M  V30 11 C 0.990329 4.327762 -0.320077 0
M  V30 12 Cl 0.478168 5.970530 -0.623351 0
M  V30 13 C 0.336367 3.535285 0.628570 0
M  V30 14 C 0.774502 2.246742 0.834812 0
M  V30 15 C 1.831324 1.760158 0.119838 0
M  V30 16 C 2.477148 0.553112 0.095224 0
M  V30 17 C 0.102003 -1.658517 1.630466 0
M  V30 18 C 0.165931 -2.774722 2.632162 0
M  V30 19 C -1.065248 -3.627150 2.463696 0
M  V30 20 C -1.766438 -3.250629 1.180028 0
M  V30 21 N -2.208600 -1.889869 1.185048 0
M  V30 22 C -2.768157 -1.520335 -0.098036 0
M  V30 23 C -4.059905 -2.262216 -0.323359 0
M  V30 24 C -5.045638 -1.959262 0.705520 0
M  V30 25 N -5.830188 -1.702512 1.539322 0
M  V30 26 C -1.198117 -0.940138 1.610102 0
M  V30 27 H 1.742206 -0.920563 3.941030 0
M  V30 28 H 1.794658 0.737203 3.235855 0
M  V30 29 H 0.239014 -0.020031 3.575065 0
M  V30 30 H 4.618317 -2.557026 -0.427570 0
M  V30 31 H 4.170353 2.090330 -2.129466 0
M  V30 32 H 2.577780 4.435347 -1.783414 0
M  V30 33 H -0.490888 4.031206 1.135530 0
M  V30 34 H 0.199878 1.741596 1.566727 0
M  V30 35 H 0.237329 -2.125325 0.629190 0
M  V30 36 H 1.069229 -3.373447 2.394599 0
M  V30 37 H 0.273327 -2.374120 3.662508 0
M  V30 38 H -1.755952 -3.399636 3.293167 0
M  V30 39 H -0.760099 -4.693632 2.415642 0
M  V30 40 H -1.185948 -3.546795 0.273764 0
M  V30 41 H -2.677633 -3.913193 1.143515 0
M  V30 42 H -2.076181 -1.737491 -0.935362 0
M  V30 43 H -3.026465 -0.432985 -0.093876 0
M  V30 44 H -3.886340 -3.354868 -0.391124 0
M  V30 45 H -4.525674 -1.968731 -1.305320 0
M  V30 46 H -1.136609 -0.147862 0.836838 0
M  V30 47 H -1.476963 -0.468250 2.574338 0
M  V30 END ATOM
M  V30 BEGIN BOND
M  V30 1 1 1 2
M  V30 2 1 2 3
M  V30 3 2 3 4
M  V30 4 1 4 5
M  V30 5 2 5 6
M  V30 6 1 6 7
M  V30 7 1 7 8
M  V30 8 1 8 9
M  V30 9 2 9 10
M  V30 10 1 10 11
M  V30 11 1 11 12
M  V30 12 2 11 13
M  V30 13 1 13 14
M  V30 14 2 14 15
M  V30 15 1 15 16
M  V30 16 1 2 17
M  V30 17 1 17 18
M  V30 18 1 18 19
M  V30 19 1 19 20
M  V30 20 1 20 21
M  V30 21 1 21 22
M  V30 22 1 22 23
M  V30 23 1 23 24
M  V30 24 3 24 25
M  V30 25 1 21 26
M  V30 26 1 16 3
M  V30 27 1 26 17
M  V30 28 2 16 7
M  V30 29 1 15 9
M  V30 30 1 1 27
M  V30 31 1 1 28
M  V30 32 1 1 29
M  V30 33 1 5 30
M  V30 34 1 8 31
M  V30 35 1 10 32
M  V30 36 1 13 33
M  V30 37 1 14 34
M  V30 38 1 17 35
M  V30 39 1 18 36
M  V30 40 1 18 37
M  V30 41 1 19 38
M  V30 42 1 19 39
M  V30 43 1 20 40
M  V30 44 1 20 41
M  V30 45 1 22 42
M  V30 46 1 22 43
M  V30 47 1 23 44
M  V30 48 1 23 45
M  V30 49 1 26 46
M  V30 50 1 26 47
M  V30 END BOND
M  V30 END CTAB
M  END
>  <Dataset>  (283) 
ChEMBL_Kinases

>  <Ligand_Instance>  (283) 
nan

>  <PDB_ID>  (283) 
nan

>  <Standardized_SMILES>  (283) 
CN(c1ncnc2[nH]c3cc(Cl)ccc3c12)C1CCCN(CCC#N)C1

>  <Name>  (283) 
nan

>  <Pocket>  (283) 
nan

>  <ATP_Site>  (283) 
nan

>  <Peripheral>  (283) 
nan

>  <Num_H_Atoms_ProtBoundConf>  (283) 
nan

>  <Num_Resolved_Atoms>  (283) 
nan

>  <Num_Not_Resolved_Atoms>  (283) 
nan

$$$$
CHEMBL5087433
     RDKit          3D

  0  0  0  0  0  0  0  0  0  0999 V3000
M  V30 BEGIN CTAB
M  V30 COUNTS 53 55 0 0 0
M  V30 BEGIN ATOM
M  V30 1 C 3.753818 -2.581455 -1.357554 0
M  V30 2 C 3.722106 -1.148846 -0.925767 0
M  V30 3 N 4.219672 -0.097058 -1.621094 0
M  V30 4 N 4.001368 1.021073 -0.909348 0
M  V30 5 C 4.372882 2.360006 -1.294199 0
M  V30 6 C 3.276166 3.058784 -2.082175 0
M  V30 7 F 2.955579 2.404462 -3.234648 0
M  V30 8 F 2.136156 3.268303 -1.328636 0
M  V30 9 F 3.784323 4.322039 -2.388315 0
M  V30 10 C 3.362379 0.663537 0.239390 0
M  V30 11 C 3.169133 -0.715144 0.259489 0
M  V30 12 N 2.535179 -1.484121 1.277307 0
M  V30 13 C 2.028988 -0.814178 2.434944 0
M  V30 14 N 2.557918 -0.601963 3.653077 0
M  V30 15 C 1.845962 0.088617 4.582703 0
M  V30 16 C 0.595751 0.552431 4.243348 0
M  V30 17 C 0.024205 0.346793 2.989626 0
M  V30 18 N -1.290299 0.844714 2.668569 0
M  V30 19 C -1.662465 0.538036 1.304575 0
M  V30 20 C -3.035089 0.996674 0.933451 0
M  V30 21 C -4.100520 0.360292 1.802584 0
M  V30 22 N -3.985203 -1.080244 1.630765 0
M  V30 23 C -4.114939 -1.812592 0.453809 0
M  V30 24 O -4.364328 -1.232420 -0.633446 0
M  V30 25 C -3.975166 -3.278042 0.389019 0
M  V30 26 C -4.130288 -3.856975 -1.012247 0
M  V30 27 C -3.009793 -4.821881 -0.624850 0
M  V30 28 C -2.519145 -3.732792 0.305322 0
M  V30 29 N 0.810510 -0.340834 2.161119 0
M  V30 30 H 3.920875 -3.243451 -0.498440 0
M  V30 31 H 2.823426 -2.811400 -1.928734 0
M  V30 32 H 4.605046 -2.686113 -2.058917 0
M  V30 33 H 4.712610 2.998473 -0.480661 0
M  V30 34 H 5.220685 2.259683 -2.033902 0
M  V30 35 H 3.041914 1.332628 1.032703 0
M  V30 36 H 2.469718 -2.515175 1.126199 0
M  V30 37 H 2.321923 0.218704 5.524235 0
M  V30 38 H 0.038077 1.107483 5.010230 0
M  V30 39 H -1.786922 1.344752 3.436552 0
M  V30 40 H -0.871308 0.974274 0.660424 0
M  V30 41 H -1.594774 -0.564700 1.137098 0
M  V30 42 H -3.218226 0.704247 -0.110776 0
M  V30 43 H -3.093582 2.106467 0.958845 0
M  V30 44 H -3.990781 0.652905 2.849585 0
M  V30 45 H -5.083165 0.670501 1.369329 0
M  V30 46 H -3.779703 -1.653594 2.482739 0
M  V30 47 H -4.534796 -3.862976 1.149763 0
M  V30 48 H -3.739975 -3.157937 -1.787592 0
M  V30 49 H -5.107401 -4.333051 -1.227480 0
M  V30 50 H -3.411322 -5.657857 -0.030259 0
M  V30 51 H -2.306890 -5.077834 -1.442894 0
M  V30 52 H -1.935481 -2.950905 -0.240256 0
M  V30 53 H -2.078739 -4.096322 1.252995 0
M  V30 END ATOM
M  V30 BEGIN BOND
M  V30 1 1 1 2
M  V30 2 2 2 3
M  V30 3 1 3 4
M  V30 4 1 4 5
M  V30 5 1 5 6
M  V30 6 1 6 7
M  V30 7 1 6 8
M  V30 8 1 6 9
M  V30 9 1 4 10
M  V30 10 2 10 11
M  V30 11 1 11 12
M  V30 12 1 12 13
M  V30 13 2 13 14
M  V30 14 1 14 15
M  V30 15 2 15 16
M  V30 16 1 16 17
M  V30 17 1 17 18
M  V30 18 1 18 19
M  V30 19 1 19 20
M  V30 20 1 20 21
M  V30 21 1 21 22
M  V30 22 1 22 23
M  V30 23 2 23 24
M  V30 24 1 23 25
M  V30 25 1 25 26
M  V30 26 1 26 27
M  V30 27 1 27 28
M  V30 28 2 17 29
M  V30 29 1 11 2
M  V30 30 1 29 13
M  V30 31 1 28 25
M  V30 32 1 1 30
M  V30 33 1 1 31
M  V30 34 1 1 32
M  V30 35 1 5 33
M  V30 36 1 5 34
M  V30 37 1 10 35
M  V30 38 1 12 36
M  V30 39 1 15 37
M  V30 40 1 16 38
M  V30 41 1 18 39
M  V30 42 1 19 40
M  V30 43 1 19 41
M  V30 44 1 20 42
M  V30 45 1 20 43
M  V30 46 1 21 44
M  V30 47 1 21 45
M  V30 48 1 22 46
M  V30 49 1 25 47
M  V30 50 1 26 48
M  V30 51 1 26 49
M  V30 52 1 27 50
M  V30 53 1 27 51
M  V30 54 1 28 52
M  V30 55 1 28 53
M  V30 END BOND
M  V30 END CTAB
M  END
>  <Dataset>  (284) 
ChEMBL_Kinases

>  <Ligand_Instance>  (284) 
nan

>  <PDB_ID>  (284) 
nan

>  <Standardized_SMILES>  (284) 
Cc1nn(CC(F)(F)F)cc1Nc1nccc(NCCCNC(=O)C2CCC2)n1

>  <Name>  (284) 
nan

>  <Pocket>  (284) 
nan

>  <ATP_Site>  (284) 
nan

>  <Peripheral>  (284) 
nan

>  <Num_H_Atoms_ProtBoundConf>  (284) 
nan

>  <Num_Resolved_Atoms>  (284) 
nan

>  <Num_Not_Resolved_Atoms>  (284) 
nan

$$$$
CHEMBL5087446
     RDKit          3D

  0  0  0  0  0  0  0  0  0  0999 V3000
M  V30 BEGIN CTAB
M  V30 COUNTS 62 66 0 0 0
M  V30 BEGIN ATOM
M  V30 1 C 3.737741 -2.930407 5.243809 0
M  V30 2 C 3.405778 -2.717345 3.813894 0
M  V30 3 C 4.203634 -3.339099 2.875983 0
M  V30 4 C 3.922662 -3.169636 1.541629 0
M  V30 5 C 2.844612 -2.379469 1.132116 0
M  V30 6 C 2.650726 -2.283236 -0.300024 0
M  V30 7 O 3.442075 -2.896449 -1.099282 0
M  V30 8 N 1.675441 -1.583626 -1.045047 0
M  V30 9 C 1.967601 -1.846814 -2.436081 0
M  V30 10 C 0.899605 -1.088134 -3.197533 0
M  V30 11 O 0.347097 -0.612470 -2.115083 0
M  V30 12 N 0.331787 -0.734615 -4.494553 0
M  V30 13 C -0.707082 0.088459 -3.886204 0
M  V30 14 C -0.440807 1.435613 -3.676547 0
M  V30 15 C -1.457460 2.185370 -3.121398 0
M  V30 16 C -2.622915 1.512928 -2.837085 0
M  V30 17 C -2.915256 0.186260 -3.031977 0
M  V30 18 C -1.889784 -0.552343 -3.587837 0
M  V30 19 C -4.262535 -0.157838 -2.603934 0
M  V30 20 C -4.841449 -1.334149 -2.626707 0
M  V30 21 C -6.196454 -1.587588 -2.182515 0
M  V30 22 C -6.320110 -2.666473 -1.314806 0
M  V30 23 N -7.625900 -2.818630 -0.990247 0
M  V30 24 C -8.336336 -1.860136 -1.632912 0
M  V30 25 N -7.429702 -1.131256 -2.349282 0
M  V30 26 C -4.835054 1.087176 -2.101962 0
M  V30 27 O -5.980959 1.265227 -1.627538 0
M  V30 28 N -3.799827 2.073533 -2.265024 0
M  V30 29 C 2.131415 -1.817811 2.166256 0
M  V30 30 O 1.164298 -1.110051 1.799644 0
M  V30 31 N 2.364234 -1.951705 3.480293 0
M  V30 32 C 1.486628 -1.272041 4.411144 0
M  V30 33 C 1.919751 0.089911 4.771168 0
M  V30 34 C 1.557148 1.235423 4.088004 0
M  V30 35 C 1.933601 2.519373 4.388390 0
M  V30 36 C 2.758734 2.717105 5.479261 0
M  V30 37 F 3.158450 3.952942 5.816865 0
M  V30 38 C 3.164237 1.646555 6.209907 0
M  V30 39 F 3.970953 1.850600 7.274474 0
M  V30 40 C 2.751742 0.389013 5.856022 0
M  V30 41 H 2.868255 -2.979800 5.909335 0
M  V30 42 H 4.348595 -3.876980 5.339284 0
M  V30 43 H 4.476046 -2.131316 5.533391 0
M  V30 44 H 5.053890 -3.963067 3.193258 0
M  V30 45 H 4.603155 -3.697642 0.854326 0
M  V30 46 H 0.984396 -1.050634 -0.444121 0
M  V30 47 H 2.963369 -1.436576 -2.662720 0
M  V30 48 H 1.951050 -2.904287 -2.695156 0
M  V30 49 H 1.117477 -1.335236 -4.771299 0
M  V30 50 H 0.510644 1.871636 -3.933973 0
M  V30 51 H -1.323637 3.231527 -2.931416 0
M  V30 52 H -2.022895 -1.606886 -3.780223 0
M  V30 53 H -4.199745 -2.140684 -3.025893 0
M  V30 54 H -5.685156 -3.404919 -0.833074 0
M  V30 55 H -9.395344 -1.587862 -1.681326 0
M  V30 56 H -7.600087 -0.323423 -2.977881 0
M  V30 57 H -3.959388 3.057595 -1.979264 0
M  V30 58 H 0.475371 -1.165486 3.913457 0
M  V30 59 H 1.262059 -1.910488 5.299953 0
M  V30 60 H 0.911817 1.170134 3.228227 0
M  V30 61 H 1.621043 3.379991 3.819007 0
M  V30 62 H 3.109583 -0.412001 6.484531 0
M  V30 END ATOM
M  V30 BEGIN BOND
M  V30 1 1 1 2
M  V30 2 2 2 3
M  V30 3 1 3 4
M  V30 4 2 4 5
M  V30 5 1 5 6
M  V30 6 2 6 7
M  V30 7 1 6 8
M  V30 8 1 8 9
M  V30 9 1 9 10
M  V30 10 2 10 11
M  V30 11 1 10 12
M  V30 12 1 12 13
M  V30 13 2 13 14
M  V30 14 1 14 15
M  V30 15 2 15 16
M  V30 16 1 16 17
M  V30 17 2 17 18
M  V30 18 1 17 19
M  V30 19 2 19 20
M  V30 20 1 20 21
M  V30 21 2 21 22
M  V30 22 1 22 23
M  V30 23 2 23 24
M  V30 24 1 24 25
M  V30 25 1 19 26
M  V30 26 2 26 27
M  V30 27 1 26 28
M  V30 28 1 5 29
M  V30 29 2 29 30
M  V30 30 1 29 31
M  V30 31 1 31 32
M  V30 32 1 32 33
M  V30 33 2 33 34
M  V30 34 1 34 35
M  V30 35 2 35 36
M  V30 36 1 36 37
M  V30 37 1 36 38
M  V30 38 1 38 39
M  V30 39 2 38 40
M  V30 40 1 31 2
M  V30 41 1 40 33
M  V30 42 1 18 13
M  V30 43 1 25 21
M  V30 44 1 28 16
M  V30 45 1 1 41
M  V30 46 1 1 42
M  V30 47 1 1 43
M  V30 48 1 3 44
M  V30 49 1 4 45
M  V30 50 1 8 46
M  V30 51 1 9 47
M  V30 52 1 9 48
M  V30 53 1 12 49
M  V30 54 1 14 50
M  V30 55 1 15 51
M  V30 56 1 18 52
M  V30 57 1 20 53
M  V30 58 1 22 54
M  V30 59 1 24 55
M  V30 60 1 25 56
M  V30 61 1 28 57
M  V30 62 1 32 58
M  V30 63 1 32 59
M  V30 64 1 34 60
M  V30 65 1 35 61
M  V30 66 1 40 62
M  V30 END BOND
M  V30 END CTAB
M  END
>  <Dataset>  (285) 
ChEMBL_Kinases

>  <Ligand_Instance>  (285) 
nan

>  <PDB_ID>  (285) 
nan

>  <Standardized_SMILES>  (285) 
Cc1ccc(C(=O)NCC(=O)Nc2ccc3c(c2)/C(=C/c2cnc[nH]2)C(=O)N3)c(=O)n1Cc1ccc(F)c(F)c1

>  <Name>  (285) 
nan

>  <Pocket>  (285) 
nan

>  <ATP_Site>  (285) 
nan

>  <Peripheral>  (285) 
nan

>  <Num_H_Atoms_ProtBoundConf>  (285) 
nan

>  <Num_Resolved_Atoms>  (285) 
nan

>  <Num_Not_Resolved_Atoms>  (285) 
nan

$$$$
CHEMBL5087468
     RDKit          3D

  0  0  0  0  0  0  0  0  0  0999 V3000
M  V30 BEGIN CTAB
M  V30 COUNTS 60 63 0 0 0
M  V30 BEGIN ATOM
M  V30 1 C 3.682711 -0.139569 5.165665 0
M  V30 2 N 4.928305 0.529349 5.335432 0
M  V30 3 C 5.678642 -0.152382 6.384326 0
M  V30 4 C 5.777155 0.625846 4.202237 0
M  V30 5 C 5.320228 1.503549 3.087356 0
M  V30 6 N 4.084707 1.060664 2.546034 0
M  V30 7 C 3.732369 1.971841 1.484384 0
M  V30 8 O 4.542542 2.922049 1.262530 0
M  V30 9 C 2.536614 1.906074 0.643013 0
M  V30 10 C 2.406653 2.883490 -0.315753 0
M  V30 11 C 1.287792 2.886116 -1.157947 0
M  V30 12 C 0.303994 1.913510 -1.039652 0
M  V30 13 C 0.452414 0.940015 -0.070896 0
M  V30 14 C 1.558054 0.943051 0.756514 0
M  V30 15 C -0.456167 -0.168977 0.223601 0
M  V30 16 O -0.318387 -0.692853 1.367046 0
M  V30 17 C -1.473639 -0.684231 -0.694302 0
M  V30 18 C -2.153086 -1.696383 -0.048560 0
M  V30 19 C -3.173066 -2.335652 -0.736939 0
M  V30 20 C -3.449432 -1.925408 -2.022380 0
M  V30 21 N -4.489238 -2.568824 -2.746280 0
M  V30 22 C -5.281058 -3.670197 -2.336758 0
M  V30 23 C -6.665998 -3.663613 -2.192207 0
M  V30 24 C -7.327129 -4.811597 -1.786470 0
M  V30 25 C -6.680187 -5.996194 -1.508292 0
M  V30 26 C -5.304199 -5.995527 -1.654018 0
M  V30 27 C -4.618703 -4.865231 -2.057249 0
M  V30 28 N -3.192858 -5.057733 -2.155991 0
M  V30 29 C -2.774605 -0.917886 -2.668017 0
M  V30 30 C -1.758848 -0.276966 -1.990539 0
M  V30 31 C -1.098632 0.793537 -2.783724 0
M  V30 32 C -0.821425 2.050170 -2.002476 0
M  V30 33 H 3.410420 -0.545760 6.188585 0
M  V30 34 H 2.818094 0.530007 4.930286 0
M  V30 35 H 3.710747 -1.046201 4.524125 0
M  V30 36 H 4.985043 -0.560574 7.168464 0
M  V30 37 H 6.383736 0.527562 6.902418 0
M  V30 38 H 6.253707 -1.006162 6.004869 0
M  V30 39 H 6.783803 0.935744 4.567041 0
M  V30 40 H 5.918892 -0.410136 3.780903 0
M  V30 41 H 6.082293 1.428009 2.265443 0
M  V30 42 H 5.315544 2.570059 3.397816 0
M  V30 43 H 3.343529 0.333289 2.622011 0
M  V30 44 H 3.119287 3.689259 -0.490380 0
M  V30 45 H 1.181874 3.642848 -1.904050 0
M  V30 46 H 1.659283 0.174725 1.509431 0
M  V30 47 H -1.896614 -1.987283 0.974411 0
M  V30 48 H -3.691685 -3.123710 -0.209964 0
M  V30 49 H -4.791440 -2.281621 -3.701798 0
M  V30 50 H -7.163675 -2.731584 -2.412459 0
M  V30 51 H -8.405195 -4.761958 -1.687328 0
M  V30 52 H -7.253140 -6.838313 -1.201077 0
M  V30 53 H -4.820507 -6.943662 -1.428037 0
M  V30 54 H -2.599367 -5.312094 -1.332857 0
M  V30 55 H -2.515182 -4.998557 -2.948519 0
M  V30 56 H -3.031028 -0.625395 -3.694645 0
M  V30 57 H -0.098434 0.425118 -3.138645 0
M  V30 58 H -1.674646 1.032162 -3.680722 0
M  V30 59 H -0.568305 2.829560 -2.745355 0
M  V30 60 H -1.755878 2.399666 -1.484787 0
M  V30 END ATOM
M  V30 BEGIN BOND
M  V30 1 1 1 2
M  V30 2 1 2 3
M  V30 3 1 2 4
M  V30 4 1 4 5
M  V30 5 1 5 6
M  V30 6 1 6 7
M  V30 7 2 7 8
M  V30 8 1 7 9
M  V30 9 2 9 10
M  V30 10 1 10 11
M  V30 11 2 11 12
M  V30 12 1 12 13
M  V30 13 2 13 14
M  V30 14 1 13 15
M  V30 15 2 15 16
M  V30 16 1 15 17
M  V30 17 2 17 18
M  V30 18 1 18 19
M  V30 19 2 19 20
M  V30 20 1 20 21
M  V30 21 1 21 22
M  V30 22 2 22 23
M  V30 23 1 23 24
M  V30 24 2 24 25
M  V30 25 1 25 26
M  V30 26 2 26 27
M  V30 27 1 27 28
M  V30 28 1 20 29
M  V30 29 2 29 30
M  V30 30 1 30 31
M  V30 31 1 31 32
M  V30 32 1 14 9
M  V30 33 1 30 17
M  V30 34 1 32 12
M  V30 35 1 27 22
M  V30 36 1 1 33
M  V30 37 1 1 34
M  V30 38 1 1 35
M  V30 39 1 3 36
M  V30 40 1 3 37
M  V30 41 1 3 38
M  V30 42 1 4 39
M  V30 43 1 4 40
M  V30 44 1 5 41
M  V30 45 1 5 42
M  V30 46 1 6 43
M  V30 47 1 10 44
M  V30 48 1 11 45
M  V30 49 1 14 46
M  V30 50 1 18 47
M  V30 51 1 19 48
M  V30 52 1 21 49
M  V30 53 1 23 50
M  V30 54 1 24 51
M  V30 55 1 25 52
M  V30 56 1 26 53
M  V30 57 1 28 54
M  V30 58 1 28 55
M  V30 59 1 29 56
M  V30 60 1 31 57
M  V30 61 1 31 58
M  V30 62 1 32 59
M  V30 63 1 32 60
M  V30 END BOND
M  V30 END CTAB
M  END
>  <Dataset>  (286) 
ChEMBL_Kinases

>  <Ligand_Instance>  (286) 
nan

>  <PDB_ID>  (286) 
nan

>  <Standardized_SMILES>  (286) 
CN(C)CCNC(=O)c1ccc2c(c1)C(=O)c1ccc(Nc3ccccc3N)cc1CC2

>  <Name>  (286) 
nan

>  <Pocket>  (286) 
nan

>  <ATP_Site>  (286) 
nan

>  <Peripheral>  (286) 
nan

>  <Num_H_Atoms_ProtBoundConf>  (286) 
nan

>  <Num_Resolved_Atoms>  (286) 
nan

>  <Num_Not_Resolved_Atoms>  (286) 
nan

$$$$
CHEMBL585902
     RDKit          3D

  0  0  0  0  0  0  0  0  0  0999 V3000
M  V30 BEGIN CTAB
M  V30 COUNTS 62 66 0 0 0
M  V30 BEGIN ATOM
M  V30 1 C 0.005014 2.415568 -0.215029 0
M  V30 2 N -0.439246 1.164359 0.320947 0
M  V30 3 C 0.006363 0.659121 1.512940 0
M  V30 4 N 0.982222 1.426990 2.268272 0
M  V30 5 C 2.001902 0.529338 2.695377 0
M  V30 6 C 3.112428 1.108152 3.517449 0 CFG=1
M  V30 7 N 4.065372 0.031908 3.863082 0
M  V30 8 C 3.879691 2.184487 2.817993 0
M  V30 9 C 4.541016 1.775292 1.568706 0
M  V30 10 C 5.837838 1.314740 1.479691 0
M  V30 11 C 6.467406 0.924951 0.318823 0
M  V30 12 C 5.782850 0.985381 -0.859939 0
M  V30 13 C 4.475975 1.434401 -0.867476 0
M  V30 14 C 3.904663 1.810239 0.332458 0
M  V30 15 N -0.460163 -0.533789 1.956483 0
M  V30 16 C -1.356745 -1.270819 1.276044 0
M  V30 17 C -1.794299 -2.535972 1.845829 0
M  V30 18 C -1.595789 -3.842494 1.414856 0
M  V30 19 C -2.141798 -4.853892 2.195090 0
M  V30 20 N -2.838282 -4.604955 3.324070 0
M  V30 21 C -3.048587 -3.352216 3.766670 0
M  V30 22 C -2.521340 -2.323667 3.018989 0
M  V30 23 C -1.811888 -0.779978 0.076971 0
M  V30 24 C -2.754512 -1.475644 -0.785931 0
M  V30 25 C -1.981564 -2.086891 -1.785862 0
M  V30 26 C -2.616191 -2.830607 -2.796575 0
M  V30 27 C -3.988027 -2.980221 -2.837066 0
M  V30 28 C -4.591989 -3.718731 -3.855779 0
M  V30 29 C -5.972552 -3.815814 -3.830516 0
M  V30 30 C -6.675313 -3.191451 -2.819232 0
M  V30 31 C -6.064980 -2.469141 -1.824855 0
M  V30 32 C -4.690770 -2.354368 -1.822904 0
M  V30 33 C -4.113827 -1.618574 -0.815439 0
M  V30 34 C -1.353851 0.447299 -0.408571 0
M  V30 35 O -1.755282 0.914359 -1.494667 0
M  V30 36 H 0.214416 3.182913 0.541359 0
M  V30 37 H -0.850325 2.852496 -0.814186 0
M  V30 38 H 0.847160 2.276001 -0.924961 0
M  V30 39 H 0.714381 2.422605 2.334418 0
M  V30 40 H 2.431047 0.022792 1.771633 0
M  V30 41 H 1.521372 -0.323806 3.231451 0
M  V30 42 H 2.692453 1.505657 4.453958 0
M  V30 43 H 5.013742 0.398021 4.065939 0
M  V30 44 H 4.036187 -0.745928 3.171437 0
M  V30 45 H 3.321303 3.132080 2.680922 0
M  V30 46 H 4.747895 2.462639 3.502644 0
M  V30 47 H 6.444876 1.243049 2.368464 0
M  V30 48 H 7.473082 0.568679 0.257959 0
M  V30 49 H 6.124622 0.719327 -1.862438 0
M  V30 50 H 3.844948 1.520757 -1.763887 0
M  V30 51 H 2.862968 2.170387 0.346753 0
M  V30 52 H -1.029409 -3.882858 0.511222 0
M  V30 53 H -1.946673 -5.849211 1.802182 0
M  V30 54 H -3.616070 -3.235482 4.676979 0
M  V30 55 H -2.754195 -1.346619 3.471919 0
M  V30 56 H -0.897476 -2.101940 -1.946772 0
M  V30 57 H -2.082827 -3.336894 -3.608843 0
M  V30 58 H -3.964210 -4.188031 -4.630505 0
M  V30 59 H -6.480355 -4.377394 -4.602057 0
M  V30 60 H -7.746059 -3.294078 -2.844883 0
M  V30 61 H -6.643185 -1.989961 -1.046216 0
M  V30 62 H -4.576592 -1.114803 -0.011681 0
M  V30 END ATOM
M  V30 BEGIN BOND
M  V30 1 1 1 2
M  V30 2 1 2 3
M  V30 3 1 3 4
M  V30 4 1 4 5
M  V30 5 1 5 6
M  V30 6 1 6 7
M  V30 7 1 6 8
M  V30 8 1 8 9
M  V30 9 2 9 10
M  V30 10 1 10 11
M  V30 11 2 11 12
M  V30 12 1 12 13
M  V30 13 2 13 14
M  V30 14 2 3 15
M  V30 15 1 15 16
M  V30 16 1 16 17
M  V30 17 2 17 18
M  V30 18 1 18 19
M  V30 19 2 19 20
M  V30 20 1 20 21
M  V30 21 2 21 22
M  V30 22 2 16 23
M  V30 23 1 23 24
M  V30 24 2 24 25
M  V30 25 1 25 26
M  V30 26 2 26 27
M  V30 27 1 27 28
M  V30 28 2 28 29
M  V30 29 1 29 30
M  V30 30 2 30 31
M  V30 31 1 31 32
M  V30 32 2 32 33
M  V30 33 1 23 34
M  V30 34 2 34 35
M  V30 35 1 34 2
M  V30 36 1 14 9
M  V30 37 1 22 17
M  V30 38 1 33 24
M  V30 39 1 32 27
M  V30 40 1 1 36
M  V30 41 1 1 37
M  V30 42 1 1 38
M  V30 43 1 4 39
M  V30 44 1 5 40
M  V30 45 1 5 41
M  V30 46 1 6 42 CFG=1
M  V30 47 1 7 43
M  V30 48 1 7 44
M  V30 49 1 8 45
M  V30 50 1 8 46
M  V30 51 1 10 47
M  V30 52 1 11 48
M  V30 53 1 12 49
M  V30 54 1 13 50
M  V30 55 1 14 51
M  V30 56 1 18 52
M  V30 57 1 19 53
M  V30 58 1 21 54
M  V30 59 1 22 55
M  V30 60 1 25 56
M  V30 61 1 26 57
M  V30 62 1 28 58
M  V30 63 1 29 59
M  V30 64 1 30 60
M  V30 65 1 31 61
M  V30 66 1 33 62
M  V30 END BOND
M  V30 END CTAB
M  END
>  <Dataset>  (287) 
ChEMBL_Kinases

>  <Ligand_Instance>  (287) 
nan

>  <PDB_ID>  (287) 
nan

>  <Standardized_SMILES>  (287) 
Cn1c(NC[C@@H](N)Cc2ccccc2)nc(-c2ccncc2)c(-c2ccc3ccccc3c2)c1=O

>  <Name>  (287) 
AMG-548

>  <Pocket>  (287) 
nan

>  <ATP_Site>  (287) 
nan

>  <Peripheral>  (287) 
nan

>  <Num_H_Atoms_ProtBoundConf>  (287) 
nan

>  <Num_Resolved_Atoms>  (287) 
nan

>  <Num_Not_Resolved_Atoms>  (287) 
nan

$$$$
CHEMBL5087580
     RDKit          3D

  0  0  0  0  0  0  0  0  0  0999 V3000
M  V30 BEGIN CTAB
M  V30 COUNTS 57 61 0 0 0
M  V30 BEGIN ATOM
M  V30 1 C 3.121774 -4.299442 0.776060 0
M  V30 2 O 2.951229 -2.947873 0.417535 0
M  V30 3 C 3.132466 -1.943987 1.354975 0
M  V30 4 C 3.475697 -1.973672 2.687750 0
M  V30 5 C 3.586048 -0.802240 3.388358 0
M  V30 6 C 3.371512 0.433570 2.836131 0
M  V30 7 C 3.027143 0.489616 1.505093 0
M  V30 8 C 2.801780 1.802478 0.932226 0
M  V30 9 N 3.829159 2.668101 0.947526 0
M  V30 10 C 3.369347 3.802290 0.363163 0
M  V30 11 S 3.811798 5.559820 -0.155943 0
M  V30 12 C 2.214157 5.887025 -0.814789 0
M  V30 13 C 1.495401 4.744318 -0.621487 0
M  V30 14 N 2.084900 3.705506 -0.029983 0
M  V30 15 C 1.750436 2.455452 0.332603 0
M  V30 16 C 0.489868 1.733690 0.184973 0
M  V30 17 C 0.040820 1.514862 -1.101699 0
M  V30 18 C -1.151882 0.830391 -1.210658 0
M  V30 19 N -1.822047 0.409951 -0.123472 0
M  V30 20 C -1.377777 0.627327 1.122570 0
M  V30 21 N -2.057953 0.198129 2.289309 0
M  V30 22 C -3.301954 -0.544115 2.265944 0
M  V30 23 C -3.074890 -1.851349 1.574976 0
M  V30 24 N -4.268014 -2.673210 1.499187 0
M  V30 25 S -3.840257 -4.135899 0.680505 0
M  V30 26 O -4.980733 -5.112385 0.655586 0
M  V30 27 O -2.716619 -4.749196 1.497063 0
M  V30 28 C -3.290071 -3.818638 -0.942401 0
M  V30 29 C -4.142383 -3.780308 -2.022418 0
M  V30 30 C -3.685432 -3.527255 -3.301002 0
M  V30 31 C -2.329247 -3.311363 -3.461795 0
M  V30 32 C -1.484931 -3.351171 -2.379485 0
M  V30 33 C -1.924993 -3.601747 -1.101744 0
M  V30 34 N -0.217221 1.293138 1.235825 0
M  V30 35 C 2.908247 -0.691385 0.768413 0
M  V30 36 H 2.365450 -4.890581 0.214475 0
M  V30 37 H 4.153609 -4.685432 0.534939 0
M  V30 38 H 2.903692 -4.460549 1.850471 0
M  V30 39 H 3.624687 -2.981242 3.034862 0
M  V30 40 H 3.864159 -0.977270 4.433169 0
M  V30 41 H 3.483097 1.321539 3.477066 0
M  V30 42 H 2.000025 6.840580 -1.248652 0
M  V30 43 H 0.478697 4.792764 -0.979896 0
M  V30 44 H 0.602641 1.865766 -1.956236 0
M  V30 45 H -1.555695 0.628332 -2.199865 0
M  V30 46 H -1.663905 0.414789 3.230107 0
M  V30 47 H -4.066210 0.027753 1.659221 0
M  V30 48 H -3.751569 -0.648370 3.255977 0
M  V30 49 H -2.787119 -1.645560 0.526334 0
M  V30 50 H -2.247313 -2.421388 2.035562 0
M  V30 51 H -4.644148 -2.890346 2.429059 0
M  V30 52 H -5.185822 -3.953048 -1.852640 0
M  V30 53 H -4.344298 -3.493770 -4.161309 0
M  V30 54 H -1.974391 -3.112720 -4.467537 0
M  V30 55 H -0.443743 -3.170232 -2.608276 0
M  V30 56 H -1.178417 -3.613553 -0.303688 0
M  V30 57 H 2.633207 -0.501640 -0.260946 0
M  V30 END ATOM
M  V30 BEGIN BOND
M  V30 1 1 1 2
M  V30 2 1 2 3
M  V30 3 2 3 4
M  V30 4 1 4 5
M  V30 5 2 5 6
M  V30 6 1 6 7
M  V30 7 1 7 8
M  V30 8 1 8 9
M  V30 9 2 9 10
M  V30 10 1 10 11
M  V30 11 1 11 12
M  V30 12 2 12 13
M  V30 13 1 13 14
M  V30 14 1 14 15
M  V30 15 1 15 16
M  V30 16 2 16 17
M  V30 17 1 17 18
M  V30 18 2 18 19
M  V30 19 1 19 20
M  V30 20 1 20 21
M  V30 21 1 21 22
M  V30 22 1 22 23
M  V30 23 1 23 24
M  V30 24 1 24 25
M  V30 25 2 25 26
M  V30 26 2 25 27
M  V30 27 1 25 28
M  V30 28 2 28 29
M  V30 29 1 29 30
M  V30 30 2 30 31
M  V30 31 1 31 32
M  V30 32 2 32 33
M  V30 33 2 20 34
M  V30 34 2 7 35
M  V30 35 1 35 3
M  V30 36 2 15 8
M  V30 37 1 34 16
M  V30 38 1 14 10
M  V30 39 1 33 28
M  V30 40 1 1 36
M  V30 41 1 1 37
M  V30 42 1 1 38
M  V30 43 1 4 39
M  V30 44 1 5 40
M  V30 45 1 6 41
M  V30 46 1 12 42
M  V30 47 1 13 43
M  V30 48 1 17 44
M  V30 49 1 18 45
M  V30 50 1 21 46
M  V30 51 1 22 47
M  V30 52 1 22 48
M  V30 53 1 23 49
M  V30 54 1 23 50
M  V30 55 1 24 51
M  V30 56 1 29 52
M  V30 57 1 30 53
M  V30 58 1 31 54
M  V30 59 1 32 55
M  V30 60 1 33 56
M  V30 61 1 35 57
M  V30 END BOND
M  V30 END CTAB
M  END
>  <Dataset>  (288) 
ChEMBL_Kinases

>  <Ligand_Instance>  (288) 
nan

>  <PDB_ID>  (288) 
nan

>  <Standardized_SMILES>  (288) 
COc1cccc(-c2nc3sccn3c2-c2ccnc(NCCNS(=O)(=O)c3ccccc3)n2)c1

>  <Name>  (288) 
nan

>  <Pocket>  (288) 
nan

>  <ATP_Site>  (288) 
nan

>  <Peripheral>  (288) 
nan

>  <Num_H_Atoms_ProtBoundConf>  (288) 
nan

>  <Num_Resolved_Atoms>  (288) 
nan

>  <Num_Not_Resolved_Atoms>  (288) 
nan

$$$$
CHEMBL585878
     RDKit          3D

  0  0  0  0  0  0  0  0  0  0999 V3000
M  V30 BEGIN CTAB
M  V30 COUNTS 48 51 0 0 0
M  V30 BEGIN ATOM
M  V30 1 C 1.379743 -6.793404 1.408287 0
M  V30 2 C 1.042585 -5.434116 0.908522 0
M  V30 3 C 1.892358 -4.354450 0.782402 0
M  V30 4 C 1.194103 -3.277180 0.281864 0
M  V30 5 C 1.510805 -1.971333 -0.041973 0
M  V30 6 C 2.909187 -1.597673 0.204146 0
M  V30 7 C 0.574689 -1.060605 -0.548840 0
M  V30 8 N 0.858453 0.275617 -0.853323 0
M  V30 9 C 1.376094 1.479878 -0.428293 0
M  V30 10 C 2.629662 1.722709 -1.017440 0
M  V30 11 C 3.246835 0.853142 -2.008607 0
M  V30 12 N 3.728644 0.138718 -2.808535 0
M  V30 13 C 3.413454 2.821640 -0.755355 0
M  V30 14 N 2.933552 3.712440 0.123503 0
M  V30 15 C 1.749383 3.562651 0.730267 0
M  V30 16 C 0.984647 2.453272 0.449355 0
M  V30 17 C -0.307551 2.349634 1.077365 0
M  V30 18 C -1.395894 1.653009 1.095595 0
M  V30 19 C -2.634933 1.732262 1.850706 0
M  V30 20 C -2.858219 2.708462 2.795856 0
M  V30 21 C -4.022770 2.806284 3.525428 0
M  V30 22 C -5.001991 1.846117 3.262157 0
M  V30 23 C -4.762755 0.875103 2.312504 0
M  V30 24 C -3.590446 0.793070 1.591901 0
M  V30 25 C -0.686104 -1.604547 -0.687799 0
M  V30 26 C -1.097253 -2.878054 -0.396092 0
M  V30 27 C -0.100223 -3.690627 0.095295 0
M  V30 28 N -0.151430 -4.986496 0.481475 0
M  V30 29 H 1.863205 -7.424865 0.645244 0
M  V30 30 H 2.050380 -6.707421 2.312712 0
M  V30 31 H 0.482638 -7.324855 1.770358 0
M  V30 32 H 2.934353 -4.332601 1.028204 0
M  V30 33 H 3.398740 -2.284541 0.929076 0
M  V30 34 H 3.027774 -0.580404 0.630267 0
M  V30 35 H 3.475121 -1.723939 -0.736134 0
M  V30 36 H 0.519198 0.404967 -1.856408 0
M  V30 37 H 4.371670 3.038059 -1.184169 0
M  V30 38 H 1.445633 4.324777 1.417779 0
M  V30 39 H -0.528388 3.106754 1.847567 0
M  V30 40 H -1.258023 0.891679 0.346870 0
M  V30 41 H -2.131534 3.462264 3.025915 0
M  V30 42 H -4.208394 3.571544 4.272226 0
M  V30 43 H -5.931172 1.903025 3.826486 0
M  V30 44 H -5.528592 0.120932 2.103878 0
M  V30 45 H -3.437313 0.016479 0.853628 0
M  V30 46 H -1.496962 -0.970171 -1.087252 0
M  V30 47 H -2.113250 -3.216834 -0.538246 0
M  V30 48 H -1.005686 -5.577584 0.456351 0
M  V30 END ATOM
M  V30 BEGIN BOND
M  V30 1 1 1 2
M  V30 2 2 2 3
M  V30 3 1 3 4
M  V30 4 2 4 5
M  V30 5 1 5 6
M  V30 6 1 5 7
M  V30 7 1 7 8
M  V30 8 1 8 9
M  V30 9 2 9 10
M  V30 10 1 10 11
M  V30 11 3 11 12
M  V30 12 1 10 13
M  V30 13 2 13 14
M  V30 14 1 14 15
M  V30 15 2 15 16
M  V30 16 1 16 17
M  V30 17 2 17 18
M  V30 18 1 18 19
M  V30 19 2 19 20
M  V30 20 1 20 21
M  V30 21 2 21 22
M  V30 22 1 22 23
M  V30 23 2 23 24
M  V30 24 2 7 25
M  V30 25 1 25 26
M  V30 26 2 26 27
M  V30 27 1 27 28
M  V30 28 1 28 2
M  V30 29 1 27 4
M  V30 30 1 16 9
M  V30 31 1 24 19
M  V30 32 1 1 29
M  V30 33 1 1 30
M  V30 34 1 1 31
M  V30 35 1 3 32
M  V30 36 1 6 33
M  V30 37 1 6 34
M  V30 38 1 6 35
M  V30 39 1 8 36
M  V30 40 1 13 37
M  V30 41 1 15 38
M  V30 42 1 17 39
M  V30 43 1 18 40
M  V30 44 1 20 41
M  V30 45 1 21 42
M  V30 46 1 22 43
M  V30 47 1 23 44
M  V30 48 1 24 45
M  V30 49 1 25 46
M  V30 50 1 26 47
M  V30 51 1 28 48
M  V30 END BOND
M  V30 END CTAB
M  END
>  <Dataset>  (289) 
ChEMBL_Kinases

>  <Ligand_Instance>  (289) 
nan

>  <PDB_ID>  (289) 
nan

>  <Standardized_SMILES>  (289) 
Cc1cc2c(C)c(Nc3c(C#N)cncc3/C=C/c3ccccc3)ccc2[nH]1

>  <Name>  (289) 
nan

>  <Pocket>  (289) 
nan

>  <ATP_Site>  (289) 
nan

>  <Peripheral>  (289) 
nan

>  <Num_H_Atoms_ProtBoundConf>  (289) 
nan

>  <Num_Resolved_Atoms>  (289) 
nan

>  <Num_Not_Resolved_Atoms>  (289) 
nan

$$$$
CHEMBL5087625
     RDKit          3D

  0  0  0  0  0  0  0  0  0  0999 V3000
M  V30 BEGIN CTAB
M  V30 COUNTS 55 59 0 0 0
M  V30 BEGIN ATOM
M  V30 1 C -3.126877 -5.876775 -3.666200 0
M  V30 2 N -3.026393 -4.513693 -3.124264 0
M  V30 3 C -3.608686 -3.364919 -3.819210 0
M  V30 4 C -2.308878 -4.623435 -1.914961 0
M  V30 5 O -2.167069 -5.862610 -2.005054 0
M  V30 6 C -1.770768 -3.885986 -0.786442 0
M  V30 7 C -1.116512 -4.679186 0.129039 0
M  V30 8 N -0.954391 -6.088246 0.028298 0
M  V30 9 C -0.580404 -4.028679 1.230569 0
M  V30 10 C -0.718751 -2.665640 1.359939 0
M  V30 11 C -1.370186 -1.871051 0.449698 0
M  V30 12 C -1.501813 -0.428704 0.612093 0
M  V30 13 C -2.618665 0.006080 1.294711 0
M  V30 14 N -2.805715 1.324998 1.482397 0
M  V30 15 C -1.896908 2.224973 1.000759 0
M  V30 16 C -0.740650 1.848730 0.298454 0
M  V30 17 C -0.601845 0.503203 0.137547 0
M  V30 18 Cl 0.773754 -0.109081 -0.708322 0
M  V30 19 C -0.011047 3.072618 -0.058210 0 CFG=1
M  V30 20 C 0.839156 3.490977 1.107259 0
M  V30 21 C 2.163426 2.868950 0.825533 0
M  V30 22 C 2.271258 2.932652 -0.699014 0 CFG=2
M  V30 23 C 3.117653 4.124456 -1.063085 0
M  V30 24 N 4.330752 4.022639 -1.652955 0
M  V30 25 C 4.855245 5.226051 -1.861270 0
M  V30 26 N 3.970673 6.098178 -1.401265 0
M  V30 27 N 2.924520 5.447640 -0.920230 0
M  V30 28 C 0.877792 3.059124 -1.211637 0
M  V30 29 C -1.150261 4.068629 -0.129969 0
M  V30 30 N -1.888213 3.667243 1.079817 0
M  V30 31 C -1.899739 -2.525476 -0.641564 0
M  V30 32 F -2.551909 -1.787616 -1.568411 0
M  V30 33 H -3.685960 -6.520603 -2.958675 0
M  V30 34 H -3.716544 -5.787944 -4.610950 0
M  V30 35 H -2.150871 -6.335975 -3.855147 0
M  V30 36 H -2.837817 -2.629421 -4.104791 0
M  V30 37 H -4.387871 -2.854753 -3.215859 0
M  V30 38 H -4.075906 -3.798458 -4.744714 0
M  V30 39 H -1.829671 -6.657469 0.225644 0
M  V30 40 H 0.033927 -6.304848 -0.230958 0
M  V30 41 H -0.048573 -4.605225 1.993186 0
M  V30 42 H -0.284753 -2.208630 2.232849 0
M  V30 43 H -3.366088 -0.676226 1.694240 0
M  V30 44 H 0.370714 3.135619 2.047542 0
M  V30 45 H 0.830325 4.595681 1.160819 0
M  V30 46 H 2.141550 1.813907 1.148439 0
M  V30 47 H 2.994522 3.420768 1.309271 0
M  V30 48 H 2.830955 2.048364 -1.007025 0
M  V30 49 H 5.763268 5.634863 -2.284635 0
M  V30 50 H 2.058183 5.832576 -0.487364 0
M  V30 51 H 0.802078 4.065416 -1.714393 0
M  V30 52 H 0.629827 2.347136 -2.020855 0
M  V30 53 H -1.843111 3.844113 -0.968240 0
M  V30 54 H -0.805154 5.104989 -0.083614 0
M  V30 55 H -2.332437 4.228953 1.860221 0
M  V30 END ATOM
M  V30 BEGIN BOND
M  V30 1 1 1 2
M  V30 2 1 2 3
M  V30 3 1 2 4
M  V30 4 2 4 5
M  V30 5 1 4 6
M  V30 6 2 6 7
M  V30 7 1 7 8
M  V30 8 1 7 9
M  V30 9 2 9 10
M  V30 10 1 10 11
M  V30 11 1 11 12
M  V30 12 2 12 13
M  V30 13 1 13 14
M  V30 14 2 14 15
M  V30 15 1 15 16
M  V30 16 2 16 17
M  V30 17 1 17 18
M  V30 18 1 16 19
M  V30 19 1 19 20 CFG=1
M  V30 20 1 20 21
M  V30 21 1 21 22
M  V30 22 1 22 23
M  V30 23 2 23 24
M  V30 24 1 24 25
M  V30 25 2 25 26
M  V30 26 1 26 27
M  V30 27 1 22 28
M  V30 28 1 19 29
M  V30 29 1 29 30
M  V30 30 2 11 31
M  V30 31 1 31 32
M  V30 32 1 31 6
M  V30 33 1 17 12
M  V30 34 1 28 19
M  V30 35 1 30 15
M  V30 36 1 27 23
M  V30 37 1 1 33
M  V30 38 1 1 34
M  V30 39 1 1 35
M  V30 40 1 3 36
M  V30 41 1 3 37
M  V30 42 1 3 38
M  V30 43 1 8 39
M  V30 44 1 8 40
M  V30 45 1 9 41
M  V30 46 1 10 42
M  V30 47 1 13 43
M  V30 48 1 20 44
M  V30 49 1 20 45
M  V30 50 1 21 46
M  V30 51 1 21 47
M  V30 52 1 22 48 CFG=3
M  V30 53 1 25 49
M  V30 54 1 27 50
M  V30 55 1 28 51
M  V30 56 1 28 52
M  V30 57 1 29 53
M  V30 58 1 29 54
M  V30 59 1 30 55
M  V30 END BOND
M  V30 END CTAB
M  END
>  <Dataset>  (290) 
ChEMBL_Kinases

>  <Ligand_Instance>  (290) 
nan

>  <PDB_ID>  (290) 
nan

>  <Standardized_SMILES>  (290) 
CN(C)C(=O)c1c(N)ccc(-c2cnc3c(c2Cl)[C@]2(CC[C@H](c4ncn[nH]4)C2)CN3)c1F

>  <Name>  (290) 
nan

>  <Pocket>  (290) 
nan

>  <ATP_Site>  (290) 
nan

>  <Peripheral>  (290) 
nan

>  <Num_H_Atoms_ProtBoundConf>  (290) 
nan

>  <Num_Resolved_Atoms>  (290) 
nan

>  <Num_Not_Resolved_Atoms>  (290) 
nan

$$$$
CHEMBL5087657
     RDKit          3D

  0  0  0  0  0  0  0  0  0  0999 V3000
M  V30 BEGIN CTAB
M  V30 COUNTS 65 70 0 0 0
M  V30 BEGIN ATOM
M  V30 1 O 3.569082 1.784686 3.890834 0
M  V30 2 C 3.054013 1.493537 2.750179 0
M  V30 3 N 3.573966 0.209506 2.344424 0
M  V30 4 C 4.406859 -0.898661 2.638653 0
M  V30 5 C 5.468335 -1.036438 1.570208 0
M  V30 6 C 4.732698 -1.778048 0.483792 0
M  V30 7 N 3.892613 -2.685037 1.177638 0
M  V30 8 C 2.605907 -2.925357 0.563028 0
M  V30 9 C 2.652925 -3.664953 -0.727183 0
M  V30 10 C 3.200193 -5.014679 -0.888206 0
M  V30 11 C 1.695701 -4.841336 -0.847857 0
M  V30 12 C 3.708498 -2.234907 2.509585 0
M  V30 13 C 2.104290 2.212645 1.887185 0
M  V30 14 C 0.791781 1.751542 1.858577 0
M  V30 15 C -0.205698 2.319433 1.097338 0
M  V30 16 C -1.586176 1.853074 1.053605 0
M  V30 17 C -2.476711 2.548342 0.224948 0
M  V30 18 C -3.779489 2.103779 0.184172 0
M  V30 19 C -4.219314 1.028082 0.912097 0
M  V30 20 N -5.532379 0.518705 0.900090 0
M  V30 21 S -6.390238 -0.954514 0.704601 0
M  V30 22 O -7.821825 -0.815931 1.119244 0
M  V30 23 O -5.785017 -1.912409 1.740291 0
M  V30 24 C -6.209205 -1.720045 -0.823934 0
M  V30 25 C -7.373903 -1.848775 -1.574587 0
M  V30 26 C -7.447393 -2.423268 -2.830031 0
M  V30 27 C -6.299425 -2.917465 -3.415785 0
M  V30 28 C -5.124661 -2.813961 -2.714330 0
M  V30 29 Cl -3.628162 -3.408094 -3.376582 0
M  V30 30 C -5.121266 -2.232512 -1.471498 0
M  V30 31 Cl -3.622260 -2.124276 -0.583189 0
M  V30 32 C -3.288229 0.377256 1.717567 0
M  V30 33 C -1.969133 0.766246 1.808004 0
M  V30 34 N 0.143569 3.389922 0.342091 0
M  V30 35 C 1.407792 3.874029 0.337570 0
M  V30 36 N 2.038705 4.900534 -0.298044 0
M  V30 37 N 3.329639 4.937950 0.064650 0
M  V30 38 C 3.597018 3.958486 0.935821 0
M  V30 39 C 2.410912 3.307912 1.098933 0
M  V30 40 H 3.167749 -0.073236 1.395624 0
M  V30 41 H 4.932749 -0.835135 3.622405 0
M  V30 42 H 5.768531 -0.042096 1.186053 0
M  V30 43 H 6.339844 -1.627181 1.927973 0
M  V30 44 H 4.133796 -1.013888 -0.085227 0
M  V30 45 H 5.448633 -2.285440 -0.214520 0
M  V30 46 H 2.020966 -3.515400 1.309576 0
M  V30 47 H 2.049473 -1.967236 0.456369 0
M  V30 48 H 2.635775 -3.006244 -1.635861 0
M  V30 49 H 3.577091 -5.293106 -1.905261 0
M  V30 50 H 3.693607 -5.585786 -0.093342 0
M  V30 51 H 1.110032 -4.976503 -1.779949 0
M  V30 52 H 1.240227 -5.230669 0.093287 0
M  V30 53 H 2.622525 -2.136159 2.736311 0
M  V30 54 H 4.166356 -2.958685 3.212996 0
M  V30 55 H 0.553737 0.897257 2.474795 0
M  V30 56 H -2.155127 3.390804 -0.352207 0
M  V30 57 H -4.492266 2.618203 -0.444950 0
M  V30 58 H -6.136415 1.374561 1.074787 0
M  V30 59 H -8.340392 -1.493835 -1.210629 0
M  V30 60 H -8.366361 -2.505657 -3.378320 0
M  V30 61 H -6.274632 -3.374642 -4.381405 0
M  V30 62 H -3.611372 -0.488860 2.313608 0
M  V30 63 H -1.320233 0.202767 2.458122 0
M  V30 64 H 1.512930 5.521859 -0.959919 0
M  V30 65 H 4.537702 3.711504 1.420579 0
M  V30 END ATOM
M  V30 BEGIN BOND
M  V30 1 2 1 2
M  V30 2 1 2 3
M  V30 3 1 3 4
M  V30 4 1 4 5
M  V30 5 1 5 6
M  V30 6 1 6 7
M  V30 7 1 7 8
M  V30 8 1 8 9
M  V30 9 1 9 10
M  V30 10 1 10 11
M  V30 11 1 7 12
M  V30 12 1 2 13
M  V30 13 2 13 14
M  V30 14 1 14 15
M  V30 15 1 15 16
M  V30 16 2 16 17
M  V30 17 1 17 18
M  V30 18 2 18 19
M  V30 19 1 19 20
M  V30 20 1 20 21
M  V30 21 2 21 22
M  V30 22 2 21 23
M  V30 23 1 21 24
M  V30 24 2 24 25
M  V30 25 1 25 26
M  V30 26 2 26 27
M  V30 27 1 27 28
M  V30 28 1 28 29
M  V30 29 2 28 30
M  V30 30 1 30 31
M  V30 31 1 19 32
M  V30 32 2 32 33
M  V30 33 2 15 34
M  V30 34 1 34 35
M  V30 35 1 35 36
M  V30 36 1 36 37
M  V30 37 2 37 38
M  V30 38 1 38 39
M  V30 39 1 12 4
M  V30 40 1 39 13
M  V30 41 1 11 9
M  V30 42 1 33 16
M  V30 43 2 39 35
M  V30 44 1 30 24
M  V30 45 1 3 40
M  V30 46 1 4 41
M  V30 47 1 5 42
M  V30 48 1 5 43
M  V30 49 1 6 44
M  V30 50 1 6 45
M  V30 51 1 8 46
M  V30 52 1 8 47
M  V30 53 1 9 48
M  V30 54 1 10 49
M  V30 55 1 10 50
M  V30 56 1 11 51
M  V30 57 1 11 52
M  V30 58 1 12 53
M  V30 59 1 12 54
M  V30 60 1 14 55
M  V30 61 1 17 56
M  V30 62 1 18 57
M  V30 63 1 20 58
M  V30 64 1 25 59
M  V30 65 1 26 60
M  V30 66 1 27 61
M  V30 67 1 32 62
M  V30 68 1 33 63
M  V30 69 1 36 64
M  V30 70 1 38 65
M  V30 END BOND
M  V30 END CTAB
M  END
>  <Dataset>  (291) 
ChEMBL_Kinases

>  <Ligand_Instance>  (291) 
nan

>  <PDB_ID>  (291) 
nan

>  <Standardized_SMILES>  (291) 
O=C(NC1CCN(CC2CC2)C1)c1cc(-c2ccc(NS(=O)(=O)c3cccc(Cl)c3Cl)cc2)nc2[nH]ncc12

>  <Name>  (291) 
nan

>  <Pocket>  (291) 
nan

>  <ATP_Site>  (291) 
nan

>  <Peripheral>  (291) 
nan

>  <Num_H_Atoms_ProtBoundConf>  (291) 
nan

>  <Num_Resolved_Atoms>  (291) 
nan

>  <Num_Not_Resolved_Atoms>  (291) 
nan

$$$$
CHEMBL5087683
     RDKit          3D

  0  0  0  0  0  0  0  0  0  0999 V3000
M  V30 BEGIN CTAB
M  V30 COUNTS 27 29 0 0 0
M  V30 BEGIN ATOM
M  V30 1 N 0.265211 -4.193242 2.728228 0
M  V30 2 C -0.396949 -3.099947 2.090649 0
M  V30 3 C 0.353647 -2.066093 1.573123 0
M  V30 4 C -0.260802 -0.998061 0.952228 0
M  V30 5 C 0.520153 0.123913 0.388358 0
M  V30 6 C -0.099339 1.359737 0.409101 0
M  V30 7 C 0.663533 2.382972 -0.127110 0
M  V30 8 C 1.929297 2.195383 -0.638492 0
M  V30 9 N 2.873113 2.982542 -1.205468 0
M  V30 10 C 3.953180 2.245930 -1.525687 0
M  V30 11 N 3.705389 0.973996 -1.163254 0
M  V30 12 N 2.494953 0.958388 -0.635528 0
M  V30 13 C 1.798987 -0.091277 -0.123045 0
M  V30 14 C -1.641984 -1.036927 0.887963 0
M  V30 15 C -2.376227 -2.082750 1.413168 0
M  V30 16 N -3.797986 -2.011826 1.285791 0
M  V30 17 N -1.751461 -3.109671 2.012164 0
M  V30 18 H 0.852149 -4.955440 2.352887 0
M  V30 19 H 0.159725 -4.269321 3.764017 0
M  V30 20 H 1.440199 -2.018815 1.614576 0
M  V30 21 H -1.077492 1.517173 0.801721 0
M  V30 22 H 0.234083 3.384311 -0.142127 0
M  V30 23 H 4.705277 2.906916 -1.983643 0
M  V30 24 H 2.246298 -1.072886 -0.120488 0
M  V30 25 H -2.144202 -0.205382 0.403608 0
M  V30 26 H -4.460441 -2.187264 2.063221 0
M  V30 27 H -4.342653 -1.776719 0.402273 0
M  V30 END ATOM
M  V30 BEGIN BOND
M  V30 1 1 1 2
M  V30 2 2 2 3
M  V30 3 1 3 4
M  V30 4 1 4 5
M  V30 5 1 5 6
M  V30 6 2 6 7
M  V30 7 1 7 8
M  V30 8 2 8 9
M  V30 9 1 9 10
M  V30 10 2 10 11
M  V30 11 1 11 12
M  V30 12 1 12 13
M  V30 13 2 4 14
M  V30 14 1 14 15
M  V30 15 1 15 16
M  V30 16 2 15 17
M  V30 17 1 17 2
M  V30 18 2 13 5
M  V30 19 1 12 8
M  V30 20 1 1 18
M  V30 21 1 1 19
M  V30 22 1 3 20
M  V30 23 1 6 21
M  V30 24 1 7 22
M  V30 25 1 10 23
M  V30 26 1 13 24
M  V30 27 1 14 25
M  V30 28 1 16 26
M  V30 29 1 16 27
M  V30 END BOND
M  V30 END CTAB
M  END
>  <Dataset>  (292) 
ChEMBL_Kinases

>  <Ligand_Instance>  (292) 
nan

>  <PDB_ID>  (292) 
nan

>  <Standardized_SMILES>  (292) 
Nc1cc(-c2ccc3ncnn3c2)cc(N)n1

>  <Name>  (292) 
nan

>  <Pocket>  (292) 
nan

>  <ATP_Site>  (292) 
nan

>  <Peripheral>  (292) 
nan

>  <Num_H_Atoms_ProtBoundConf>  (292) 
nan

>  <Num_Resolved_Atoms>  (292) 
nan

>  <Num_Not_Resolved_Atoms>  (292) 
nan

$$$$
CHEMBL5087797
     RDKit          3D

  0  0  0  0  0  0  0  0  0  0999 V3000
M  V30 BEGIN CTAB
M  V30 COUNTS 82 86 0 0 0
M  V30 BEGIN ATOM
M  V30 1 C -1.877384 -3.617934 1.456827 0
M  V30 2 C -1.461997 -3.942349 0.071070 0
M  V30 3 C -2.328847 -4.542982 -0.816796 0
M  V30 4 C -1.848425 -4.808847 -2.094869 0
M  V30 5 C -0.546547 -4.489702 -2.484680 0
M  V30 6 C -0.052941 -4.784646 -3.863678 0
M  V30 7 C 1.209877 -5.603894 -3.799073 0
M  V30 8 C 0.254305 -3.458512 -4.537529 0
M  V30 9 C 0.293680 -3.882345 -1.549636 0
M  V30 10 C -0.167535 -3.604579 -0.255944 0
M  V30 11 O 0.782349 -3.012054 0.522890 0
M  V30 12 C 0.701500 -1.764626 1.125442 0
M  V30 13 N 1.787397 -1.416842 1.843509 0
M  V30 14 C 1.860763 -0.222239 2.495193 0
M  V30 15 C 0.765139 0.612148 2.381036 0
M  V30 16 C -0.365954 0.277994 1.647534 0
M  V30 17 C -1.494318 1.173743 1.544864 0
M  V30 18 C -2.638993 1.067454 2.330442 0
M  V30 19 C -2.998912 0.120870 3.380862 0
M  V30 20 C -4.135718 -0.637454 3.100985 0
M  V30 21 C -4.603381 -1.582532 4.007484 0
M  V30 22 C -3.924217 -1.764624 5.199375 0
M  V30 23 C -4.352244 -2.752225 6.227808 0
M  V30 24 F -3.335125 -3.617163 6.578230 0
M  V30 25 F -4.772296 -2.116881 7.392950 0
M  V30 26 F -5.404205 -3.487895 5.704128 0
M  V30 27 C -2.807825 -1.019791 5.473896 0
M  V30 28 C -2.322480 -0.072232 4.586912 0
M  V30 29 N -3.467506 2.080071 1.940733 0
M  V30 30 C -2.849197 2.766468 0.962807 0
M  V30 31 N -1.635045 2.218116 0.711096 0
M  V30 32 C -0.730299 2.709388 -0.273290 0
M  V30 33 C -0.035967 1.610073 -1.066923 0
M  V30 34 C 0.653589 2.365599 -2.211029 0
M  V30 35 N 1.669580 3.121938 -1.560552 0
M  V30 36 C 2.895790 3.267278 -2.235124 0
M  V30 37 C 3.631298 1.945712 -2.325055 0
M  V30 38 N 3.935097 1.374663 -1.031293 0
M  V30 39 C 4.636626 0.115728 -1.324737 0
M  V30 40 C 4.911718 2.173454 -0.295936 0
M  V30 41 C 1.236573 4.161836 -0.717972 0
M  V30 42 C 0.271564 3.637491 0.320582 0
M  V30 43 N -0.366655 -0.921363 1.029704 0
M  V30 44 H -2.569984 -4.437028 1.804257 0
M  V30 45 H -2.490404 -2.691206 1.488440 0
M  V30 46 H -1.031806 -3.486137 2.136823 0
M  V30 47 H -3.330708 -4.793314 -0.528323 0
M  V30 48 H -2.504487 -5.279812 -2.814346 0
M  V30 49 H -0.879422 -5.259052 -4.401979 0
M  V30 50 H 1.224369 -6.331533 -4.658133 0
M  V30 51 H 1.226958 -6.228814 -2.887024 0
M  V30 52 H 2.069804 -4.898054 -3.840071 0
M  V30 53 H -0.666871 -3.098209 -5.042770 0
M  V30 54 H 1.047838 -3.587108 -5.296409 0
M  V30 55 H 0.654508 -2.734118 -3.800123 0
M  V30 56 H 1.289974 -3.658060 -1.908322 0
M  V30 57 H 2.741114 0.046843 3.070627 0
M  V30 58 H 0.845069 1.549529 2.903062 0
M  V30 59 H -4.718940 -0.547127 2.183883 0
M  V30 60 H -5.482678 -2.180500 3.809867 0
M  V30 61 H -2.239564 -1.128527 6.401566 0
M  V30 62 H -1.452258 0.551523 4.730052 0
M  V30 63 H -3.268086 3.634970 0.451764 0
M  V30 64 H -1.276169 3.300556 -1.065679 0
M  V30 65 H 0.787216 1.193342 -0.457650 0
M  V30 66 H -0.726883 0.873380 -1.461269 0
M  V30 67 H 1.102003 1.649118 -2.906589 0
M  V30 68 H -0.113343 3.003718 -2.706295 0
M  V30 69 H 3.543119 3.952724 -1.691326 0
M  V30 70 H 2.811176 3.634641 -3.280652 0
M  V30 71 H 3.089348 1.181167 -2.908870 0
M  V30 72 H 4.619779 2.072290 -2.836845 0
M  V30 73 H 5.452663 0.279570 -2.085867 0
M  V30 74 H 5.178151 -0.200458 -0.395852 0
M  V30 75 H 3.974096 -0.651360 -1.733622 0
M  V30 76 H 4.511802 3.125821 0.076579 0
M  V30 77 H 5.187842 1.544326 0.592537 0
M  V30 78 H 5.843967 2.271335 -0.881863 0
M  V30 79 H 2.115354 4.630504 -0.244598 0
M  V30 80 H 0.710521 4.938926 -1.327425 0
M  V30 81 H -0.309846 4.546681 0.654392 0
M  V30 82 H 0.755566 3.273975 1.239533 0
M  V30 END ATOM
M  V30 BEGIN BOND
M  V30 1 1 1 2
M  V30 2 2 2 3
M  V30 3 1 3 4
M  V30 4 2 4 5
M  V30 5 1 5 6
M  V30 6 1 6 7
M  V30 7 1 6 8
M  V30 8 1 5 9
M  V30 9 2 9 10
M  V30 10 1 10 11
M  V30 11 1 11 12
M  V30 12 2 12 13
M  V30 13 1 13 14
M  V30 14 2 14 15
M  V30 15 1 15 16
M  V30 16 1 16 17
M  V30 17 2 17 18
M  V30 18 1 18 19
M  V30 19 2 19 20
M  V30 20 1 20 21
M  V30 21 2 21 22
M  V30 22 1 22 23
M  V30 23 1 23 24
M  V30 24 1 23 25
M  V30 25 1 23 26
M  V30 26 1 22 27
M  V30 27 2 27 28
M  V30 28 1 18 29
M  V30 29 2 29 30
M  V30 30 1 30 31
M  V30 31 1 31 32
M  V30 32 1 32 33
M  V30 33 1 33 34
M  V30 34 1 34 35
M  V30 35 1 35 36
M  V30 36 1 36 37
M  V30 37 1 37 38
M  V30 38 1 38 39
M  V30 39 1 38 40
M  V30 40 1 35 41
M  V30 41 1 41 42
M  V30 42 2 16 43
M  V30 43 1 10 2
M  V30 44 1 43 12
M  V30 45 1 31 17
M  V30 46 1 42 32
M  V30 47 1 28 19
M  V30 48 1 1 44
M  V30 49 1 1 45
M  V30 50 1 1 46
M  V30 51 1 3 47
M  V30 52 1 4 48
M  V30 53 1 6 49
M  V30 54 1 7 50
M  V30 55 1 7 51
M  V30 56 1 7 52
M  V30 57 1 8 53
M  V30 58 1 8 54
M  V30 59 1 8 55
M  V30 60 1 9 56
M  V30 61 1 14 57
M  V30 62 1 15 58
M  V30 63 1 20 59
M  V30 64 1 21 60
M  V30 65 1 27 61
M  V30 66 1 28 62
M  V30 67 1 30 63
M  V30 68 1 32 64
M  V30 69 1 33 65
M  V30 70 1 33 66
M  V30 71 1 34 67
M  V30 72 1 34 68
M  V30 73 1 36 69
M  V30 74 1 36 70
M  V30 75 1 37 71
M  V30 76 1 37 72
M  V30 77 1 39 73
M  V30 78 1 39 74
M  V30 79 1 39 75
M  V30 80 1 40 76
M  V30 81 1 40 77
M  V30 82 1 40 78
M  V30 83 1 41 79
M  V30 84 1 41 80
M  V30 85 1 42 81
M  V30 86 1 42 82
M  V30 END BOND
M  V30 END CTAB
M  END
>  <Dataset>  (293) 
ChEMBL_Kinases

>  <Ligand_Instance>  (293) 
nan

>  <PDB_ID>  (293) 
nan

>  <Standardized_SMILES>  (293) 
Cc1ccc(C(C)C)cc1Oc1nccc(-c2c(-c3ccc(C(F)(F)F)cc3)ncn2C2CCN(CCN(C)C)CC2)n1

>  <Name>  (293) 
nan

>  <Pocket>  (293) 
nan

>  <ATP_Site>  (293) 
nan

>  <Peripheral>  (293) 
nan

>  <Num_H_Atoms_ProtBoundConf>  (293) 
nan

>  <Num_Resolved_Atoms>  (293) 
nan

>  <Num_Not_Resolved_Atoms>  (293) 
nan

$$$$
CHEMBL5087826
     RDKit          3D

  0  0  0  0  0  0  0  0  0  0999 V3000
M  V30 BEGIN CTAB
M  V30 COUNTS 59 63 0 0 0
M  V30 BEGIN ATOM
M  V30 1 C 7.586930 -0.643248 1.929845 0
M  V30 2 O 6.385355 -0.174616 1.355905 0
M  V30 3 C 5.724489 0.820643 2.057357 0
M  V30 4 C 6.200981 1.329028 3.242280 0
M  V30 5 C 5.486728 2.317865 3.880778 0
M  V30 6 F 5.936733 2.831969 5.047154 0
M  V30 7 C 4.307707 2.736253 3.260240 0
M  V30 8 C 3.774820 2.263114 2.066239 0
M  V30 9 C 2.474540 2.926130 1.678738 0 CFG=1
M  V30 10 C 2.824680 4.077994 0.792645 0
M  V30 11 O 1.700420 4.778232 0.357657 0
M  V30 12 N 1.629825 1.925076 1.081592 0
M  V30 13 C 0.485722 1.345009 1.810524 0
M  V30 14 C 0.006995 0.279736 0.900795 0
M  V30 15 C -0.989917 -0.669546 0.972600 0
M  V30 16 C -0.926639 -1.329986 -0.261166 0
M  V30 17 C -1.781091 -2.443874 -0.713857 0
M  V30 18 N -3.103101 -2.339947 -0.492847 0
M  V30 19 C -4.006171 -3.265910 -0.844789 0
M  V30 20 N -5.388190 -3.082474 -0.575809 0
M  V30 21 C -6.398128 -4.019691 -0.919299 0
M  V30 22 C -6.281081 -5.239238 -1.549560 0
M  V30 23 C -7.518954 -5.805521 -1.676416 0
M  V30 24 N -8.365650 -4.935085 -1.128655 0
M  V30 25 N -7.703158 -3.902936 -0.692941 0
M  V30 26 C -8.354063 -2.780176 -0.042956 0
M  V30 27 N -3.499683 -4.348876 -1.455713 0
M  V30 28 C -2.199813 -4.521011 -1.708310 0
M  V30 29 C -1.277059 -3.563946 -1.343151 0
M  V30 30 C 0.166601 -3.681764 -1.586313 0
M  V30 31 C 0.103323 -0.743452 -1.006029 0
M  V30 32 N 0.658918 0.237499 -0.272630 0
M  V30 33 C 1.651658 1.249949 -0.165402 0
M  V30 34 O 2.424262 1.466434 -1.117916 0
M  V30 35 C 4.557175 1.288426 1.517083 0
M  V30 36 H 7.884262 -1.578388 1.390450 0
M  V30 37 H 8.386522 0.097217 1.962329 0
M  V30 38 H 7.391710 -1.002898 2.981595 0
M  V30 39 H 7.120492 0.918387 3.609444 0
M  V30 40 H 3.820223 3.515483 3.838745 0
M  V30 41 H 1.996700 3.268254 2.653813 0
M  V30 42 H 3.622216 4.713551 1.197374 0
M  V30 43 H 3.263393 3.627275 -0.140421 0
M  V30 44 H 2.029981 5.684045 0.111704 0
M  V30 45 H 0.798342 0.954884 2.799491 0
M  V30 46 H -0.246894 2.149971 1.867952 0
M  V30 47 H -1.709570 -0.954496 1.707162 0
M  V30 48 H -5.673910 -2.198609 -0.093822 0
M  V30 49 H -5.377067 -5.710166 -1.903187 0
M  V30 50 H -7.776709 -6.752320 -2.121072 0
M  V30 51 H -8.324689 -2.889024 1.051204 0
M  V30 52 H -9.409625 -2.674519 -0.356180 0
M  V30 53 H -7.845931 -1.826022 -0.331442 0
M  V30 54 H -1.851157 -5.418793 -2.205693 0
M  V30 55 H 0.774268 -3.140913 -0.838673 0
M  V30 56 H 0.351353 -3.320947 -2.618802 0
M  V30 57 H 0.516813 -4.739277 -1.566328 0
M  V30 58 H 0.426989 -1.001985 -1.996885 0
M  V30 59 H 4.205990 0.882296 0.613114 0
M  V30 END ATOM
M  V30 BEGIN BOND
M  V30 1 1 1 2
M  V30 2 1 2 3
M  V30 3 2 3 4
M  V30 4 1 4 5
M  V30 5 1 5 6
M  V30 6 2 5 7
M  V30 7 1 7 8
M  V30 8 1 8 9
M  V30 9 1 9 10
M  V30 10 1 10 11
M  V30 11 1 9 12
M  V30 12 1 12 13
M  V30 13 1 13 14
M  V30 14 2 14 15
M  V30 15 1 15 16
M  V30 16 1 16 17
M  V30 17 2 17 18
M  V30 18 1 18 19
M  V30 19 1 19 20
M  V30 20 1 20 21
M  V30 21 2 21 22
M  V30 22 1 22 23
M  V30 23 2 23 24
M  V30 24 1 24 25
M  V30 25 1 25 26
M  V30 26 2 19 27
M  V30 27 1 27 28
M  V30 28 2 28 29
M  V30 29 1 29 30
M  V30 30 2 16 31
M  V30 31 1 31 32
M  V30 32 1 32 33
M  V30 33 2 33 34
M  V30 34 2 8 35
M  V30 35 1 35 3
M  V30 36 1 33 12
M  V30 37 1 32 14
M  V30 38 1 29 17
M  V30 39 1 25 21
M  V30 40 1 1 36
M  V30 41 1 1 37
M  V30 42 1 1 38
M  V30 43 1 4 39
M  V30 44 1 7 40
M  V30 45 1 9 41 CFG=1
M  V30 46 1 10 42
M  V30 47 1 10 43
M  V30 48 1 11 44
M  V30 49 1 13 45
M  V30 50 1 13 46
M  V30 51 1 15 47
M  V30 52 1 20 48
M  V30 53 1 22 49
M  V30 54 1 23 50
M  V30 55 1 26 51
M  V30 56 1 26 52
M  V30 57 1 26 53
M  V30 58 1 28 54
M  V30 59 1 30 55
M  V30 60 1 30 56
M  V30 61 1 30 57
M  V30 62 1 31 58
M  V30 63 1 35 59
M  V30 END BOND
M  V30 END CTAB
M  END
>  <Dataset>  (294) 
ChEMBL_Kinases

>  <Ligand_Instance>  (294) 
nan

>  <PDB_ID>  (294) 
nan

>  <Standardized_SMILES>  (294) 
COc1cc(F)cc([C@@H](CO)N2Cc3cc(-c4nc(Nc5ccnn5C)ncc4C)cn3C2=O)c1

>  <Name>  (294) 
nan

>  <Pocket>  (294) 
nan

>  <ATP_Site>  (294) 
nan

>  <Peripheral>  (294) 
nan

>  <Num_H_Atoms_ProtBoundConf>  (294) 
nan

>  <Num_Resolved_Atoms>  (294) 
nan

>  <Num_Not_Resolved_Atoms>  (294) 
nan

$$$$
CHEMBL5087840
     RDKit          3D

  0  0  0  0  0  0  0  0  0  0999 V3000
M  V30 BEGIN CTAB
M  V30 COUNTS 49 52 0 0 0
M  V30 BEGIN ATOM
M  V30 1 C 7.729606 -0.528804 3.492157 0
M  V30 2 N 6.434084 -0.492189 2.893293 0
M  V30 3 C 6.102460 -1.075093 1.644935 0
M  V30 4 O 7.042297 -1.650641 1.064542 0
M  V30 5 C 4.783618 -1.046403 1.019185 0
M  V30 6 C 4.685239 -1.680461 -0.203543 0
M  V30 7 C 3.458237 -1.703388 -0.877421 0
M  V30 8 C 2.377861 -1.080501 -0.281972 0
M  V30 9 C 2.502177 -0.452000 0.943896 0
M  V30 10 C 3.708613 -0.422164 1.619909 0
M  V30 11 C 1.478301 0.252366 1.719494 0
M  V30 12 O 1.815175 0.915555 2.735018 0
M  V30 13 C 0.041177 0.263891 1.420741 0
M  V30 14 C -0.674961 1.191120 2.151032 0
M  V30 15 C -2.039032 1.371349 2.028946 0
M  V30 16 C -2.724450 0.580322 1.126470 0
M  V30 17 N -4.129040 0.722343 0.956991 0
M  V30 18 C -5.029999 0.034447 0.142198 0
M  V30 19 C -5.748075 0.726526 -0.803541 0
M  V30 20 C -6.621793 0.043478 -1.588857 0
M  V30 21 C -6.854696 -1.292367 -1.521794 0
M  V30 22 C -6.139688 -2.027566 -0.568980 0
M  V30 23 C -5.252009 -1.311218 0.223622 0
M  V30 24 N -4.564801 -2.099652 1.163483 0
M  V30 25 C -2.003304 -0.345581 0.398473 0
M  V30 26 C -0.634327 -0.535437 0.512462 0
M  V30 27 C -0.078986 -1.573936 -0.358714 0
M  V30 28 C 1.159949 -1.187050 -1.106134 0
M  V30 29 H 7.945312 0.425200 4.033969 0
M  V30 30 H 8.555937 -0.631777 2.743695 0
M  V30 31 H 7.851702 -1.375893 4.202015 0
M  V30 32 H 5.653349 0.007096 3.414582 0
M  V30 33 H 5.502469 -2.183296 -0.712363 0
M  V30 34 H 3.290446 -2.176391 -1.838110 0
M  V30 35 H 3.799420 0.064083 2.565357 0
M  V30 36 H -0.104771 1.791041 2.846438 0
M  V30 37 H -2.526008 2.114775 2.633295 0
M  V30 38 H -4.632008 1.449702 1.509509 0
M  V30 39 H -5.658505 1.807621 -0.965354 0
M  V30 40 H -7.199627 0.556023 -2.339170 0
M  V30 41 H -7.559382 -1.826036 -2.159370 0
M  V30 42 H -6.295784 -3.091999 -0.483562 0
M  V30 43 H -3.762286 -2.688326 0.786420 0
M  V30 44 H -4.122312 -2.636860 1.899774 0
M  V30 45 H -2.471993 -0.997837 -0.326031 0
M  V30 46 H 0.064679 -2.530322 0.150246 0
M  V30 47 H -0.847598 -1.759689 -1.163372 0
M  V30 48 H 1.013147 -0.160223 -1.544506 0
M  V30 49 H 1.273081 -1.861289 -1.953754 0
M  V30 END ATOM
M  V30 BEGIN BOND
M  V30 1 1 1 2
M  V30 2 1 2 3
M  V30 3 2 3 4
M  V30 4 1 3 5
M  V30 5 2 5 6
M  V30 6 1 6 7
M  V30 7 2 7 8
M  V30 8 1 8 9
M  V30 9 2 9 10
M  V30 10 1 9 11
M  V30 11 2 11 12
M  V30 12 1 11 13
M  V30 13 2 13 14
M  V30 14 1 14 15
M  V30 15 2 15 16
M  V30 16 1 16 17
M  V30 17 1 17 18
M  V30 18 2 18 19
M  V30 19 1 19 20
M  V30 20 2 20 21
M  V30 21 1 21 22
M  V30 22 2 22 23
M  V30 23 1 23 24
M  V30 24 1 16 25
M  V30 25 2 25 26
M  V30 26 1 26 27
M  V30 27 1 27 28
M  V30 28 1 10 5
M  V30 29 1 26 13
M  V30 30 1 28 8
M  V30 31 1 23 18
M  V30 32 1 1 29
M  V30 33 1 1 30
M  V30 34 1 1 31
M  V30 35 1 2 32
M  V30 36 1 6 33
M  V30 37 1 7 34
M  V30 38 1 10 35
M  V30 39 1 14 36
M  V30 40 1 15 37
M  V30 41 1 17 38
M  V30 42 1 19 39
M  V30 43 1 20 40
M  V30 44 1 21 41
M  V30 45 1 22 42
M  V30 46 1 24 43
M  V30 47 1 24 44
M  V30 48 1 25 45
M  V30 49 1 27 46
M  V30 50 1 27 47
M  V30 51 1 28 48
M  V30 52 1 28 49
M  V30 END BOND
M  V30 END CTAB
M  END
>  <Dataset>  (295) 
ChEMBL_Kinases

>  <Ligand_Instance>  (295) 
nan

>  <PDB_ID>  (295) 
nan

>  <Standardized_SMILES>  (295) 
CNC(=O)c1ccc2c(c1)C(=O)c1ccc(Nc3ccccc3N)cc1CC2

>  <Name>  (295) 
nan

>  <Pocket>  (295) 
nan

>  <ATP_Site>  (295) 
nan

>  <Peripheral>  (295) 
nan

>  <Num_H_Atoms_ProtBoundConf>  (295) 
nan

>  <Num_Resolved_Atoms>  (295) 
nan

>  <Num_Not_Resolved_Atoms>  (295) 
nan

$$$$
CHEMBL5087900
     RDKit          3D

  0  0  0  0  0  0  0  0  0  0999 V3000
M  V30 BEGIN CTAB
M  V30 COUNTS 27 29 0 0 0
M  V30 BEGIN ATOM
M  V30 1 N -3.112092 -2.690653 2.284008 0
M  V30 2 C -1.717999 -2.630753 2.014193 0
M  V30 3 C -1.217178 -1.489648 1.407683 0
M  V30 4 C 0.110526 -1.337096 1.107245 0
M  V30 5 C 0.696564 -0.162857 0.470860 0
M  V30 6 C 2.056637 -0.178885 0.241534 0
M  V30 7 C 2.709111 0.901247 -0.363506 0
M  V30 8 C 1.978224 2.026746 -0.748517 0
M  V30 9 O 2.245740 3.189402 -1.324133 0
M  V30 10 C 1.163481 3.891203 -1.455203 0
M  V30 11 C 0.053844 3.213740 -0.953870 0
M  V30 12 C 0.606005 2.008898 -0.501663 0
M  V30 13 C -0.036956 0.940371 0.096439 0
M  V30 14 N 0.931121 -2.353518 1.427092 0
M  V30 15 C 0.422660 -3.470248 2.023840 0
M  V30 16 N 1.251146 -4.580651 2.385135 0
M  V30 17 N -0.893758 -3.652890 2.336011 0
M  V30 18 H -3.630865 -3.617823 2.277754 0
M  V30 19 H -3.698326 -1.854941 2.498955 0
M  V30 20 H -1.893092 -0.688548 1.160662 0
M  V30 21 H 2.713431 -0.998180 0.500094 0
M  V30 22 H 3.775002 0.920396 -0.557660 0
M  V30 23 H 1.034534 4.882952 -1.884068 0
M  V30 24 H -0.974916 3.540213 -0.923457 0
M  V30 25 H -1.099506 0.963920 0.270578 0
M  V30 26 H 1.056965 -5.383939 1.735304 0
M  V30 27 H 1.315356 -5.532820 1.952923 0
M  V30 END ATOM
M  V30 BEGIN BOND
M  V30 1 1 1 2
M  V30 2 2 2 3
M  V30 3 1 3 4
M  V30 4 1 4 5
M  V30 5 2 5 6
M  V30 6 1 6 7
M  V30 7 2 7 8
M  V30 8 1 8 9
M  V30 9 1 9 10
M  V30 10 2 10 11
M  V30 11 1 11 12
M  V30 12 2 12 13
M  V30 13 2 4 14
M  V30 14 1 14 15
M  V30 15 1 15 16
M  V30 16 2 15 17
M  V30 17 1 17 2
M  V30 18 1 13 5
M  V30 19 1 12 8
M  V30 20 1 1 18
M  V30 21 1 1 19
M  V30 22 1 3 20
M  V30 23 1 6 21
M  V30 24 1 7 22
M  V30 25 1 10 23
M  V30 26 1 11 24
M  V30 27 1 13 25
M  V30 28 1 16 26
M  V30 29 1 16 27
M  V30 END BOND
M  V30 END CTAB
M  END
>  <Dataset>  (296) 
ChEMBL_Kinases

>  <Ligand_Instance>  (296) 
nan

>  <PDB_ID>  (296) 
nan

>  <Standardized_SMILES>  (296) 
Nc1cc(-c2ccc3occc3c2)nc(N)n1

>  <Name>  (296) 
nan

>  <Pocket>  (296) 
nan

>  <ATP_Site>  (296) 
nan

>  <Peripheral>  (296) 
nan

>  <Num_H_Atoms_ProtBoundConf>  (296) 
nan

>  <Num_Resolved_Atoms>  (296) 
nan

>  <Num_Not_Resolved_Atoms>  (296) 
nan

$$$$
CHEMBL5087942
     RDKit          3D

  0  0  0  0  0  0  0  0  0  0999 V3000
M  V30 BEGIN CTAB
M  V30 COUNTS 48 53 0 0 0
M  V30 BEGIN ATOM
M  V30 1 N 0.477536 -5.128837 -0.386508 0
M  V30 2 C 1.557479 -4.698417 -0.406687 0
M  V30 3 C 2.927432 -4.172377 -0.434919 0
M  V30 4 C 2.881187 -2.723055 -0.107420 0
M  V30 5 C 2.983773 -2.319380 1.208242 0
M  V30 6 C 2.936636 -0.965395 1.473062 0
M  V30 7 C 2.791831 0.037383 0.503953 0
M  V30 8 N 2.756348 1.399122 0.771762 0
M  V30 9 C 3.936145 2.050824 0.773578 0
M  V30 10 N 3.724973 3.368217 1.051347 0
M  V30 11 C 2.387834 3.541928 1.226215 0
M  V30 12 C 1.666732 4.692295 1.525453 0
M  V30 13 N 0.323216 4.511015 1.632161 0
M  V30 14 C -0.253100 3.305874 1.459301 0
M  V30 15 C -1.637254 3.247192 1.594077 0
M  V30 16 C -2.209054 1.998774 1.412346 0
M  V30 17 F -3.555519 1.920485 1.539358 0
M  V30 18 C -1.485254 0.861432 1.115349 0
M  V30 19 C -2.224970 -0.389348 0.950896 0
M  V30 20 C -1.795654 -1.102316 -0.173256 0
M  V30 21 C -2.397656 -2.328470 -0.483587 0
M  V30 22 C -3.410975 -2.823350 0.323955 0
M  V30 23 N -4.152286 -3.945871 0.270153 0
M  V30 24 C -5.009473 -3.930119 1.321444 0
M  V30 25 C -4.835023 -2.779591 2.085375 0
M  V30 26 C -3.816596 -2.100986 1.427377 0
M  V30 27 C -3.233970 -0.892882 1.745875 0
M  V30 28 C -0.113155 0.931116 0.983978 0
M  V30 29 C 0.452627 2.158346 1.162240 0
M  V30 30 C 1.814084 2.309976 1.047884 0
M  V30 31 C 2.697495 -0.489378 -0.793767 0
M  V30 32 C 2.735502 -1.824862 -1.144899 0
M  V30 33 H 3.322051 -4.387357 -1.447441 0
M  V30 34 H 3.571521 -4.745261 0.281038 0
M  V30 35 H 3.098099 -3.020739 2.024256 0
M  V30 36 H 3.016422 -0.634545 2.505584 0
M  V30 37 H 4.985719 1.765568 0.607438 0
M  V30 38 H 2.157409 5.641958 1.657809 0
M  V30 39 H -2.204824 4.124305 1.824101 0
M  V30 40 H -1.014549 -0.804349 -0.866488 0
M  V30 41 H -2.075191 -2.905879 -1.363462 0
M  V30 42 H -4.052962 -4.673529 -0.466856 0
M  V30 43 H -5.716624 -4.726891 1.502399 0
M  V30 44 H -5.364235 -2.482561 2.977930 0
M  V30 45 H -3.488267 -0.263027 2.587656 0
M  V30 46 H 0.355041 0.023534 0.758520 0
M  V30 47 H 2.583084 0.281184 -1.571774 0
M  V30 48 H 2.650441 -2.078965 -2.190323 0
M  V30 END ATOM
M  V30 BEGIN BOND
M  V30 1 3 1 2
M  V30 2 1 2 3
M  V30 3 1 3 4
M  V30 4 2 4 5
M  V30 5 1 5 6
M  V30 6 2 6 7
M  V30 7 1 7 8
M  V30 8 1 8 9
M  V30 9 2 9 10
M  V30 10 1 10 11
M  V30 11 2 11 12
M  V30 12 1 12 13
M  V30 13 2 13 14
M  V30 14 1 14 15
M  V30 15 2 15 16
M  V30 16 1 16 17
M  V30 17 1 16 18
M  V30 18 1 18 19
M  V30 19 2 19 20
M  V30 20 1 20 21
M  V30 21 2 21 22
M  V30 22 1 22 23
M  V30 23 1 23 24
M  V30 24 2 24 25
M  V30 25 1 25 26
M  V30 26 2 26 27
M  V30 27 2 18 28
M  V30 28 1 28 29
M  V30 29 2 29 30
M  V30 30 1 7 31
M  V30 31 2 31 32
M  V30 32 1 32 4
M  V30 33 1 30 8
M  V30 34 1 30 11
M  V30 35 1 29 14
M  V30 36 1 27 19
M  V30 37 1 26 22
M  V30 38 1 3 33
M  V30 39 1 3 34
M  V30 40 1 5 35
M  V30 41 1 6 36
M  V30 42 1 9 37
M  V30 43 1 12 38
M  V30 44 1 15 39
M  V30 45 1 20 40
M  V30 46 1 21 41
M  V30 47 1 23 42
M  V30 48 1 24 43
M  V30 49 1 25 44
M  V30 50 1 27 45
M  V30 51 1 28 46
M  V30 52 1 31 47
M  V30 53 1 32 48
M  V30 END BOND
M  V30 END CTAB
M  END
>  <Dataset>  (297) 
ChEMBL_Kinases

>  <Ligand_Instance>  (297) 
nan

>  <PDB_ID>  (297) 
nan

>  <Standardized_SMILES>  (297) 
N#CCc1ccc(-n2cnc3cnc4cc(F)c(-c5ccc6[nH]ccc6c5)cc4c32)cc1

>  <Name>  (297) 
nan

>  <Pocket>  (297) 
nan

>  <ATP_Site>  (297) 
nan

>  <Peripheral>  (297) 
nan

>  <Num_H_Atoms_ProtBoundConf>  (297) 
nan

>  <Num_Resolved_Atoms>  (297) 
nan

>  <Num_Not_Resolved_Atoms>  (297) 
nan

$$$$
CHEMBL5088069
     RDKit          3D

  0  0  0  0  0  0  0  0  0  0999 V3000
M  V30 BEGIN CTAB
M  V30 COUNTS 56 59 0 0 0
M  V30 BEGIN ATOM
M  V30 1 C 1.219200 -6.705382 1.752689 0
M  V30 2 C 1.465786 -5.404645 2.431632 0
M  V30 3 N 1.805174 -5.236463 3.737107 0
M  V30 4 N 1.944732 -3.946454 3.994584 0
M  V30 5 C 1.700211 -3.252541 2.867536 0
M  V30 6 N 1.700067 -1.921952 2.562471 0
M  V30 7 C 1.410080 -1.499565 1.317442 0
M  V30 8 C 1.413555 -0.074318 1.005200 0
M  V30 9 C 1.125219 0.385890 -0.242929 0
M  V30 10 C 1.131313 1.741700 -0.529105 0
M  V30 11 C 1.440462 2.648384 0.488661 0
M  V30 12 N 1.411688 3.990999 0.067352 0
M  V30 13 S 0.633506 5.193469 1.040777 0
M  V30 14 O 1.321561 5.171117 2.375285 0
M  V30 15 O 0.770475 6.543981 0.384807 0
M  V30 16 C -1.071256 4.817096 1.213267 0
M  V30 17 C -1.748983 4.579954 2.394669 0
M  V30 18 C -3.098917 4.296493 2.346031 0
M  V30 19 Cl -3.879340 4.009433 3.884578 0
M  V30 20 C -3.800881 4.238666 1.181792 0
M  V30 21 C -3.131784 4.473803 0.002507 0
M  V30 22 C -1.765146 4.764611 0.002948 0
M  V30 23 F -1.239025 4.971816 -1.208045 0
M  V30 24 C 1.729890 2.157541 1.748131 0
M  V30 25 C 1.721127 0.807151 2.022481 0
M  V30 26 N 1.112348 -2.373448 0.338401 0
M  V30 27 C 1.086796 -3.702951 0.541481 0
M  V30 28 O 0.802989 -4.717977 -0.350499 0
M  V30 29 C 0.475295 -4.468932 -1.703698 0
M  V30 30 C -0.773442 -3.610850 -1.757276 0
M  V30 31 C -1.877494 -4.354827 -1.082665 0
M  V30 32 O -3.034854 -3.580977 -1.122019 0
M  V30 33 C -1.076487 -3.309267 -3.209368 0
M  V30 34 O -1.275922 -4.542797 -3.847017 0
M  V30 35 C 1.388347 -4.141350 1.835946 0
M  V30 36 H 0.729513 -7.358933 2.528773 0
M  V30 37 H 0.439545 -6.623607 0.953466 0
M  V30 38 H 2.117605 -7.161021 1.315302 0
M  V30 39 H 2.202763 -3.531711 4.921486 0
M  V30 40 H 0.887865 -0.326456 -1.020658 0
M  V30 41 H 0.889460 2.036080 -1.555049 0
M  V30 42 H 1.858446 4.271373 -0.833422 0
M  V30 43 H -1.121465 4.644473 3.272308 0
M  V30 44 H -4.873240 4.009295 1.196472 0
M  V30 45 H -3.721464 4.420126 -0.910579 0
M  V30 46 H 1.960678 2.922822 2.487698 0
M  V30 47 H 1.961694 0.506154 3.044818 0
M  V30 48 H 0.322364 -5.420802 -2.235408 0
M  V30 49 H 1.315682 -3.958476 -2.237691 0
M  V30 50 H -0.617448 -2.638796 -1.266269 0
M  V30 51 H -1.545648 -4.518554 -0.024580 0
M  V30 52 H -2.003920 -5.365751 -1.514546 0
M  V30 53 H -2.847552 -2.629161 -1.258682 0
M  V30 54 H -0.197219 -2.857205 -3.712632 0
M  V30 55 H -1.956569 -2.643677 -3.312627 0
M  V30 56 H -2.213873 -4.529445 -4.200488 0
M  V30 END ATOM
M  V30 BEGIN BOND
M  V30 1 1 1 2
M  V30 2 2 2 3
M  V30 3 1 3 4
M  V30 4 1 4 5
M  V30 5 2 5 6
M  V30 6 1 6 7
M  V30 7 1 7 8
M  V30 8 2 8 9
M  V30 9 1 9 10
M  V30 10 2 10 11
M  V30 11 1 11 12
M  V30 12 1 12 13
M  V30 13 2 13 14
M  V30 14 2 13 15
M  V30 15 1 13 16
M  V30 16 2 16 17
M  V30 17 1 17 18
M  V30 18 1 18 19
M  V30 19 2 18 20
M  V30 20 1 20 21
M  V30 21 2 21 22
M  V30 22 1 22 23
M  V30 23 1 11 24
M  V30 24 2 24 25
M  V30 25 2 7 26
M  V30 26 1 26 27
M  V30 27 1 27 28
M  V30 28 1 28 29
M  V30 29 1 29 30
M  V30 30 1 30 31
M  V30 31 1 31 32
M  V30 32 1 30 33
M  V30 33 1 33 34
M  V30 34 2 27 35
M  V30 35 1 35 2
M  V30 36 1 35 5
M  V30 37 1 25 8
M  V30 38 1 22 16
M  V30 39 1 1 36
M  V30 40 1 1 37
M  V30 41 1 1 38
M  V30 42 1 4 39
M  V30 43 1 9 40
M  V30 44 1 10 41
M  V30 45 1 12 42
M  V30 46 1 17 43
M  V30 47 1 20 44
M  V30 48 1 21 45
M  V30 49 1 24 46
M  V30 50 1 25 47
M  V30 51 1 29 48
M  V30 52 1 29 49
M  V30 53 1 30 50
M  V30 54 1 31 51
M  V30 55 1 31 52
M  V30 56 1 32 53
M  V30 57 1 33 54
M  V30 58 1 33 55
M  V30 59 1 34 56
M  V30 END BOND
M  V30 END CTAB
M  END
>  <Dataset>  (298) 
ChEMBL_Kinases

>  <Ligand_Instance>  (298) 
nan

>  <PDB_ID>  (298) 
nan

>  <Standardized_SMILES>  (298) 
Cc1n[nH]c2nc(-c3ccc(NS(=O)(=O)c4cc(Cl)ccc4F)cc3)nc(OCC(CO)CO)c12

>  <Name>  (298) 
nan

>  <Pocket>  (298) 
nan

>  <ATP_Site>  (298) 
nan

>  <Peripheral>  (298) 
nan

>  <Num_H_Atoms_ProtBoundConf>  (298) 
nan

>  <Num_Resolved_Atoms>  (298) 
nan

>  <Num_Not_Resolved_Atoms>  (298) 
nan

$$$$
CHEMBL5088103
     RDKit          3D

  0  0  0  0  0  0  0  0  0  0999 V3000
M  V30 BEGIN CTAB
M  V30 COUNTS 70 74 0 0 0
M  V30 BEGIN ATOM
M  V30 1 C 4.409151 -3.336742 2.051376 0
M  V30 2 N 3.495336 -3.468909 0.927006 0
M  V30 3 C 2.170733 -3.703761 1.027839 0
M  V30 4 N 1.779386 -3.816313 2.372483 0
M  V30 5 C 1.428698 -2.880722 3.384460 0
M  V30 6 C 0.238814 -2.005631 3.073155 0
M  V30 7 C -1.028855 -2.744645 2.836432 0
M  V30 8 C -2.194283 -1.845422 2.554212 0
M  V30 9 C -2.010449 -0.988990 1.327566 0
M  V30 10 C -3.214035 -0.111436 1.095669 0
M  V30 11 N -3.114241 0.760743 -0.050642 0
M  V30 12 C -2.107901 1.742812 -0.241301 0
M  V30 13 C -2.386783 2.978121 0.314851 0
M  V30 14 C -1.455998 4.016032 0.186801 0
M  V30 15 N -0.277978 3.828918 -0.479033 0
M  V30 16 C 0.026263 2.640930 -1.033916 0
M  V30 17 C 1.194246 2.397611 -1.725035 0
M  V30 18 C 1.465785 1.148550 -2.296254 0
M  V30 19 C 0.518197 0.141923 -2.150312 0
M  V30 20 C -0.634791 0.426961 -1.452348 0
M  V30 21 C -0.901793 1.638983 -0.895122 0
M  V30 22 C -1.749987 5.344564 0.792205 0
M  V30 23 C -2.106384 5.036778 2.250260 0
M  V30 24 C -3.152866 3.986888 2.379412 0
M  V30 25 C -3.578861 3.396347 1.056180 0
M  V30 26 N 1.397045 -3.811102 -0.076829 0
M  V30 27 C 1.953705 -3.682838 -1.291027 0
M  V30 28 C 1.094824 -3.810985 -2.458695 0
M  V30 29 C -0.243265 -4.056956 -2.293695 0
M  V30 30 C -1.120398 -4.192612 -3.354331 0
M  V30 31 N -0.650935 -4.080214 -4.609186 0
M  V30 32 C 0.662976 -3.837254 -4.833643 0
M  V30 33 C 1.526334 -3.704537 -3.751002 0
M  V30 34 C 3.317585 -3.441087 -1.403703 0
M  V30 35 C 4.118710 -3.329114 -0.281452 0
M  V30 36 O 5.354100 -3.109674 -0.401146 0
M  V30 37 H 4.026738 -3.848073 2.966857 0
M  V30 38 H 5.435276 -3.662145 1.795164 0
M  V30 39 H 4.466787 -2.249616 2.282925 0
M  V30 40 H 1.801601 -4.872329 2.492776 0
M  V30 41 H 2.292504 -2.169926 3.495016 0
M  V30 42 H 1.265759 -3.325206 4.370543 0
M  V30 43 H 0.095734 -1.364481 3.967507 0
M  V30 44 H 0.455077 -1.349395 2.203147 0
M  V30 45 H -1.275454 -3.354084 3.736984 0
M  V30 46 H -0.964164 -3.469134 1.992471 0
M  V30 47 H -3.118572 -2.465208 2.478132 0
M  V30 48 H -2.334255 -1.196337 3.452394 0
M  V30 49 H -1.096298 -0.403923 1.435964 0
M  V30 50 H -1.882685 -1.709542 0.472535 0
M  V30 51 H -3.464959 0.463459 2.027435 0
M  V30 52 H -4.085246 -0.782616 0.919997 0
M  V30 53 H -3.782742 0.745103 -0.853254 0
M  V30 54 H 1.899303 3.222356 -1.806171 0
M  V30 55 H 2.406896 1.033023 -2.825431 0
M  V30 56 H 0.807100 -0.786899 -2.620673 0
M  V30 57 H -1.321700 -0.401870 -1.396644 0
M  V30 58 H -0.769840 5.904474 0.867579 0
M  V30 59 H -2.517304 5.920949 0.272382 0
M  V30 60 H -2.456797 5.951169 2.759021 0
M  V30 61 H -1.172529 4.715615 2.733414 0
M  V30 62 H -4.070060 4.359701 2.915195 0
M  V30 63 H -2.766587 3.152106 2.997847 0
M  V30 64 H -4.017929 4.264482 0.480118 0
M  V30 65 H -4.359811 2.649584 1.173907 0
M  V30 66 H -0.669192 -4.156064 -1.302155 0
M  V30 67 H -2.179019 -4.387116 -3.256134 0
M  V30 68 H 1.066928 -3.742493 -5.829601 0
M  V30 69 H 2.556621 -3.513868 -3.962888 0
M  V30 70 H 3.788504 -3.333234 -2.369091 0
M  V30 END ATOM
M  V30 BEGIN BOND
M  V30 1 1 1 2
M  V30 2 1 2 3
M  V30 3 1 3 4
M  V30 4 1 4 5
M  V30 5 1 5 6
M  V30 6 1 6 7
M  V30 7 1 7 8
M  V30 8 1 8 9
M  V30 9 1 9 10
M  V30 10 1 10 11
M  V30 11 1 11 12
M  V30 12 2 12 13
M  V30 13 1 13 14
M  V30 14 2 14 15
M  V30 15 1 15 16
M  V30 16 2 16 17
M  V30 17 1 17 18
M  V30 18 2 18 19
M  V30 19 1 19 20
M  V30 20 2 20 21
M  V30 21 1 14 22
M  V30 22 1 22 23
M  V30 23 1 23 24
M  V30 24 1 24 25
M  V30 25 2 3 26
M  V30 26 1 26 27
M  V30 27 1 27 28
M  V30 28 2 28 29
M  V30 29 1 29 30
M  V30 30 2 30 31
M  V30 31 1 31 32
M  V30 32 2 32 33
M  V30 33 2 27 34
M  V30 34 1 34 35
M  V30 35 2 35 36
M  V30 36 1 35 2
M  V30 37 1 21 12
M  V30 38 1 33 28
M  V30 39 1 25 13
M  V30 40 1 21 16
M  V30 41 1 1 37
M  V30 42 1 1 38
M  V30 43 1 1 39
M  V30 44 1 4 40
M  V30 45 1 5 41
M  V30 46 1 5 42
M  V30 47 1 6 43
M  V30 48 1 6 44
M  V30 49 1 7 45
M  V30 50 1 7 46
M  V30 51 1 8 47
M  V30 52 1 8 48
M  V30 53 1 9 49
M  V30 54 1 9 50
M  V30 55 1 10 51
M  V30 56 1 10 52
M  V30 57 1 11 53
M  V30 58 1 17 54
M  V30 59 1 18 55
M  V30 60 1 19 56
M  V30 61 1 20 57
M  V30 62 1 22 58
M  V30 63 1 22 59
M  V30 64 1 23 60
M  V30 65 1 23 61
M  V30 66 1 24 62
M  V30 67 1 24 63
M  V30 68 1 25 64
M  V30 69 1 25 65
M  V30 70 1 29 66
M  V30 71 1 30 67
M  V30 72 1 32 68
M  V30 73 1 33 69
M  V30 74 1 34 70
M  V30 END BOND
M  V30 END CTAB
M  END
>  <Dataset>  (299) 
ChEMBL_Kinases

>  <Ligand_Instance>  (299) 
nan

>  <PDB_ID>  (299) 
nan

>  <Standardized_SMILES>  (299) 
Cn1c(NCCCCCCNc2c3c(nc4ccccc24)CCCC3)nc(-c2ccncc2)cc1=O

>  <Name>  (299) 
nan

>  <Pocket>  (299) 
nan

>  <ATP_Site>  (299) 
nan

>  <Peripheral>  (299) 
nan

>  <Num_H_Atoms_ProtBoundConf>  (299) 
nan

>  <Num_Resolved_Atoms>  (299) 
nan

>  <Num_Not_Resolved_Atoms>  (299) 
nan

$$$$
CHEMBL5088157
     RDKit          3D

  0  0  0  0  0  0  0  0  0  0999 V3000
M  V30 BEGIN CTAB
M  V30 COUNTS 66 71 0 0 0
M  V30 BEGIN ATOM
M  V30 1 C 4.135856 -2.278209 1.547284 0
M  V30 2 O 3.549670 -2.080840 2.824225 0
M  V30 3 C 3.044182 -0.882667 3.258214 0
M  V30 4 C 2.518902 -0.930977 4.549640 0
M  V30 5 C 1.971461 0.196273 5.130263 0
M  V30 6 C 1.966123 1.359669 4.386585 0
M  V30 7 C 2.478973 1.434106 3.107687 0
M  V30 8 C 2.464242 2.669352 2.339118 0
M  V30 9 N 3.126660 3.722786 2.787265 0
M  V30 10 C 2.945082 4.738329 1.877121 0
M  V30 11 S 3.312101 6.475711 1.429352 0
M  V30 12 C 2.358260 6.426508 -0.101831 0
M  V30 13 C 1.866026 5.145020 -0.133985 0
M  V30 14 N 2.168840 4.311407 0.864484 0
M  V30 15 C 1.871284 3.032407 1.149761 0
M  V30 16 C 1.071826 2.035160 0.445525 0
M  V30 17 C -0.050241 1.543417 1.076664 0
M  V30 18 C -0.757228 0.606644 0.355699 0
M  V30 19 N -0.407370 0.185506 -0.865864 0
M  V30 20 C 0.688405 0.673607 -1.468242 0
M  V30 21 N 1.096040 0.252905 -2.765545 0
M  V30 22 C 0.440490 -0.735039 -3.559260 0
M  V30 23 C 0.423003 -2.119483 -3.023574 0
M  V30 24 N -0.204638 -2.328421 -1.770625 0
M  V30 25 C 0.306038 -3.360029 -0.946738 0
M  V30 26 C -0.742737 -3.981052 -0.124815 0
M  V30 27 N -1.982188 -3.292239 -0.210193 0
M  V30 28 C -3.074629 -4.189626 -0.003159 0
M  V30 29 C -4.317218 -3.473342 0.413001 0
M  V30 30 C -4.673250 -3.209239 1.714891 0
M  V30 31 C -5.841203 -2.542375 1.956169 0
M  V30 32 C -6.682917 -2.121298 0.927044 0
M  V30 33 C -6.306128 -2.397149 -0.376494 0
M  V30 34 C -5.125984 -3.071483 -0.629895 0
M  V30 35 S -1.887106 -2.706100 -1.856100 0
M  V30 36 O -2.140216 -3.877765 -2.763174 0
M  V30 37 O -2.756952 -1.542662 -2.106766 0
M  V30 38 N 1.373248 1.576154 -0.778601 0
M  V30 39 C 3.024927 0.298689 2.536294 0
M  V30 40 H 5.113941 -1.737553 1.570127 0
M  V30 41 H 3.480505 -1.954510 0.721584 0
M  V30 42 H 4.412831 -3.353550 1.484581 0
M  V30 43 H 2.505551 -1.830458 5.165645 0
M  V30 44 H 1.542023 0.250698 6.125006 0
M  V30 45 H 1.552821 2.290810 4.771451 0
M  V30 46 H 2.304387 7.287934 -0.709976 0
M  V30 47 H 1.263527 4.963934 -1.010532 0
M  V30 48 H -0.354782 1.862985 2.056180 0
M  V30 49 H -1.656565 0.176757 0.797233 0
M  V30 50 H 1.967472 0.736560 -3.145922 0
M  V30 51 H -0.568939 -0.355670 -3.834527 0
M  V30 52 H 0.975793 -0.787405 -4.550634 0
M  V30 53 H -0.119749 -2.756071 -3.781295 0
M  V30 54 H 1.464053 -2.502175 -2.947353 0
M  V30 55 H 0.743393 -4.152747 -1.623239 0
M  V30 56 H 1.194903 -3.015803 -0.362752 0
M  V30 57 H -0.919953 -5.052221 -0.384749 0
M  V30 58 H -0.350753 -4.029805 0.933743 0
M  V30 59 H -2.792967 -4.815706 0.893875 0
M  V30 60 H -3.228531 -4.884738 -0.838779 0
M  V30 61 H -4.000973 -3.547093 2.499508 0
M  V30 62 H -6.131407 -2.328912 2.975416 0
M  V30 63 H -7.606806 -1.590770 1.180993 0
M  V30 64 H -6.991396 -2.050595 -1.120229 0
M  V30 65 H -4.943127 -3.226163 -1.678047 0
M  V30 66 H 3.449897 0.264309 1.538504 0
M  V30 END ATOM
M  V30 BEGIN BOND
M  V30 1 1 1 2
M  V30 2 1 2 3
M  V30 3 2 3 4
M  V30 4 1 4 5
M  V30 5 2 5 6
M  V30 6 1 6 7
M  V30 7 1 7 8
M  V30 8 1 8 9
M  V30 9 2 9 10
M  V30 10 1 10 11
M  V30 11 1 11 12
M  V30 12 2 12 13
M  V30 13 1 13 14
M  V30 14 1 14 15
M  V30 15 1 15 16
M  V30 16 2 16 17
M  V30 17 1 17 18
M  V30 18 2 18 19
M  V30 19 1 19 20
M  V30 20 1 20 21
M  V30 21 1 21 22
M  V30 22 1 22 23
M  V30 23 1 23 24
M  V30 24 1 24 25
M  V30 25 1 25 26
M  V30 26 1 26 27
M  V30 27 1 27 28
M  V30 28 1 28 29
M  V30 29 2 29 30
M  V30 30 1 30 31
M  V30 31 2 31 32
M  V30 32 1 32 33
M  V30 33 2 33 34
M  V30 34 1 27 35
M  V30 35 2 35 36
M  V30 36 2 35 37
M  V30 37 2 20 38
M  V30 38 2 7 39
M  V30 39 1 39 3
M  V30 40 2 15 8
M  V30 41 1 38 16
M  V30 42 1 14 10
M  V30 43 1 35 24
M  V30 44 1 34 29
M  V30 45 1 1 40
M  V30 46 1 1 41
M  V30 47 1 1 42
M  V30 48 1 4 43
M  V30 49 1 5 44
M  V30 50 1 6 45
M  V30 51 1 12 46
M  V30 52 1 13 47
M  V30 53 1 17 48
M  V30 54 1 18 49
M  V30 55 1 21 50
M  V30 56 1 22 51
M  V30 57 1 22 52
M  V30 58 1 23 53
M  V30 59 1 23 54
M  V30 60 1 25 55
M  V30 61 1 25 56
M  V30 62 1 26 57
M  V30 63 1 26 58
M  V30 64 1 28 59
M  V30 65 1 28 60
M  V30 66 1 30 61
M  V30 67 1 31 62
M  V30 68 1 32 63
M  V30 69 1 33 64
M  V30 70 1 34 65
M  V30 71 1 39 66
M  V30 END BOND
M  V30 END CTAB
M  END
>  <Dataset>  (300) 
ChEMBL_Kinases

>  <Ligand_Instance>  (300) 
nan

>  <PDB_ID>  (300) 
nan

>  <Standardized_SMILES>  (300) 
COc1cccc(-c2nc3sccn3c2-c2ccnc(NCCN3CCN(Cc4ccccc4)S3(=O)=O)n2)c1

>  <Name>  (300) 
nan

>  <Pocket>  (300) 
nan

>  <ATP_Site>  (300) 
nan

>  <Peripheral>  (300) 
nan

>  <Num_H_Atoms_ProtBoundConf>  (300) 
nan

>  <Num_Resolved_Atoms>  (300) 
nan

>  <Num_Not_Resolved_Atoms>  (300) 
nan

$$$$
CHEMBL5087601
     RDKit          3D

  0  0  0  0  0  0  0  0  0  0999 V3000
M  V30 BEGIN CTAB
M  V30 COUNTS 53 56 0 0 0
M  V30 BEGIN ATOM
M  V30 1 C 5.659095 -3.537333 2.851748 0
M  V30 2 O 5.587313 -2.144529 2.745985 0
M  V30 3 C 5.510903 -1.280558 3.778805 0
M  V30 4 O 5.583859 -2.105569 2.792858 0
M  V30 5 C 5.429071 0.191119 3.477059 0
M  V30 6 N 5.001079 0.396079 2.130330 0
M  V30 7 C 4.616186 0.580834 0.792460 0
M  V30 8 O 5.670589 0.150332 0.214091 0
M  V30 9 C 3.407806 1.092847 0.160273 0
M  V30 10 C 3.461777 1.491026 -1.145554 0
M  V30 11 C 2.234423 1.829603 -1.662442 0
M  V30 12 C 1.013209 1.812912 -1.039888 0
M  V30 13 C 1.093307 1.399949 0.267774 0
M  V30 14 C 2.270363 1.019675 0.943410 0
M  V30 15 C -0.075481 1.233131 1.189381 0
M  V30 16 O 0.163509 1.544064 2.414198 0
M  V30 17 C -1.418383 0.740074 0.730595 0
M  V30 18 C -2.057297 0.314248 1.902451 0
M  V30 19 C -3.309062 -0.241195 1.636804 0
M  V30 20 C -3.802302 -0.333588 0.350994 0
M  V30 21 N -5.081195 -0.972455 0.340439 0
M  V30 22 C -5.388707 -2.350311 0.039204 0
M  V30 23 C -6.239852 -2.755064 -1.009222 0
M  V30 24 C -6.393934 -4.147420 -1.076394 0
M  V30 25 C -5.847130 -5.082298 -0.295127 0
M  V30 26 F -6.116937 -6.409833 -0.519363 0
M  V30 27 C -5.003132 -4.692607 0.743489 0
M  V30 28 C -4.816670 -3.304307 0.854439 0
M  V30 29 F -3.969328 -3.075621 1.901367 0
M  V30 30 C -3.094080 0.117965 -0.741846 0
M  V30 31 C -1.836768 0.688821 -0.577932 0
M  V30 32 C -1.240313 1.117801 -1.832539 0
M  V30 33 C -0.190663 2.177145 -1.787387 0
M  V30 34 H 4.649386 -3.976348 2.660974 0
M  V30 35 H 5.986634 -3.933717 3.818308 0
M  V30 36 H 6.272036 -3.926197 1.991540 0
M  V30 37 H 6.502173 0.591766 3.532659 0
M  V30 38 H 4.876169 0.674522 4.230695 0
M  V30 39 H 4.072835 0.826710 2.501814 0
M  V30 40 H 4.425359 1.491160 -1.602515 0
M  V30 41 H 2.235336 2.157757 -2.716380 0
M  V30 42 H 2.159420 0.723440 1.967421 0
M  V30 43 H -1.606553 0.419656 2.873471 0
M  V30 44 H -3.814959 -0.551001 2.568222 0
M  V30 45 H -5.738348 -0.232821 0.596439 0
M  V30 46 H -6.667686 -1.997542 -1.630920 0
M  V30 47 H -7.053889 -4.501301 -1.888122 0
M  V30 48 H -4.589341 -5.459416 1.340090 0
M  V30 49 H -3.571288 0.004464 -1.703714 0
M  V30 50 H -0.810187 0.201534 -2.338780 0
M  V30 51 H -2.032080 1.483904 -2.496831 0
M  V30 52 H 0.097841 2.389473 -2.830460 0
M  V30 53 H -0.628046 3.135041 -1.376765 0
M  V30 END ATOM
M  V30 BEGIN BOND
M  V30 1 1 1 2
M  V30 2 1 2 3
M  V30 3 2 3 4
M  V30 4 1 3 5
M  V30 5 1 5 6
M  V30 6 1 6 7
M  V30 7 2 7 8
M  V30 8 1 7 9
M  V30 9 2 9 10
M  V30 10 1 10 11
M  V30 11 2 11 12
M  V30 12 1 12 13
M  V30 13 2 13 14
M  V30 14 1 13 15
M  V30 15 2 15 16
M  V30 16 1 15 17
M  V30 17 2 17 18
M  V30 18 1 18 19
M  V30 19 2 19 20
M  V30 20 1 20 21
M  V30 21 1 21 22
M  V30 22 2 22 23
M  V30 23 1 23 24
M  V30 24 2 24 25
M  V30 25 1 25 26
M  V30 26 1 25 27
M  V30 27 2 27 28
M  V30 28 1 28 29
M  V30 29 1 20 30
M  V30 30 2 30 31
M  V30 31 1 31 32
M  V30 32 1 32 33
M  V30 33 1 14 9
M  V30 34 1 31 17
M  V30 35 1 33 12
M  V30 36 1 28 22
M  V30 37 1 1 34
M  V30 38 1 1 35
M  V30 39 1 1 36
M  V30 40 1 5 37
M  V30 41 1 5 38
M  V30 42 1 6 39
M  V30 43 1 10 40
M  V30 44 1 11 41
M  V30 45 1 14 42
M  V30 46 1 18 43
M  V30 47 1 19 44
M  V30 48 1 21 45
M  V30 49 1 23 46
M  V30 50 1 24 47
M  V30 51 1 27 48
M  V30 52 1 30 49
M  V30 53 1 32 50
M  V30 54 1 32 51
M  V30 55 1 33 52
M  V30 56 1 33 53
M  V30 END BOND
M  V30 END CTAB
M  END
>  <Dataset>  (301) 
ChEMBL_Kinases

>  <Ligand_Instance>  (301) 
nan

>  <PDB_ID>  (301) 
nan

>  <Standardized_SMILES>  (301) 
COC(=O)CNC(=O)c1ccc2c(c1)C(=O)c1ccc(Nc3ccc(F)cc3F)cc1CC2

>  <Name>  (301) 
nan

>  <Pocket>  (301) 
nan

>  <ATP_Site>  (301) 
nan

>  <Peripheral>  (301) 
nan

>  <Num_H_Atoms_ProtBoundConf>  (301) 
nan

>  <Num_Resolved_Atoms>  (301) 
nan

>  <Num_Not_Resolved_Atoms>  (301) 
nan

$$$$
CHEMBL375985
     RDKit          3D

  0  0  0  0  0  0  0  0  0  0999 V3000
M  V30 BEGIN CTAB
M  V30 COUNTS 34 36 0 0 0
M  V30 BEGIN ATOM
M  V30 1 C -4.401590 -3.613109 -1.014995 0
M  V30 2 C -4.736126 -2.824375 0.222589 0
M  V30 3 O -3.941187 -1.665489 0.385106 0
M  V30 4 C -2.561770 -1.767260 0.498556 0
M  V30 5 C -1.736722 -2.872430 0.483159 0
M  V30 6 C -0.375464 -2.693665 0.617357 0
M  V30 7 C 0.193586 -1.445905 0.766956 0
M  V30 8 N 1.601610 -1.297818 0.902801 0
M  V30 9 C 2.187548 -0.027649 1.055639 0
M  V30 10 C 2.185418 0.561956 2.263860 0
M  V30 11 Cl 1.416596 -0.396563 3.503725 0
M  V30 12 C 2.792730 1.878077 2.421543 0
M  V30 13 O 2.722547 2.319622 3.610950 0
M  V30 14 C 3.401976 2.563281 1.287718 0
M  V30 15 N 4.001074 3.767950 1.252486 0
M  V30 16 N 4.395920 3.956927 -0.001489 0
M  V30 17 C 4.057967 2.896020 -0.757400 0
M  V30 18 C 3.402470 1.952063 0.042272 0
M  V30 19 C 2.788714 0.627592 -0.105596 0
M  V30 20 O 2.822449 0.130744 -1.256185 0
M  V30 21 C -0.625624 -0.330879 0.783660 0
M  V30 22 C -1.989899 -0.497571 0.650161 0
M  V30 23 H -4.160732 -4.677129 -0.826079 0
M  V30 24 H -3.556519 -3.181913 -1.584310 0
M  V30 25 H -5.272499 -3.645073 -1.726164 0
M  V30 26 H -5.811294 -2.540114 0.172143 0
M  V30 27 H -4.615825 -3.406495 1.157648 0
M  V30 28 H -2.280767 -3.780182 0.362966 0
M  V30 29 H 0.213498 -3.602753 0.596767 0
M  V30 30 H 2.200053 -2.136939 0.888652 0
M  V30 31 H 4.136858 4.434176 2.044466 0
M  V30 32 H 4.215016 2.693481 -1.821657 0
M  V30 33 H -0.141940 0.619118 0.902049 0
M  V30 34 H -2.529679 0.458820 0.678888 0
M  V30 END ATOM
M  V30 BEGIN BOND
M  V30 1 1 1 2
M  V30 2 1 2 3
M  V30 3 1 3 4
M  V30 4 2 4 5
M  V30 5 1 5 6
M  V30 6 2 6 7
M  V30 7 1 7 8
M  V30 8 1 8 9
M  V30 9 2 9 10
M  V30 10 1 10 11
M  V30 11 1 10 12
M  V30 12 2 12 13
M  V30 13 1 12 14
M  V30 14 1 14 15
M  V30 15 1 15 16
M  V30 16 2 16 17
M  V30 17 1 17 18
M  V30 18 1 18 19
M  V30 19 2 19 20
M  V30 20 1 7 21
M  V30 21 2 21 22
M  V30 22 1 22 4
M  V30 23 1 19 9
M  V30 24 2 18 14
M  V30 25 1 1 23
M  V30 26 1 1 24
M  V30 27 1 1 25
M  V30 28 1 2 26
M  V30 29 1 2 27
M  V30 30 1 5 28
M  V30 31 1 6 29
M  V30 32 1 8 30
M  V30 33 1 15 31
M  V30 34 1 17 32
M  V30 35 1 21 33
M  V30 36 1 22 34
M  V30 END BOND
M  V30 END CTAB
M  END
>  <Dataset>  (302) 
ChEMBL_Kinases

>  <Ligand_Instance>  (302) 
nan

>  <PDB_ID>  (302) 
nan

>  <Standardized_SMILES>  (302) 
CCOc1ccc(NC2=C(Cl)C(=O)c3[nH]ncc3C2=O)cc1

>  <Name>  (302) 
nan

>  <Pocket>  (302) 
nan

>  <ATP_Site>  (302) 
nan

>  <Peripheral>  (302) 
nan

>  <Num_H_Atoms_ProtBoundConf>  (302) 
nan

>  <Num_Resolved_Atoms>  (302) 
nan

>  <Num_Not_Resolved_Atoms>  (302) 
nan

$$$$
CHEMBL508541
     RDKit          3D

  0  0  0  0  0  0  0  0  0  0999 V3000
M  V30 BEGIN CTAB
M  V30 COUNTS 51 55 0 0 0
M  V30 BEGIN ATOM
M  V30 1 C 1.404444 -1.534305 3.589987 0
M  V30 2 N 1.858775 -0.620002 2.531802 0
M  V30 3 C 3.098771 -1.123458 2.006339 0
M  V30 4 C 3.701025 -0.302227 0.922366 0
M  V30 5 C 2.909450 -0.148381 -0.335537 0
M  V30 6 N 1.633857 0.434455 -0.090212 0
M  V30 7 C 1.320548 1.749161 0.006606 0
M  V30 8 C 2.231018 2.808362 -0.080751 0
M  V30 9 C 1.825085 4.118078 0.029260 0
M  V30 10 C 0.454426 4.319858 0.232415 0
M  V30 11 O 0.047422 5.662881 0.343885 0
M  V30 12 C -0.395967 3.240726 0.310437 0
M  V30 13 C -0.025308 1.954701 0.206397 0
M  V30 14 C -0.574044 0.707257 0.234439 0
M  V30 15 C -1.878616 0.345854 0.393590 0
M  V30 16 C -2.202701 -0.989209 0.372297 0
M  V30 17 C -1.234486 -1.975300 0.192939 0
M  V30 18 C -1.543597 -3.384388 0.161103 0
M  V30 19 C -1.815489 -3.816135 -1.143139 0
M  V30 20 C -2.137749 -5.125020 -1.439096 0
M  V30 21 C -2.185783 -6.022518 -0.381523 0
M  V30 22 C -1.924919 -5.633757 0.910023 0
M  V30 23 C -1.605641 -4.318185 1.173629 0
M  V30 24 Cl -1.247149 -3.650492 2.752240 0
M  V30 25 C 0.056295 -1.515984 0.041096 0
M  V30 26 C 0.439411 -0.187157 0.054484 0
M  V30 27 C -3.640707 -1.236758 0.555143 0
M  V30 28 O -4.246194 -2.337852 0.583412 0
M  V30 29 N -4.191806 0.072715 0.693864 0
M  V30 30 C -3.130246 1.005534 0.595558 0
M  V30 31 O -3.436295 2.200883 0.695582 0
M  V30 32 H 0.357403 -1.315614 3.839722 0
M  V30 33 H 1.509243 -2.559641 3.212554 0
M  V30 34 H 2.076145 -1.327175 4.466645 0
M  V30 35 H 1.976518 0.295295 3.018440 0
M  V30 36 H 2.975919 -2.192558 1.713215 0
M  V30 37 H 3.831153 -1.134262 2.863258 0
M  V30 38 H 4.748981 -0.661074 0.715903 0
M  V30 39 H 3.809292 0.743936 1.354736 0
M  V30 40 H 3.541118 0.449442 -1.032824 0
M  V30 41 H 2.799895 -1.169378 -0.766967 0
M  V30 42 H 3.279907 2.662418 -0.235907 0
M  V30 43 H 2.517833 4.927415 -0.037088 0
M  V30 44 H -0.410670 6.026109 -0.504395 0
M  V30 45 H -1.393251 3.546821 0.464672 0
M  V30 46 H -1.803923 -3.188266 -2.043650 0
M  V30 47 H -2.352099 -5.493332 -2.423363 0
M  V30 48 H -2.427570 -7.063319 -0.510933 0
M  V30 49 H -1.948201 -6.291535 1.771688 0
M  V30 50 H 0.825036 -2.266467 -0.099577 0
M  V30 51 H -5.228857 0.185145 0.839897 0
M  V30 END ATOM
M  V30 BEGIN BOND
M  V30 1 1 1 2
M  V30 2 1 2 3
M  V30 3 1 3 4
M  V30 4 1 4 5
M  V30 5 1 5 6
M  V30 6 1 6 7
M  V30 7 2 7 8
M  V30 8 1 8 9
M  V30 9 2 9 10
M  V30 10 1 10 11
M  V30 11 1 10 12
M  V30 12 2 12 13
M  V30 13 1 13 14
M  V30 14 2 14 15
M  V30 15 1 15 16
M  V30 16 2 16 17
M  V30 17 1 17 18
M  V30 18 2 18 19
M  V30 19 1 19 20
M  V30 20 2 20 21
M  V30 21 1 21 22
M  V30 22 2 22 23
M  V30 23 1 23 24
M  V30 24 1 17 25
M  V30 25 2 25 26
M  V30 26 1 16 27
M  V30 27 2 27 28
M  V30 28 1 27 29
M  V30 29 1 29 30
M  V30 30 2 30 31
M  V30 31 1 26 6
M  V30 32 1 13 7
M  V30 33 1 26 14
M  V30 34 1 30 15
M  V30 35 1 23 18
M  V30 36 1 1 32
M  V30 37 1 1 33
M  V30 38 1 1 34
M  V30 39 1 2 35
M  V30 40 1 3 36
M  V30 41 1 3 37
M  V30 42 1 4 38
M  V30 43 1 4 39
M  V30 44 1 5 40
M  V30 45 1 5 41
M  V30 46 1 8 42
M  V30 47 1 9 43
M  V30 48 1 11 44
M  V30 49 1 12 45
M  V30 50 1 19 46
M  V30 51 1 20 47
M  V30 52 1 21 48
M  V30 53 1 22 49
M  V30 54 1 25 50
M  V30 55 1 29 51
M  V30 END BOND
M  V30 END CTAB
M  END
>  <Dataset>  (303) 
ChEMBL_Kinases

>  <Ligand_Instance>  (303) 
nan

>  <PDB_ID>  (303) 
nan

>  <Standardized_SMILES>  (303) 
CNCCCn1c2ccc(O)cc2c2c3c(c(-c4ccccc4Cl)cc21)C(=O)NC3=O

>  <Name>  (303) 
nan

>  <Pocket>  (303) 
nan

>  <ATP_Site>  (303) 
nan

>  <Peripheral>  (303) 
nan

>  <Num_H_Atoms_ProtBoundConf>  (303) 
nan

>  <Num_Resolved_Atoms>  (303) 
nan

>  <Num_Not_Resolved_Atoms>  (303) 
nan

$$$$
CHEMBL375978
     RDKit          3D

  0  0  0  0  0  0  0  0  0  0999 V3000
M  V30 BEGIN CTAB
M  V30 COUNTS 40 43 0 0 0
M  V30 BEGIN ATOM
M  V30 1 N 1.567619 -3.738029 0.022379 0
M  V30 2 C 2.922228 -3.326550 -0.096339 0
M  V30 3 C 3.812410 -4.157468 0.540532 0
M  V30 4 C 5.170775 -3.853399 0.491232 0
M  V30 5 C 5.612771 -2.746951 -0.179269 0
M  V30 6 C 4.708107 -1.917202 -0.816964 0
M  V30 7 C 3.338270 -2.202383 -0.781165 0
M  V30 8 N 2.357518 -1.391795 -1.415450 0
M  V30 9 C 1.224925 -0.655461 -0.971061 0
M  V30 10 C 0.483814 0.020649 -1.917870 0
M  V30 11 C -0.597590 0.711651 -1.412861 0
M  V30 12 C -0.969825 0.768755 -0.085233 0
M  V30 13 C -0.177431 0.065657 0.800864 0
M  V30 14 C 0.923485 -0.651672 0.375242 0
M  V30 15 O -0.408580 0.015645 2.170955 0
M  V30 16 C -0.973504 0.913273 3.099335 0
M  V30 17 C -2.297765 1.438331 2.711347 0
M  V30 18 C -3.091593 1.651853 3.820845 0
M  V30 19 C -4.387613 2.149553 3.655095 0
M  V30 20 C -4.895806 2.435503 2.386285 0
M  V30 21 C -4.092843 2.218850 1.273137 0
M  V30 22 C -2.814320 1.726498 1.454786 0
M  V30 23 C -2.162360 1.580687 0.152329 0
M  V30 24 O -2.632744 2.178052 -0.844098 0
M  V30 25 H 0.866971 -3.675736 0.803588 0
M  V30 26 H 1.361700 -4.166512 -0.916976 0
M  V30 27 H 3.546519 -5.048129 1.090090 0
M  V30 28 H 5.890772 -4.509692 0.996084 0
M  V30 29 H 6.650734 -2.520631 -0.213047 0
M  V30 30 H 5.011810 -1.015882 -1.369309 0
M  V30 31 H 2.644461 -1.427826 -2.414731 0
M  V30 32 H 0.723766 0.014890 -2.971900 0
M  V30 33 H -1.217564 1.263341 -2.116054 0
M  V30 34 H 1.488101 -1.172440 1.135441 0
M  V30 35 H -0.267219 1.776663 3.272814 0
M  V30 36 H -1.019141 0.391130 4.078684 0
M  V30 37 H -2.702430 1.431289 4.813661 0
M  V30 38 H -5.030647 2.326533 4.500234 0
M  V30 39 H -5.909364 2.821342 2.301382 0
M  V30 40 H -4.454940 2.429166 0.281813 0
M  V30 END ATOM
M  V30 BEGIN BOND
M  V30 1 1 1 2
M  V30 2 2 2 3
M  V30 3 1 3 4
M  V30 4 2 4 5
M  V30 5 1 5 6
M  V30 6 2 6 7
M  V30 7 1 7 8
M  V30 8 1 8 9
M  V30 9 2 9 10
M  V30 10 1 10 11
M  V30 11 2 11 12
M  V30 12 1 12 13
M  V30 13 2 13 14
M  V30 14 1 13 15
M  V30 15 1 15 16
M  V30 16 1 16 17
M  V30 17 2 17 18
M  V30 18 1 18 19
M  V30 19 2 19 20
M  V30 20 1 20 21
M  V30 21 2 21 22
M  V30 22 1 22 23
M  V30 23 2 23 24
M  V30 24 1 7 2
M  V30 25 1 14 9
M  V30 26 1 22 17
M  V30 27 1 23 12
M  V30 28 1 1 25
M  V30 29 1 1 26
M  V30 30 1 3 27
M  V30 31 1 4 28
M  V30 32 1 5 29
M  V30 33 1 6 30
M  V30 34 1 8 31
M  V30 35 1 10 32
M  V30 36 1 11 33
M  V30 37 1 14 34
M  V30 38 1 16 35
M  V30 39 1 16 36
M  V30 40 1 18 37
M  V30 41 1 19 38
M  V30 42 1 20 39
M  V30 43 1 21 40
M  V30 END BOND
M  V30 END CTAB
M  END
>  <Dataset>  (304) 
ChEMBL_Kinases

>  <Ligand_Instance>  (304) 
nan

>  <PDB_ID>  (304) 
nan

>  <Standardized_SMILES>  (304) 
Nc1ccccc1Nc1ccc2c(c1)OCc1ccccc1C2=O

>  <Name>  (304) 
nan

>  <Pocket>  (304) 
nan

>  <ATP_Site>  (304) 
nan

>  <Peripheral>  (304) 
nan

>  <Num_H_Atoms_ProtBoundConf>  (304) 
nan

>  <Num_Resolved_Atoms>  (304) 
nan

>  <Num_Not_Resolved_Atoms>  (304) 
nan

$$$$
CHEMBL5085427
     RDKit          3D

  0  0  0  0  0  0  0  0  0  0999 V3000
M  V30 BEGIN CTAB
M  V30 COUNTS 65 69 0 0 0
M  V30 BEGIN ATOM
M  V30 1 O 2.969099 0.470785 0.893341 0
M  V30 2 C 2.133745 1.154444 1.539098 0
M  V30 3 N 2.679339 2.364446 2.039443 0
M  V30 4 C 4.024491 2.796859 1.853338 0 CFG=2
M  V30 5 C 4.853477 2.974296 3.079210 0 CFG=1
M  V30 6 O 4.888335 1.800271 3.843337 0
M  V30 7 C 6.276408 3.233479 2.622256 0 CFG=2
M  V30 8 O 7.016261 3.764372 3.678675 0
M  V30 9 C 6.365110 4.069596 1.392733 0 CFG=1
M  V30 10 C 7.013293 3.313468 0.240048 0
M  V30 11 O 7.376456 4.176231 -0.792574 0
M  V30 12 O 5.229927 4.734436 1.016609 0
M  V30 13 C 4.048135 4.068929 1.074522 0 CFG=1
M  V30 14 O 3.485839 3.782485 -0.186938 0
M  V30 15 C 0.747189 0.744198 1.750837 0
M  V30 16 C -0.200932 1.473809 2.462806 0
M  V30 17 C -1.491545 1.001358 2.608975 0
M  V30 18 C -1.897657 -0.207461 2.059654 0
M  V30 19 C -0.932212 -0.928623 1.346883 0
M  V30 20 C 0.369373 -0.462813 1.193538 0
M  V30 21 C -1.123488 -2.219407 0.682476 0
M  V30 22 O -0.076137 -2.893682 0.471797 0
M  V30 23 C -2.434572 -2.756668 0.259531 0
M  V30 24 C -2.265143 -3.953868 -0.372939 0
M  V30 25 C -3.388659 -4.592797 -0.832530 0
M  V30 26 C -4.669471 -4.144307 -0.718656 0
M  V30 27 N -5.842788 -4.761157 -1.204629 0
M  V30 28 C -6.135201 -5.521737 -2.356902 0
M  V30 29 C -5.276438 -5.829585 -3.384112 0
M  V30 30 C -5.592098 -6.587221 -4.488026 0
M  V30 31 C -6.873607 -7.085244 -4.584928 0
M  V30 32 F -7.271048 -7.844136 -5.642916 0
M  V30 33 C -7.760102 -6.806465 -3.591921 0
M  V30 34 C -7.398890 -6.044424 -2.506750 0
M  V30 35 F -8.376870 -5.827848 -1.565884 0
M  V30 36 C -4.747908 -2.920142 -0.061910 0
M  V30 37 C -3.684039 -2.202373 0.434685 0
M  V30 38 C -4.084505 -0.931125 1.083677 0
M  V30 39 C -3.298214 -0.576415 2.299213 0
M  V30 40 H 2.054864 3.015914 2.600239 0
M  V30 41 H 4.535806 1.990168 1.248271 0
M  V30 42 H 4.554905 3.862737 3.646659 0
M  V30 43 H 5.544644 1.204705 3.400530 0
M  V30 44 H 6.786768 2.254781 2.396336 0
M  V30 45 H 7.933229 3.424029 3.708358 0
M  V30 46 H 7.109675 4.891307 1.619552 0
M  V30 47 H 7.964001 2.875243 0.621850 0
M  V30 48 H 6.337499 2.569368 -0.227965 0
M  V30 49 H 6.665240 4.299068 -1.469974 0
M  V30 50 H 3.294951 4.760598 1.554721 0
M  V30 51 H 4.074155 4.223486 -0.841169 0
M  V30 52 H 0.123013 2.414193 2.887616 0
M  V30 53 H -2.220243 1.576480 3.164270 0
M  V30 54 H 1.063363 -1.069201 0.631787 0
M  V30 55 H -1.275557 -4.361061 -0.494450 0
M  V30 56 H -3.199774 -5.541203 -1.310985 0
M  V30 57 H -6.647870 -4.597928 -0.531349 0
M  V30 58 H -4.275837 -5.455098 -3.356367 0
M  V30 59 H -4.872438 -6.793070 -5.259358 0
M  V30 60 H -8.762300 -7.200123 -3.675227 0
M  V30 61 H -5.723949 -2.447961 0.096343 0
M  V30 62 H -5.135121 -1.081304 1.411804 0
M  V30 63 H -4.123192 -0.089563 0.353101 0
M  V30 64 H -3.347147 -1.430229 3.008811 0
M  V30 65 H -3.794705 0.270895 2.786315 0
M  V30 END ATOM
M  V30 BEGIN BOND
M  V30 1 2 1 2
M  V30 2 1 2 3
M  V30 3 1 3 4
M  V30 4 1 4 5
M  V30 5 1 5 6
M  V30 6 1 5 7
M  V30 7 1 7 8
M  V30 8 1 7 9
M  V30 9 1 9 10
M  V30 10 1 10 11
M  V30 11 1 9 12
M  V30 12 1 12 13
M  V30 13 1 13 14
M  V30 14 1 2 15
M  V30 15 2 15 16
M  V30 16 1 16 17
M  V30 17 2 17 18
M  V30 18 1 18 19
M  V30 19 2 19 20
M  V30 20 1 19 21
M  V30 21 2 21 22
M  V30 22 1 21 23
M  V30 23 2 23 24
M  V30 24 1 24 25
M  V30 25 2 25 26
M  V30 26 1 26 27
M  V30 27 1 27 28
M  V30 28 2 28 29
M  V30 29 1 29 30
M  V30 30 2 30 31
M  V30 31 1 31 32
M  V30 32 1 31 33
M  V30 33 2 33 34
M  V30 34 1 34 35
M  V30 35 1 26 36
M  V30 36 2 36 37
M  V30 37 1 37 38
M  V30 38 1 38 39
M  V30 39 1 13 4
M  V30 40 1 20 15
M  V30 41 1 37 23
M  V30 42 1 39 18
M  V30 43 1 34 28
M  V30 44 1 3 40
M  V30 45 1 4 41 CFG=3
M  V30 46 1 5 42 CFG=1
M  V30 47 1 6 43
M  V30 48 1 7 44 CFG=3
M  V30 49 1 8 45
M  V30 50 1 9 46 CFG=1
M  V30 51 1 10 47
M  V30 52 1 10 48
M  V30 53 1 11 49
M  V30 54 1 13 50 CFG=1
M  V30 55 1 14 51
M  V30 56 1 16 52
M  V30 57 1 17 53
M  V30 58 1 20 54
M  V30 59 1 24 55
M  V30 60 1 25 56
M  V30 61 1 27 57
M  V30 62 1 29 58
M  V30 63 1 30 59
M  V30 64 1 33 60
M  V30 65 1 36 61
M  V30 66 1 38 62
M  V30 67 1 38 63
M  V30 68 1 39 64
M  V30 69 1 39 65
M  V30 END BOND
M  V30 END CTAB
M  END
>  <Dataset>  (305) 
ChEMBL_Kinases

>  <Ligand_Instance>  (305) 
nan

>  <PDB_ID>  (305) 
nan

>  <Standardized_SMILES>  (305) 
O=C(N[C@@H]1[C@@H](O)[C@H](O)[C@@H](CO)O[C@H]1O)c1ccc2c(c1)C(=O)c1ccc(Nc3ccc(F)cc3F)cc1CC2

>  <Name>  (305) 
nan

>  <Pocket>  (305) 
nan

>  <ATP_Site>  (305) 
nan

>  <Peripheral>  (305) 
nan

>  <Num_H_Atoms_ProtBoundConf>  (305) 
nan

>  <Num_Resolved_Atoms>  (305) 
nan

>  <Num_Not_Resolved_Atoms>  (305) 
nan

$$$$
CHEMBL5085476
     RDKit          3D

  0  0  0  0  0  0  0  0  0  0999 V3000
M  V30 BEGIN CTAB
M  V30 COUNTS 57 61 0 0 0
M  V30 BEGIN ATOM
M  V30 1 C 4.367208 -4.650173 -0.436012 0
M  V30 2 C 4.071089 -3.671519 0.662862 0
M  V30 3 N 4.665384 -3.579780 1.866130 0
M  V30 4 N 4.129411 -2.586733 2.564313 0
M  V30 5 C 3.167772 -2.014531 1.811914 0
M  V30 6 N 2.309171 -0.980816 2.006730 0
M  V30 7 C 1.425398 -0.593808 1.084916 0
M  V30 8 C 0.492868 0.515448 1.274343 0
M  V30 9 C 0.528779 1.200237 2.471194 0
M  V30 10 C -0.372512 2.252843 2.621853 0
M  V30 11 C -1.288334 2.653245 1.667386 0
M  V30 12 N -2.137525 3.737916 1.963613 0
M  V30 13 S -2.958846 3.917981 3.461526 0
M  V30 14 O -2.010654 4.067546 4.611037 0
M  V30 15 O -3.779861 5.182554 3.400030 0
M  V30 16 C -4.043648 2.572674 3.693984 0
M  V30 17 C -3.914262 1.718866 4.786913 0
M  V30 18 C -4.751656 0.634682 5.016596 0
M  V30 19 Cl -4.432479 -0.323072 6.443811 0
M  V30 20 C -5.747699 0.437251 4.083197 0
M  V30 21 C -5.874475 1.280989 3.004448 0
M  V30 22 C -5.039876 2.347924 2.790524 0
M  V30 23 F -5.238429 3.130252 1.696656 0
M  V30 24 C -1.303633 1.949292 0.475194 0
M  V30 25 C -0.421534 0.902688 0.300494 0
M  V30 26 N 1.366800 -1.241724 -0.092880 0
M  V30 27 C 2.195105 -2.290597 -0.366412 0
M  V30 28 O 2.164255 -2.983365 -1.569630 0
M  V30 29 C 1.301307 -2.696794 -2.623705 0
M  V30 30 C 2.110383 -2.193130 -3.791688 0
M  V30 31 C 1.311414 -2.230351 -5.076223 0
M  V30 32 N 1.031281 -3.645721 -5.313097 0
M  V30 33 C 0.068144 -4.074037 -4.349008 0
M  V30 34 C 0.445595 -3.873101 -2.920385 0
M  V30 35 F 0.970878 -5.058872 -2.388955 0
M  V30 36 F -0.757686 -3.698726 -2.221346 0
M  V30 37 C 3.102295 -2.675512 0.600364 0
M  V30 38 H 5.042530 -4.231283 -1.194782 0
M  V30 39 H 4.722148 -5.576520 0.043581 0
M  V30 40 H 3.361674 -4.889016 -0.879755 0
M  V30 41 H 4.363925 -2.256547 3.526417 0
M  V30 42 H 1.218122 0.932156 3.244953 0
M  V30 43 H -0.311048 2.768875 3.584500 0
M  V30 44 H -2.155769 4.375228 1.113981 0
M  V30 45 H -3.096524 1.944587 5.483043 0
M  V30 46 H -6.392042 -0.423976 4.289640 0
M  V30 47 H -6.698864 1.023262 2.336133 0
M  V30 48 H -2.002830 2.238404 -0.281003 0
M  V30 49 H -0.446554 0.359459 -0.642895 0
M  V30 50 H 0.667955 -1.821689 -2.300532 0
M  V30 51 H 3.018080 -2.792488 -3.956696 0
M  V30 52 H 2.408090 -1.152872 -3.568036 0
M  V30 53 H 1.933495 -1.794391 -5.873977 0
M  V30 54 H 0.351565 -1.669366 -4.993169 0
M  V30 55 H 1.914599 -4.171595 -5.330334 0
M  V30 56 H -0.913048 -3.633207 -4.617105 0
M  V30 57 H -0.074919 -5.182799 -4.503565 0
M  V30 END ATOM
M  V30 BEGIN BOND
M  V30 1 1 1 2
M  V30 2 2 2 3
M  V30 3 1 3 4
M  V30 4 1 4 5
M  V30 5 2 5 6
M  V30 6 1 6 7
M  V30 7 1 7 8
M  V30 8 2 8 9
M  V30 9 1 9 10
M  V30 10 2 10 11
M  V30 11 1 11 12
M  V30 12 1 12 13
M  V30 13 2 13 14
M  V30 14 2 13 15
M  V30 15 1 13 16
M  V30 16 2 16 17
M  V30 17 1 17 18
M  V30 18 1 18 19
M  V30 19 2 18 20
M  V30 20 1 20 21
M  V30 21 2 21 22
M  V30 22 1 22 23
M  V30 23 1 11 24
M  V30 24 2 24 25
M  V30 25 2 7 26
M  V30 26 1 26 27
M  V30 27 1 27 28
M  V30 28 1 28 29
M  V30 29 1 29 30
M  V30 30 1 30 31
M  V30 31 1 31 32
M  V30 32 1 32 33
M  V30 33 1 33 34
M  V30 34 1 34 35
M  V30 35 1 34 36
M  V30 36 2 27 37
M  V30 37 1 37 2
M  V30 38 1 37 5
M  V30 39 1 25 8
M  V30 40 1 34 29
M  V30 41 1 22 16
M  V30 42 1 1 38
M  V30 43 1 1 39
M  V30 44 1 1 40
M  V30 45 1 4 41
M  V30 46 1 9 42
M  V30 47 1 10 43
M  V30 48 1 12 44
M  V30 49 1 17 45
M  V30 50 1 20 46
M  V30 51 1 21 47
M  V30 52 1 24 48
M  V30 53 1 25 49
M  V30 54 1 29 50
M  V30 55 1 30 51
M  V30 56 1 30 52
M  V30 57 1 31 53
M  V30 58 1 31 54
M  V30 59 1 32 55
M  V30 60 1 33 56
M  V30 61 1 33 57
M  V30 END BOND
M  V30 END CTAB
M  END
>  <Dataset>  (306) 
ChEMBL_Kinases

>  <Ligand_Instance>  (306) 
nan

>  <PDB_ID>  (306) 
nan

>  <Standardized_SMILES>  (306) 
Cc1n[nH]c2nc(-c3ccc(NS(=O)(=O)c4cc(Cl)ccc4F)cc3)nc(OC3CCNCC3(F)F)c12

>  <Name>  (306) 
nan

>  <Pocket>  (306) 
nan

>  <ATP_Site>  (306) 
nan

>  <Peripheral>  (306) 
nan

>  <Num_H_Atoms_ProtBoundConf>  (306) 
nan

>  <Num_Resolved_Atoms>  (306) 
nan

>  <Num_Not_Resolved_Atoms>  (306) 
nan

$$$$
CHEMBL5085508
     RDKit          3D

  0  0  0  0  0  0  0  0  0  0999 V3000
M  V30 BEGIN CTAB
M  V30 COUNTS 55 59 0 0 0
M  V30 BEGIN ATOM
M  V30 1 C -0.147082 0.197693 3.773844 0
M  V30 2 C 1.232568 0.400962 3.283276 0
M  V30 3 C 2.371744 0.356375 4.062146 0
M  V30 4 N 3.578334 0.557209 3.504613 0
M  V30 5 C 3.764067 0.807419 2.196600 0
M  V30 6 N 5.065046 1.012220 1.660852 0
M  V30 7 C 5.325819 1.279897 0.290237 0
M  V30 8 C 4.438340 1.393794 -0.757968 0
M  V30 9 C 5.126981 1.661469 -1.929305 0
M  V30 10 N 6.417287 1.700823 -1.547729 0
M  V30 11 N 6.533651 1.478144 -0.252292 0
M  V30 12 C 7.817260 1.457814 0.458908 0
M  V30 13 N 2.639390 0.843733 1.470575 0
M  V30 14 C 1.392368 0.656075 1.935869 0
M  V30 15 N 0.363285 0.741420 0.981031 0
M  V30 16 C -0.782558 1.587694 0.840713 0
M  V30 17 C -1.835298 0.618151 0.384975 0
M  V30 18 C -3.198337 0.320967 0.307728 0
M  V30 19 N -3.282289 -0.864001 -0.321476 0
M  V30 20 C -4.502746 -1.588806 -0.636151 0
M  V30 21 C -5.566103 -1.435883 0.403538 0
M  V30 22 O -6.704125 -2.152284 0.042177 0
M  V30 23 C -4.253286 -3.026307 -0.862400 0
M  V30 24 C -3.958478 -3.503051 -2.144966 0
M  V30 25 C -3.713385 -4.830890 -2.437392 0
M  V30 26 C -3.761354 -5.735284 -1.412907 0
M  V30 27 C -4.043475 -5.334577 -0.139420 0
M  V30 28 Cl -4.105984 -6.499330 1.184185 0
M  V30 29 C -4.281227 -4.005212 0.109935 0
M  V30 30 N -2.072326 -1.310720 -0.633206 0
M  V30 31 C -1.140396 -0.432194 -0.218924 0
M  V30 32 C 0.333914 -0.167438 -0.165689 0
M  V30 33 H -0.090215 -0.297007 4.779484 0
M  V30 34 H -0.763569 -0.474401 3.172694 0
M  V30 35 H -0.652193 1.179940 4.004275 0
M  V30 36 H 2.246754 0.156397 5.118427 0
M  V30 37 H 5.869205 0.959672 2.328204 0
M  V30 38 H 3.374219 1.299495 -0.727937 0
M  V30 39 H 4.698587 1.803504 -2.920549 0
M  V30 40 H 8.595506 1.075313 -0.247338 0
M  V30 41 H 8.137779 2.479377 0.755052 0
M  V30 42 H 7.778676 0.767696 1.331035 0
M  V30 43 H -0.594710 2.231237 -0.055212 0
M  V30 44 H -1.078211 2.179299 1.691419 0
M  V30 45 H -3.992671 0.948251 0.691160 0
M  V30 46 H -4.921543 -1.191853 -1.597925 0
M  V30 47 H -5.185787 -1.802058 1.381897 0
M  V30 48 H -5.794083 -0.338819 0.487330 0
M  V30 49 H -6.719137 -3.032159 0.490660 0
M  V30 50 H -3.921481 -2.777483 -2.958388 0
M  V30 51 H -3.495543 -5.088903 -3.463414 0
M  V30 52 H -3.572937 -6.783787 -1.614700 0
M  V30 53 H -4.501188 -3.705286 1.113227 0
M  V30 54 H 0.905541 -1.096526 -0.002942 0
M  V30 55 H 0.570479 0.381283 -1.080588 0
M  V30 END ATOM
M  V30 BEGIN BOND
M  V30 1 1 1 2
M  V30 2 2 2 3
M  V30 3 1 3 4
M  V30 4 2 4 5
M  V30 5 1 5 6
M  V30 6 1 6 7
M  V30 7 2 7 8
M  V30 8 1 8 9
M  V30 9 2 9 10
M  V30 10 1 10 11
M  V30 11 1 11 12
M  V30 12 1 5 13
M  V30 13 2 13 14
M  V30 14 1 14 15
M  V30 15 1 15 16
M  V30 16 1 16 17
M  V30 17 2 17 18
M  V30 18 1 18 19
M  V30 19 1 19 20
M  V30 20 1 20 21
M  V30 21 1 21 22
M  V30 22 1 20 23
M  V30 23 2 23 24
M  V30 24 1 24 25
M  V30 25 2 25 26
M  V30 26 1 26 27
M  V30 27 1 27 28
M  V30 28 2 27 29
M  V30 29 1 19 30
M  V30 30 2 30 31
M  V30 31 1 31 32
M  V30 32 1 14 2
M  V30 33 1 32 15
M  V30 34 1 11 7
M  V30 35 1 31 17
M  V30 36 1 29 23
M  V30 37 1 1 33
M  V30 38 1 1 34
M  V30 39 1 1 35
M  V30 40 1 3 36
M  V30 41 1 6 37
M  V30 42 1 8 38
M  V30 43 1 9 39
M  V30 44 1 12 40
M  V30 45 1 12 41
M  V30 46 1 12 42
M  V30 47 1 16 43
M  V30 48 1 16 44
M  V30 49 1 18 45
M  V30 50 1 20 46
M  V30 51 1 21 47
M  V30 52 1 21 48
M  V30 53 1 22 49
M  V30 54 1 24 50
M  V30 55 1 25 51
M  V30 56 1 26 52
M  V30 57 1 29 53
M  V30 58 1 32 54
M  V30 59 1 32 55
M  V30 END BOND
M  V30 END CTAB
M  END
>  <Dataset>  (307) 
ChEMBL_Kinases

>  <Ligand_Instance>  (307) 
nan

>  <PDB_ID>  (307) 
nan

>  <Standardized_SMILES>  (307) 
Cc1cnc(Nc2ccnn2C)nc1N1Cc2cn(C(CO)c3cccc(Cl)c3)nc2C1

>  <Name>  (307) 
nan

>  <Pocket>  (307) 
nan

>  <ATP_Site>  (307) 
nan

>  <Peripheral>  (307) 
nan

>  <Num_H_Atoms_ProtBoundConf>  (307) 
nan

>  <Num_Resolved_Atoms>  (307) 
nan

>  <Num_Not_Resolved_Atoms>  (307) 
nan

$$$$
CHEMBL5085536
     RDKit          3D

  0  0  0  0  0  0  0  0  0  0999 V3000
M  V30 BEGIN CTAB
M  V30 COUNTS 54 59 0 0 0
M  V30 BEGIN ATOM
M  V30 1 Cl -0.994245 -4.781514 3.320129 0
M  V30 2 C -0.400166 -3.317148 2.577654 0
M  V30 3 C 0.871333 -2.987165 2.986995 0
M  V30 4 C 1.458069 -1.843915 2.466865 0
M  V30 5 C 2.743531 -1.506803 2.873640 0
M  V30 6 N 3.256149 -0.391899 2.334569 0
M  V30 7 C 2.557771 0.355852 1.448674 0
M  V30 8 N 3.279461 1.487019 0.994825 0
M  V30 9 C 2.762533 2.799252 0.810702 0
M  V30 10 C 1.485960 3.227938 1.096395 0
M  V30 11 N 1.374071 4.540642 0.826094 0
M  V30 12 N 2.564552 4.978736 0.365691 0
M  V30 13 C 2.732035 6.390514 0.016812 0
M  V30 14 C 3.396961 7.260128 1.039362 0
M  V30 15 C 1.909457 7.397311 0.788049 0
M  V30 16 C 3.393901 3.923584 0.359160 0
M  V30 17 Cl 5.044686 4.049842 -0.180187 0
M  V30 18 N 1.319124 -0.004800 1.081397 0
M  V30 19 C 0.712008 -1.114060 1.567685 0
M  V30 20 C -0.554951 -1.494784 1.196472 0
M  V30 21 C -1.161595 -2.606045 1.682718 0
M  V30 22 N -2.460431 -2.938691 1.245606 0
M  V30 23 C -3.357160 -4.028603 1.539329 0
M  V30 24 C -3.358455 -4.936254 0.311088 0
M  V30 25 N -2.724433 -4.272957 -0.777516 0
M  V30 26 C -2.688340 -5.048943 -1.987314 0
M  V30 27 C -1.942403 -6.331251 -1.873503 0
M  V30 28 O -0.773994 -5.685744 -2.292267 0
M  V30 29 C -1.509004 -4.644969 -2.854882 0
M  V30 30 C -3.168709 -2.919838 -1.016971 0
M  V30 31 C -3.165150 -2.113940 0.286684 0
M  V30 32 H 1.459261 -3.553977 3.688921 0
M  V30 33 H 3.288267 -2.123110 3.592851 0
M  V30 34 H 4.309935 1.379600 0.756798 0
M  V30 35 H 0.639776 2.675366 1.479093 0
M  V30 36 H 2.938740 6.591502 -1.039694 0
M  V30 37 H 3.682064 6.813596 2.020959 0
M  V30 38 H 4.082175 8.048904 0.693581 0
M  V30 39 H 1.221531 6.994710 1.570027 0
M  V30 40 H 1.549965 8.310386 0.270747 0
M  V30 41 H -0.951761 -0.792802 0.483459 0
M  V30 42 H -4.443208 -3.684703 1.600780 0
M  V30 43 H -3.171294 -4.582073 2.454283 0
M  V30 44 H -4.365730 -5.343793 0.085478 0
M  V30 45 H -2.683762 -5.782714 0.610480 0
M  V30 46 H -3.652121 -5.083567 -2.547436 0
M  V30 47 H -1.771836 -6.777872 -0.898336 0
M  V30 48 H -2.249006 -7.125995 -2.596178 0
M  V30 49 H -1.108562 -3.650673 -2.661074 0
M  V30 50 H -1.756669 -4.791218 -3.932519 0
M  V30 51 H -4.186781 -2.916015 -1.445592 0
M  V30 52 H -2.512113 -2.462216 -1.768191 0
M  V30 53 H -4.245535 -2.001388 0.613413 0
M  V30 54 H -2.784941 -1.106895 0.142894 0
M  V30 END ATOM
M  V30 BEGIN BOND
M  V30 1 1 1 2
M  V30 2 2 2 3
M  V30 3 1 3 4
M  V30 4 2 4 5
M  V30 5 1 5 6
M  V30 6 2 6 7
M  V30 7 1 7 8
M  V30 8 1 8 9
M  V30 9 1 9 10
M  V30 10 2 10 11
M  V30 11 1 11 12
M  V30 12 1 12 13
M  V30 13 1 13 14
M  V30 14 1 14 15
M  V30 15 1 12 16
M  V30 16 1 16 17
M  V30 17 1 7 18
M  V30 18 2 18 19
M  V30 19 1 19 20
M  V30 20 2 20 21
M  V30 21 1 21 22
M  V30 22 1 22 23
M  V30 23 1 23 24
M  V30 24 1 24 25
M  V30 25 1 25 26
M  V30 26 1 26 27
M  V30 27 1 27 28
M  V30 28 1 28 29
M  V30 29 1 25 30
M  V30 30 1 30 31
M  V30 31 1 21 2
M  V30 32 1 31 22
M  V30 33 1 19 4
M  V30 34 1 29 26
M  V30 35 2 16 9
M  V30 36 1 15 13
M  V30 37 1 3 32
M  V30 38 1 5 33
M  V30 39 1 8 34
M  V30 40 1 10 35
M  V30 41 1 13 36
M  V30 42 1 14 37
M  V30 43 1 14 38
M  V30 44 1 15 39
M  V30 45 1 15 40
M  V30 46 1 20 41
M  V30 47 1 23 42
M  V30 48 1 23 43
M  V30 49 1 24 44
M  V30 50 1 24 45
M  V30 51 1 26 46
M  V30 52 1 27 47
M  V30 53 1 27 48
M  V30 54 1 29 49
M  V30 55 1 29 50
M  V30 56 1 30 51
M  V30 57 1 30 52
M  V30 58 1 31 53
M  V30 59 1 31 54
M  V30 END BOND
M  V30 END CTAB
M  END
>  <Dataset>  (308) 
ChEMBL_Kinases

>  <Ligand_Instance>  (308) 
nan

>  <PDB_ID>  (308) 
nan

>  <Standardized_SMILES>  (308) 
Clc1cc2cnc(Nc3cnn(C4CC4)c3Cl)nc2cc1N1CCN(C2COC2)CC1

>  <Name>  (308) 
nan

>  <Pocket>  (308) 
nan

>  <ATP_Site>  (308) 
nan

>  <Peripheral>  (308) 
nan

>  <Num_H_Atoms_ProtBoundConf>  (308) 
nan

>  <Num_Resolved_Atoms>  (308) 
nan

>  <Num_Not_Resolved_Atoms>  (308) 
nan

$$$$
CHEMBL5085619
     RDKit          3D

  0  0  0  0  0  0  0  0  0  0999 V3000
M  V30 BEGIN CTAB
M  V30 COUNTS 35 37 0 0 0
M  V30 BEGIN ATOM
M  V30 1 C -0.334499 -3.051902 2.077984 0
M  V30 2 C 0.201627 -2.679305 0.691104 0
M  V30 3 N 0.028866 -1.273636 0.435458 0
M  V30 4 C 0.947311 -0.348176 0.753362 0
M  V30 5 C 2.255678 -0.354641 1.372591 0
M  V30 6 C 3.341315 -1.148323 1.122066 0
M  V30 7 C 4.516239 -1.014450 1.828296 0
M  V30 8 C 4.666883 -0.078290 2.823112 0
M  V30 9 N 3.627528 0.721808 3.102163 0
M  V30 10 C 2.469134 0.580419 2.396817 0
M  V30 11 C 0.378012 0.865507 0.344202 0
M  V30 12 C 0.929905 2.194229 0.443865 0
M  V30 13 N 1.381617 3.259294 0.513480 0
M  V30 14 C -0.863845 0.642349 -0.208026 0
M  V30 15 C -1.833115 1.468994 -0.757874 0
M  V30 16 N -1.626977 2.878629 -0.829090 0
M  V30 17 N -2.976357 0.896853 -1.222807 0
M  V30 18 C -3.163438 -0.436432 -1.151770 0
M  V30 19 C -4.414117 -1.070466 -1.659455 0
M  V30 20 N -2.202670 -1.222620 -0.610680 0
M  V30 21 C -1.054294 -0.717208 -0.135437 0
M  V30 22 H -0.359003 -4.145904 2.109312 0
M  V30 23 H 0.279274 -2.653055 2.891726 0
M  V30 24 H -1.343758 -2.605940 2.146697 0
M  V30 25 H -0.475420 -3.256645 -0.009047 0
M  V30 26 H 1.198256 -3.068869 0.493222 0
M  V30 27 H 3.222540 -1.870923 0.344364 0
M  V30 28 H 5.315282 -1.703193 1.541303 0
M  V30 29 H 5.633109 -0.066814 3.306888 0
M  V30 30 H 1.705618 1.292322 2.723941 0
M  V30 31 H -0.932933 3.514532 -1.248959 0
M  V30 32 H -2.403747 3.350548 -0.307322 0
M  V30 33 H -4.595155 -2.044315 -1.152447 0
M  V30 34 H -5.262025 -0.407554 -1.398077 0
M  V30 35 H -4.362678 -1.318276 -2.741668 0
M  V30 END ATOM
M  V30 BEGIN BOND
M  V30 1 1 1 2
M  V30 2 1 2 3
M  V30 3 1 3 4
M  V30 4 1 4 5
M  V30 5 2 5 6
M  V30 6 1 6 7
M  V30 7 2 7 8
M  V30 8 1 8 9
M  V30 9 2 9 10
M  V30 10 2 4 11
M  V30 11 1 11 12
M  V30 12 3 12 13
M  V30 13 1 11 14
M  V30 14 2 14 15
M  V30 15 1 15 16
M  V30 16 1 15 17
M  V30 17 2 17 18
M  V30 18 1 18 19
M  V30 19 1 18 20
M  V30 20 2 20 21
M  V30 21 1 21 3
M  V30 22 1 10 5
M  V30 23 1 21 14
M  V30 24 1 1 22
M  V30 25 1 1 23
M  V30 26 1 1 24
M  V30 27 1 2 25
M  V30 28 1 2 26
M  V30 29 1 6 27
M  V30 30 1 7 28
M  V30 31 1 8 29
M  V30 32 1 10 30
M  V30 33 1 16 31
M  V30 34 1 16 32
M  V30 35 1 19 33
M  V30 36 1 19 34
M  V30 37 1 19 35
M  V30 END BOND
M  V30 END CTAB
M  END
>  <Dataset>  (309) 
ChEMBL_Kinases

>  <Ligand_Instance>  (309) 
nan

>  <PDB_ID>  (309) 
nan

>  <Standardized_SMILES>  (309) 
CCn1c(-c2cccnc2)c(C#N)c2c(N)nc(C)nc21

>  <Name>  (309) 
nan

>  <Pocket>  (309) 
nan

>  <ATP_Site>  (309) 
nan

>  <Peripheral>  (309) 
nan

>  <Num_H_Atoms_ProtBoundConf>  (309) 
nan

>  <Num_Resolved_Atoms>  (309) 
nan

>  <Num_Not_Resolved_Atoms>  (309) 
nan

$$$$
CHEMBL375919
     RDKit          3D

  0  0  0  0  0  0  0  0  0  0999 V3000
M  V30 BEGIN CTAB
M  V30 COUNTS 49 52 0 0 0
M  V30 BEGIN ATOM
M  V30 1 C 0.833817 -2.705311 4.169438 0
M  V30 2 C 2.304820 -2.620249 3.964772 0
M  V30 3 N 3.292178 -3.094594 4.747277 0
M  V30 4 N 4.475432 -2.811885 4.211644 0
M  V30 5 C 4.267863 -2.143729 3.063123 0
M  V30 6 C 5.138308 -1.624665 2.129684 0
M  V30 7 C 4.630862 -0.974576 1.023522 0
M  V30 8 C 3.264875 -0.810194 0.792609 0
M  V30 9 C 2.771983 -0.114891 -0.393566 0
M  V30 10 C 3.429232 -0.137030 -1.606240 0
M  V30 11 N 2.861076 0.555329 -2.635650 0
M  V30 12 C 1.686932 1.229632 -2.429600 0
M  V30 13 C 0.999319 1.265097 -1.200505 0
M  V30 14 O -0.103638 2.037311 -1.432628 0
M  V30 15 C -1.111777 2.364525 -0.526357 0
M  V30 16 C -1.900595 1.220212 0.020323 0 CFG=1
M  V30 17 N -2.904902 1.728367 0.937731 0
M  V30 18 C -2.676618 0.564882 -1.113092 0
M  V30 19 C -3.482433 -0.578881 -0.642507 0
M  V30 20 C -4.781344 -0.380612 -0.217117 0
M  V30 21 C -5.647517 -1.369249 0.249685 0
M  V30 22 C -5.121068 -2.652836 0.273976 0
M  V30 23 F -5.968650 -3.612204 0.729143 0
M  V30 24 C -3.840132 -2.896951 -0.137624 0
M  V30 25 Cl -3.287593 -4.553490 -0.062194 0
M  V30 26 C -3.033466 -1.871412 -0.589512 0
M  V30 27 C 1.591615 0.561028 -0.179842 0
M  V30 28 C 2.436872 -1.348192 1.757115 0
M  V30 29 C 2.898539 -2.007503 2.880906 0
M  V30 30 H 0.326728 -3.006354 3.232394 0
M  V30 31 H 0.415536 -1.733106 4.472966 0
M  V30 32 H 0.577349 -3.453753 4.941877 0
M  V30 33 H 5.411821 -3.071414 4.624387 0
M  V30 34 H 6.204697 -1.709474 2.234289 0
M  V30 35 H 5.323522 -0.569681 0.295021 0
M  V30 36 H 4.344127 -0.697747 -1.658319 0
M  V30 37 H 1.470734 1.684700 -3.413074 0
M  V30 38 H -1.856795 2.998111 -1.100176 0
M  V30 39 H -0.742557 3.009409 0.307232 0
M  V30 40 H -1.299523 0.512689 0.579552 0
M  V30 41 H -2.701750 1.537248 1.929337 0
M  V30 42 H -3.140710 2.727551 0.743470 0
M  V30 43 H -1.953039 0.207134 -1.898171 0
M  V30 44 H -3.354845 1.342950 -1.523791 0
M  V30 45 H -5.157878 0.646343 -0.252205 0
M  V30 46 H -6.644880 -1.076841 0.553496 0
M  V30 47 H -2.030535 -2.093482 -0.906553 0
M  V30 48 H 1.009987 0.654551 0.698485 0
M  V30 49 H 1.366924 -1.234214 1.600864 0
M  V30 END ATOM
M  V30 BEGIN BOND
M  V30 1 1 1 2
M  V30 2 2 2 3
M  V30 3 1 3 4
M  V30 4 1 4 5
M  V30 5 2 5 6
M  V30 6 1 6 7
M  V30 7 2 7 8
M  V30 8 1 8 9
M  V30 9 2 9 10
M  V30 10 1 10 11
M  V30 11 2 11 12
M  V30 12 1 12 13
M  V30 13 1 13 14
M  V30 14 1 14 15
M  V30 15 1 15 16
M  V30 16 1 16 17
M  V30 17 1 16 18
M  V30 18 1 18 19
M  V30 19 2 19 20
M  V30 20 1 20 21
M  V30 21 2 21 22
M  V30 22 1 22 23
M  V30 23 1 22 24
M  V30 24 1 24 25
M  V30 25 2 24 26
M  V30 26 2 13 27
M  V30 27 1 8 28
M  V30 28 2 28 29
M  V30 29 1 29 2
M  V30 30 1 29 5
M  V30 31 1 27 9
M  V30 32 1 26 19
M  V30 33 1 1 30
M  V30 34 1 1 31
M  V30 35 1 1 32
M  V30 36 1 4 33
M  V30 37 1 6 34
M  V30 38 1 7 35
M  V30 39 1 10 36
M  V30 40 1 12 37
M  V30 41 1 15 38
M  V30 42 1 15 39
M  V30 43 1 16 40 CFG=1
M  V30 44 1 17 41
M  V30 45 1 17 42
M  V30 46 1 18 43
M  V30 47 1 18 44
M  V30 48 1 20 45
M  V30 49 1 21 46
M  V30 50 1 26 47
M  V30 51 1 27 48
M  V30 52 1 28 49
M  V30 END BOND
M  V30 END CTAB
M  END
>  <Dataset>  (310) 
ChEMBL_Kinases

>  <Ligand_Instance>  (310) 
nan

>  <PDB_ID>  (310) 
nan

>  <Standardized_SMILES>  (310) 
Cc1n[nH]c2ccc(-c3cncc(OC[C@@H](N)Cc4ccc(F)c(Cl)c4)c3)cc12

>  <Name>  (310) 
nan

>  <Pocket>  (310) 
nan

>  <ATP_Site>  (310) 
nan

>  <Peripheral>  (310) 
nan

>  <Num_H_Atoms_ProtBoundConf>  (310) 
nan

>  <Num_Resolved_Atoms>  (310) 
nan

>  <Num_Not_Resolved_Atoms>  (310) 
nan

$$$$
CHEMBL5085639
     RDKit          3D

  0  0  0  0  0  0  0  0  0  0999 V3000
M  V30 BEGIN CTAB
M  V30 COUNTS 59 62 0 0 0
M  V30 BEGIN ATOM
M  V30 1 C 2.564544 1.822843 4.768658 0
M  V30 2 C 1.959686 2.388831 3.542713 0
M  V30 3 C 2.817172 2.721104 2.391428 0 CFG=1
M  V30 4 C 3.586253 1.702105 1.672056 0
M  V30 5 C 4.617009 0.886790 2.374181 0
M  V30 6 F 5.246452 0.007485 1.436827 0
M  V30 7 F 5.640458 1.593946 2.948507 0
M  V30 8 F 4.098813 0.035655 3.354499 0
M  V30 9 N 2.078456 3.607937 1.487089 0
M  V30 10 C 2.508470 4.776979 0.934520 0
M  V30 11 N 1.553691 5.314915 0.154235 0
M  V30 12 N 0.505651 4.492615 0.202694 0
M  V30 13 C 0.828914 3.445707 1.020698 0
M  V30 14 C -0.132916 2.381116 1.263589 0
M  V30 15 C -1.194455 2.763721 2.087438 0
M  V30 16 C -2.210405 1.872556 2.420445 0
M  V30 17 C -2.098057 0.594478 1.885100 0
M  V30 18 C -1.046353 0.212694 1.067809 0
M  V30 19 N -0.938695 -1.105616 0.520847 0
M  V30 20 C -1.598504 -1.246350 -0.777030 0
M  V30 21 C -1.327856 -2.673991 -1.091821 0
M  V30 22 C -1.663180 -3.489468 -2.180315 0
M  V30 23 C -2.442803 -2.949868 -3.320238 0
M  V30 24 N -3.848348 -2.811477 -2.985184 0
M  V30 25 C -4.421916 -4.074439 -2.632826 0
M  V30 26 C -1.261366 -4.817177 -2.193013 0
M  V30 27 C -0.534737 -5.400796 -1.177161 0
M  V30 28 O -0.129750 -6.717164 -1.177065 0
M  V30 29 C -0.411037 -7.625354 -2.218022 0
M  V30 30 C -0.201804 -4.602137 -0.102424 0
M  V30 31 C -0.599341 -3.263639 -0.076046 0
M  V30 32 C -0.319834 -2.301617 0.988996 0
M  V30 33 O 0.280560 -2.346766 2.076733 0
M  V30 34 N -0.066821 1.110911 0.760979 0
M  V30 35 H 3.638118 2.035369 4.931521 0
M  V30 36 H 2.258333 0.771125 5.003594 0
M  V30 37 H 2.089827 2.384031 5.657109 0
M  V30 38 H 1.201405 1.610393 3.191808 0
M  V30 39 H 1.304773 3.272160 3.843584 0
M  V30 40 H 3.625048 3.424125 2.840103 0
M  V30 41 H 2.898070 0.949873 1.138378 0
M  V30 42 H 4.129443 2.134687 0.767172 0
M  V30 43 H 3.509003 5.191305 1.125170 0
M  V30 44 H -1.284664 3.762621 2.507537 0
M  V30 45 H -3.009475 2.183413 3.049308 0
M  V30 46 H -2.865362 -0.126997 2.119136 0
M  V30 47 H -2.681554 -1.107965 -0.568148 0
M  V30 48 H -1.223430 -0.540697 -1.534290 0
M  V30 49 H -2.393967 -3.662522 -4.157709 0
M  V30 50 H -2.007041 -1.992876 -3.646769 0
M  V30 51 H -4.040359 -2.086066 -2.283220 0
M  V30 52 H -5.481539 -4.157640 -2.962376 0
M  V30 53 H -4.436581 -4.249582 -1.524453 0
M  V30 54 H -3.880124 -4.942725 -3.067995 0
M  V30 55 H -1.511928 -5.451698 -3.019569 0
M  V30 56 H -1.418437 -8.092344 -2.124585 0
M  V30 57 H -0.281217 -7.131444 -3.213686 0
M  V30 58 H 0.322700 -8.460193 -2.200434 0
M  V30 59 H 0.369877 -5.037821 0.709468 0
M  V30 END ATOM
M  V30 BEGIN BOND
M  V30 1 1 1 2
M  V30 2 1 2 3
M  V30 3 1 3 4
M  V30 4 1 4 5
M  V30 5 1 5 6
M  V30 6 1 5 7
M  V30 7 1 5 8
M  V30 8 1 3 9
M  V30 9 1 9 10
M  V30 10 2 10 11
M  V30 11 1 11 12
M  V30 12 2 12 13
M  V30 13 1 13 14
M  V30 14 2 14 15
M  V30 15 1 15 16
M  V30 16 2 16 17
M  V30 17 1 17 18
M  V30 18 1 18 19
M  V30 19 1 19 20
M  V30 20 1 20 21
M  V30 21 2 21 22
M  V30 22 1 22 23
M  V30 23 1 23 24
M  V30 24 1 24 25
M  V30 25 1 22 26
M  V30 26 2 26 27
M  V30 27 1 27 28
M  V30 28 1 28 29
M  V30 29 1 27 30
M  V30 30 2 30 31
M  V30 31 1 31 32
M  V30 32 2 32 33
M  V30 33 2 18 34
M  V30 34 1 13 9
M  V30 35 1 34 14
M  V30 36 1 32 19
M  V30 37 1 31 21
M  V30 38 1 1 35
M  V30 39 1 1 36
M  V30 40 1 1 37
M  V30 41 1 2 38
M  V30 42 1 2 39
M  V30 43 1 3 40 CFG=1
M  V30 44 1 4 41
M  V30 45 1 4 42
M  V30 46 1 10 43
M  V30 47 1 15 44
M  V30 48 1 16 45
M  V30 49 1 17 46
M  V30 50 1 20 47
M  V30 51 1 20 48
M  V30 52 1 23 49
M  V30 53 1 23 50
M  V30 54 1 24 51
M  V30 55 1 25 52
M  V30 56 1 25 53
M  V30 57 1 25 54
M  V30 58 1 26 55
M  V30 59 1 29 56
M  V30 60 1 29 57
M  V30 61 1 29 58
M  V30 62 1 30 59
M  V30 END BOND
M  V30 END CTAB
M  END
>  <Dataset>  (311) 
ChEMBL_Kinases

>  <Ligand_Instance>  (311) 
nan

>  <PDB_ID>  (311) 
nan

>  <Standardized_SMILES>  (311) 
CC[C@@H](CC(F)(F)F)n1cnnc1-c1cccc(N2Cc3c(CNC)cc(OC)cc3C2=O)n1

>  <Name>  (311) 
nan

>  <Pocket>  (311) 
nan

>  <ATP_Site>  (311) 
nan

>  <Peripheral>  (311) 
nan

>  <Num_H_Atoms_ProtBoundConf>  (311) 
nan

>  <Num_Resolved_Atoms>  (311) 
nan

>  <Num_Not_Resolved_Atoms>  (311) 
nan

$$$$
CHEMBL3753891
     RDKit          3D

  0  0  0  0  0  0  0  0  0  0999 V3000
M  V30 BEGIN CTAB
M  V30 COUNTS 33 35 0 0 0
M  V30 BEGIN ATOM
M  V30 1 N -2.850853 -3.973102 5.100396 0
M  V30 2 C -2.411292 -4.507347 3.856244 0
M  V30 3 O -2.597883 -5.742000 3.673135 0
M  V30 4 C -1.768466 -3.672024 2.823536 0
M  V30 5 C -1.391690 -4.320420 1.664400 0
M  V30 6 C -0.784068 -3.503518 0.701550 0
M  V30 7 C -0.602787 -2.157409 0.950801 0
M  V30 8 C 0.034399 -1.334643 -0.075331 0
M  V30 9 C 0.300635 0.018264 -0.012939 0
M  V30 10 N 0.895968 0.431070 -1.144817 0
M  V30 11 C 1.343236 1.743390 -1.507424 0
M  V30 12 C 2.490608 2.131604 -0.840561 0
M  V30 13 C 3.042510 3.376502 -1.087233 0
M  V30 14 C 2.422705 4.207381 -2.005491 0
M  V30 15 Cl 3.015204 5.802692 -2.409121 0
M  V30 16 C 1.277626 3.825843 -2.674186 0
M  V30 17 C 0.721144 2.567416 -2.423750 0
M  V30 18 C 1.007216 -0.674178 -1.931767 0
M  V30 19 N 0.481446 -1.752145 -1.279334 0
M  V30 20 C -0.998567 -1.557326 2.128968 0
M  V30 21 C -1.607969 -2.332511 3.116107 0
M  V30 22 H -2.473345 -3.280161 5.788374 0
M  V30 23 H -3.782363 -4.324539 5.474435 0
M  V30 24 H -1.569157 -5.380238 1.545954 0
M  V30 25 H -0.480583 -4.001216 -0.220169 0
M  V30 26 H 0.057564 0.653883 0.840577 0
M  V30 27 H 3.035749 1.552865 -0.114459 0
M  V30 28 H 3.919991 3.814726 -0.653025 0
M  V30 29 H 0.726652 4.390289 -3.397070 0
M  V30 30 H -0.167489 2.164460 -2.885378 0
M  V30 31 H 1.443588 -0.710929 -2.926577 0
M  V30 32 H -0.848076 -0.503672 2.304828 0
M  V30 33 H -1.940675 -1.935081 4.054435 0
M  V30 END ATOM
M  V30 BEGIN BOND
M  V30 1 1 1 2
M  V30 2 2 2 3
M  V30 3 1 2 4
M  V30 4 2 4 5
M  V30 5 1 5 6
M  V30 6 2 6 7
M  V30 7 1 7 8
M  V30 8 2 8 9
M  V30 9 1 9 10
M  V30 10 1 10 11
M  V30 11 2 11 12
M  V30 12 1 12 13
M  V30 13 2 13 14
M  V30 14 1 14 15
M  V30 15 1 14 16
M  V30 16 2 16 17
M  V30 17 1 10 18
M  V30 18 2 18 19
M  V30 19 1 7 20
M  V30 20 2 20 21
M  V30 21 1 21 4
M  V30 22 1 19 8
M  V30 23 1 17 11
M  V30 24 1 1 22
M  V30 25 1 1 23
M  V30 26 1 5 24
M  V30 27 1 6 25
M  V30 28 1 9 26
M  V30 29 1 12 27
M  V30 30 1 13 28
M  V30 31 1 16 29
M  V30 32 1 17 30
M  V30 33 1 18 31
M  V30 34 1 20 32
M  V30 35 1 21 33
M  V30 END BOND
M  V30 END CTAB
M  END
>  <Dataset>  (312) 
ChEMBL_Kinases

>  <Ligand_Instance>  (312) 
nan

>  <PDB_ID>  (312) 
nan

>  <Standardized_SMILES>  (312) 
NC(=O)c1ccc(-c2cn(-c3ccc(Cl)cc3)cn2)cc1

>  <Name>  (312) 
nan

>  <Pocket>  (312) 
nan

>  <ATP_Site>  (312) 
nan

>  <Peripheral>  (312) 
nan

>  <Num_H_Atoms_ProtBoundConf>  (312) 
nan

>  <Num_Resolved_Atoms>  (312) 
nan

>  <Num_Not_Resolved_Atoms>  (312) 
nan

$$$$
CHEMBL5085681
     RDKit          3D

  0  0  0  0  0  0  0  0  0  0999 V3000
M  V30 BEGIN CTAB
M  V30 COUNTS 47 48 0 0 0
M  V30 BEGIN ATOM
M  V30 1 C 3.127986 -4.655196 1.755584 0
M  V30 2 C 1.862914 -3.957164 1.429074 0
M  V30 3 C 1.267991 -4.647470 0.179760 0
M  V30 4 C 1.912608 -2.518355 1.085430 0
M  V30 5 C 2.414052 -1.538688 2.037613 0 CFG=2
M  V30 6 C 3.871345 -1.849478 2.400898 0
M  V30 7 N 1.718057 -1.448313 3.293825 0
M  V30 8 C 2.477901 -0.107984 1.507653 0
M  V30 9 O 1.352251 0.557108 1.278209 0
M  V30 10 C 0.226329 0.710729 0.643587 0
M  V30 11 C -0.511106 0.112686 -0.345508 0
M  V30 12 C -1.728457 0.519592 -0.836093 0
M  V30 13 C -2.232926 1.645683 -0.256116 0
M  V30 14 C -3.521289 2.133988 -0.728152 0
M  V30 15 C -4.009422 3.286236 -0.115773 0
M  V30 16 C -5.241265 3.819017 -0.513234 0
M  V30 17 N -5.962468 3.228770 -1.483945 0
M  V30 18 C -5.508248 2.109671 -2.092144 0
M  V30 19 Cl -6.407380 1.293647 -3.367920 0
M  V30 20 C -4.309685 1.583191 -1.712043 0
M  V30 21 N -1.607502 2.323063 0.721066 0
M  V30 22 C -0.394193 1.866575 1.168844 0
M  V30 23 C 0.120154 2.770714 2.256282 0
M  V30 24 F 0.190963 4.059217 1.767091 0
M  V30 25 F -0.825980 2.710337 3.284025 0
M  V30 26 H 3.255285 -4.880846 2.837824 0
M  V30 27 H 3.984627 -4.204717 1.266514 0
M  V30 28 H 3.068226 -5.702034 1.301433 0
M  V30 29 H 1.059795 -4.183506 2.203883 0
M  V30 30 H 1.945248 -4.552759 -0.683867 0
M  V30 31 H 0.307617 -4.153038 -0.111850 0
M  V30 32 H 1.045553 -5.711377 0.377925 0
M  V30 33 H 0.868847 -2.276485 0.699369 0
M  V30 34 H 2.520855 -2.447973 0.133394 0
M  V30 35 H 4.294456 -0.933891 2.921897 0
M  V30 36 H 4.423721 -1.908753 1.453709 0
M  V30 37 H 3.970338 -2.673060 3.095452 0
M  V30 38 H 1.188940 -2.270171 3.574933 0
M  V30 39 H 2.345826 -1.170941 4.083754 0
M  V30 40 H 3.049840 0.433874 2.340728 0
M  V30 41 H 3.245606 -0.092978 0.678663 0
M  V30 42 H -0.025610 -0.752188 -0.748884 0
M  V30 43 H -2.159922 -0.075515 -1.614786 0
M  V30 44 H -3.523929 3.838055 0.664052 0
M  V30 45 H -5.697983 4.707089 -0.095710 0
M  V30 46 H -3.942065 0.703976 -2.182594 0
M  V30 47 H 1.082189 2.355392 2.567746 0
M  V30 END ATOM
M  V30 BEGIN BOND
M  V30 1 1 1 2
M  V30 2 1 2 3
M  V30 3 1 2 4
M  V30 4 1 4 5
M  V30 5 1 5 6
M  V30 6 1 5 7 CFG=1
M  V30 7 1 5 8
M  V30 8 1 8 9
M  V30 9 1 9 10
M  V30 10 2 10 11
M  V30 11 1 11 12
M  V30 12 2 12 13
M  V30 13 1 13 14
M  V30 14 2 14 15
M  V30 15 1 15 16
M  V30 16 2 16 17
M  V30 17 1 17 18
M  V30 18 1 18 19
M  V30 19 2 18 20
M  V30 20 1 13 21
M  V30 21 2 21 22
M  V30 22 1 22 23
M  V30 23 1 23 24
M  V30 24 1 23 25
M  V30 25 1 22 10
M  V30 26 1 20 14
M  V30 27 1 1 26
M  V30 28 1 1 27
M  V30 29 1 1 28
M  V30 30 1 2 29
M  V30 31 1 3 30
M  V30 32 1 3 31
M  V30 33 1 3 32
M  V30 34 1 4 33
M  V30 35 1 4 34
M  V30 36 1 6 35
M  V30 37 1 6 36
M  V30 38 1 6 37
M  V30 39 1 7 38
M  V30 40 1 7 39
M  V30 41 1 8 40
M  V30 42 1 8 41
M  V30 43 1 11 42
M  V30 44 1 12 43
M  V30 45 1 15 44
M  V30 46 1 16 45
M  V30 47 1 20 46
M  V30 48 1 23 47
M  V30 END BOND
M  V30 END CTAB
M  END
>  <Dataset>  (313) 
ChEMBL_Kinases

>  <Ligand_Instance>  (313) 
nan

>  <PDB_ID>  (313) 
nan

>  <Standardized_SMILES>  (313) 
CC(C)C[C@](C)(N)COc1ccc(-c2ccnc(Cl)c2)nc1C(F)F

>  <Name>  (313) 
nan

>  <Pocket>  (313) 
nan

>  <ATP_Site>  (313) 
nan

>  <Peripheral>  (313) 
nan

>  <Num_H_Atoms_ProtBoundConf>  (313) 
nan

>  <Num_Resolved_Atoms>  (313) 
nan

>  <Num_Not_Resolved_Atoms>  (313) 
nan

$$$$
CHEMBL375877
     RDKit          3D

  0  0  0  0  0  0  0  0  0  0999 V3000
M  V30 BEGIN CTAB
M  V30 COUNTS 38 41 0 0 0
M  V30 BEGIN ATOM
M  V30 1 C 0.393285 -2.947503 -0.122428 0
M  V30 2 C 1.098788 -2.117452 0.917146 0
M  V30 3 N 1.541546 -0.829851 0.437245 0
M  V30 4 C 2.696314 -0.445756 -0.132299 0
M  V30 5 C 3.811647 -1.344680 -0.391152 0
M  V30 6 N 3.913313 -2.655745 -0.132908 0
M  V30 7 O 5.061874 -3.110164 -0.507559 0
M  V30 8 N 5.763615 -2.144746 -1.021496 0
M  V30 9 C 5.028684 -0.999808 -0.977628 0
M  V30 10 N 5.349004 0.314479 -1.412529 0
M  V30 11 N 2.694795 0.865532 -0.432383 0
M  V30 12 C 1.496993 1.339936 -0.041778 0
M  V30 13 C 0.930024 2.599190 -0.094169 0
M  V30 14 N -0.330192 2.823076 0.379915 0
M  V30 15 C -1.065946 1.819423 0.916842 0
M  V30 16 O -2.352926 2.007431 1.410307 0
M  V30 17 C -3.045044 0.921589 1.947898 0
M  V30 18 C -3.800581 0.229163 0.998217 0
M  V30 19 C -4.544190 -0.870487 1.367054 0
M  V30 20 C -4.569170 -1.327115 2.687731 0
M  V30 21 C -3.809684 -0.616527 3.597034 0
M  V30 22 C -3.057449 0.485451 3.256440 0
M  V30 23 C -0.479802 0.561279 0.960986 0
M  V30 24 C 0.788273 0.285395 0.495546 0
M  V30 25 H -0.466174 -3.513019 0.330723 0
M  V30 26 H -0.015640 -2.359188 -0.950264 0
M  V30 27 H 1.046208 -3.749038 -0.563877 0
M  V30 28 H 1.986314 -2.708719 1.262806 0
M  V30 29 H 0.455214 -1.954531 1.807344 0
M  V30 30 H 4.654418 0.797401 -2.028100 0
M  V30 31 H 6.277315 0.567383 -1.009924 0
M  V30 32 H 1.456765 3.447326 -0.508299 0
M  V30 33 H -3.874357 0.469219 -0.053647 0
M  V30 34 H -5.149862 -1.451345 0.686120 0
M  V30 35 H -5.138263 -2.187127 3.027518 0
M  V30 36 H -3.743712 -0.871618 4.663567 0
M  V30 37 H -2.451922 1.070444 3.923880 0
M  V30 38 H -1.074757 -0.220431 1.388301 0
M  V30 END ATOM
M  V30 BEGIN BOND
M  V30 1 1 1 2
M  V30 2 1 2 3
M  V30 3 1 3 4
M  V30 4 1 4 5
M  V30 5 2 5 6
M  V30 6 1 6 7
M  V30 7 1 7 8
M  V30 8 2 8 9
M  V30 9 1 9 10
M  V30 10 2 4 11
M  V30 11 1 11 12
M  V30 12 2 12 13
M  V30 13 1 13 14
M  V30 14 2 14 15
M  V30 15 1 15 16
M  V30 16 1 16 17
M  V30 17 2 17 18
M  V30 18 1 18 19
M  V30 19 2 19 20
M  V30 20 1 20 21
M  V30 21 2 21 22
M  V30 22 1 15 23
M  V30 23 2 23 24
M  V30 24 1 24 3
M  V30 25 1 9 5
M  V30 26 1 24 12
M  V30 27 1 22 17
M  V30 28 1 1 25
M  V30 29 1 1 26
M  V30 30 1 1 27
M  V30 31 1 2 28
M  V30 32 1 2 29
M  V30 33 1 10 30
M  V30 34 1 10 31
M  V30 35 1 13 32
M  V30 36 1 18 33
M  V30 37 1 19 34
M  V30 38 1 20 35
M  V30 39 1 21 36
M  V30 40 1 22 37
M  V30 41 1 23 38
M  V30 END BOND
M  V30 END CTAB
M  END
>  <Dataset>  (314) 
ChEMBL_Kinases

>  <Ligand_Instance>  (314) 
nan

>  <PDB_ID>  (314) 
nan

>  <Standardized_SMILES>  (314) 
CCn1c(-c2nonc2N)nc2cnc(Oc3ccccc3)cc21

>  <Name>  (314) 
nan

>  <Pocket>  (314) 
nan

>  <ATP_Site>  (314) 
nan

>  <Peripheral>  (314) 
nan

>  <Num_H_Atoms_ProtBoundConf>  (314) 
nan

>  <Num_Resolved_Atoms>  (314) 
nan

>  <Num_Not_Resolved_Atoms>  (314) 
nan

$$$$
CHEMBL5085763
     RDKit          3D

  0  0  0  0  0  0  0  0  0  0999 V3000
M  V30 BEGIN CTAB
M  V30 COUNTS 63 67 0 0 0
M  V30 BEGIN ATOM
M  V30 1 C 3.168972 -2.033070 4.007746 0
M  V30 2 C 3.580875 -1.456318 2.702948 0
M  V30 3 C 4.786883 -1.790879 2.118055 0
M  V30 4 C 5.116201 -1.228991 0.918673 0
M  V30 5 C 6.426413 -1.637474 0.345260 0
M  V30 6 C 4.303615 -0.335025 0.248383 0
M  V30 7 C 3.096149 0.024299 0.795189 0
M  V30 8 N 2.161773 0.955544 0.208631 0
M  V30 9 C 0.882885 1.142826 0.851152 0
M  V30 10 N 0.709335 1.973913 1.922218 0
M  V30 11 C -0.533531 2.075184 2.448860 0
M  V30 12 C -1.576631 1.356542 1.909667 0
M  V30 13 C -1.411620 0.515850 0.828954 0
M  V30 14 C -2.410393 -0.303082 0.157107 0
M  V30 15 C -2.203528 -1.663002 0.042721 0
M  V30 16 C -1.160578 -2.601130 0.431469 0
M  V30 17 C -0.563628 -3.252066 -0.656743 0
M  V30 18 C 0.445283 -4.180216 -0.545185 0
M  V30 19 C 0.910253 -4.499996 0.732530 0
M  V30 20 C 1.998978 -5.501205 0.858155 0
M  V30 21 F 3.236538 -4.899930 0.994636 0
M  V30 22 F 2.097967 -6.240533 -0.329689 0
M  V30 23 F 1.813933 -6.404849 1.862790 0
M  V30 24 C 0.325462 -3.862010 1.802396 0
M  V30 25 C -0.678265 -2.939638 1.683236 0
M  V30 26 N -3.281008 -2.138637 -0.607642 0
M  V30 27 C -4.155931 -1.164773 -0.912140 0
M  V30 28 N -3.595804 -0.022751 -0.426745 0
M  V30 29 C -4.137093 1.336812 -0.497833 0
M  V30 30 C -3.220167 2.268665 -1.206725 0
M  V30 31 C -3.678505 2.786327 -2.524220 0
M  V30 32 N -5.095040 2.987596 -2.658419 0
M  V30 33 C -5.688446 1.654553 -2.463606 0
M  V30 34 C -5.533031 1.356281 -1.003057 0
M  V30 35 N -0.152827 0.448098 0.338386 0
M  V30 36 C 2.776387 -0.562574 2.025487 0
M  V30 37 H 2.747254 -3.042034 3.905106 0
M  V30 38 H 2.475593 -1.341329 4.547183 0
M  V30 39 H 4.078911 -2.076557 4.667551 0
M  V30 40 H 5.390790 -2.501144 2.691450 0
M  V30 41 H 6.699817 -2.677116 0.690647 0
M  V30 42 H 7.267258 -1.006234 0.669821 0
M  V30 43 H 6.368915 -1.701253 -0.767802 0
M  V30 44 H 4.568120 0.101461 -0.691274 0
M  V30 45 H 2.498224 1.438438 -0.667427 0
M  V30 46 H -0.744488 2.711505 3.295261 0
M  V30 47 H -2.580313 1.409372 2.305259 0
M  V30 48 H -0.855748 -3.072939 -1.700872 0
M  V30 49 H 0.907168 -4.681660 -1.380996 0
M  V30 50 H 0.671790 -4.096512 2.799728 0
M  V30 51 H -1.174026 -2.407510 2.477262 0
M  V30 52 H -5.106290 -1.215985 -1.425430 0
M  V30 53 H -4.193820 1.651596 0.584640 0
M  V30 54 H -2.205492 1.827095 -1.384959 0
M  V30 55 H -2.996167 3.158411 -0.548837 0
M  V30 56 H -3.356097 2.110476 -3.354474 0
M  V30 57 H -3.175660 3.783372 -2.694264 0
M  V30 58 H -5.480493 3.589277 -1.905562 0
M  V30 59 H -6.755940 1.701956 -2.709215 0
M  V30 60 H -5.101741 0.941882 -3.060533 0
M  V30 61 H -6.097548 0.433561 -0.756914 0
M  V30 62 H -6.097948 2.169235 -0.457952 0
M  V30 63 H 1.830591 -0.304271 2.490249 0
M  V30 END ATOM
M  V30 BEGIN BOND
M  V30 1 1 1 2
M  V30 2 2 2 3
M  V30 3 1 3 4
M  V30 4 1 4 5
M  V30 5 2 4 6
M  V30 6 1 6 7
M  V30 7 1 7 8
M  V30 8 1 8 9
M  V30 9 2 9 10
M  V30 10 1 10 11
M  V30 11 2 11 12
M  V30 12 1 12 13
M  V30 13 1 13 14
M  V30 14 2 14 15
M  V30 15 1 15 16
M  V30 16 2 16 17
M  V30 17 1 17 18
M  V30 18 2 18 19
M  V30 19 1 19 20
M  V30 20 1 20 21
M  V30 21 1 20 22
M  V30 22 1 20 23
M  V30 23 1 19 24
M  V30 24 2 24 25
M  V30 25 1 15 26
M  V30 26 2 26 27
M  V30 27 1 27 28
M  V30 28 1 28 29
M  V30 29 1 29 30
M  V30 30 1 30 31
M  V30 31 1 31 32
M  V30 32 1 32 33
M  V30 33 1 33 34
M  V30 34 2 13 35
M  V30 35 2 7 36
M  V30 36 1 36 2
M  V30 37 1 35 9
M  V30 38 1 28 14
M  V30 39 1 34 29
M  V30 40 1 25 16
M  V30 41 1 1 37
M  V30 42 1 1 38
M  V30 43 1 1 39
M  V30 44 1 3 40
M  V30 45 1 5 41
M  V30 46 1 5 42
M  V30 47 1 5 43
M  V30 48 1 6 44
M  V30 49 1 8 45
M  V30 50 1 11 46
M  V30 51 1 12 47
M  V30 52 1 17 48
M  V30 53 1 18 49
M  V30 54 1 24 50
M  V30 55 1 25 51
M  V30 56 1 27 52
M  V30 57 1 29 53
M  V30 58 1 30 54
M  V30 59 1 30 55
M  V30 60 1 31 56
M  V30 61 1 31 57
M  V30 62 1 32 58
M  V30 63 1 33 59
M  V30 64 1 33 60
M  V30 65 1 34 61
M  V30 66 1 34 62
M  V30 67 1 36 63
M  V30 END BOND
M  V30 END CTAB
M  END
>  <Dataset>  (315) 
ChEMBL_Kinases

>  <Ligand_Instance>  (315) 
nan

>  <PDB_ID>  (315) 
nan

>  <Standardized_SMILES>  (315) 
Cc1cc(C)cc(Nc2nccc(-c3c(-c4ccc(C(F)(F)F)cc4)ncn3C3CCNCC3)n2)c1

>  <Name>  (315) 
nan

>  <Pocket>  (315) 
nan

>  <ATP_Site>  (315) 
nan

>  <Peripheral>  (315) 
nan

>  <Num_H_Atoms_ProtBoundConf>  (315) 
nan

>  <Num_Resolved_Atoms>  (315) 
nan

>  <Num_Not_Resolved_Atoms>  (315) 
nan

$$$$
CHEMBL5085813
     RDKit          3D

  0  0  0  0  0  0  0  0  0  0999 V3000
M  V30 BEGIN CTAB
M  V30 COUNTS 58 61 0 0 0
M  V30 BEGIN ATOM
M  V30 1 C 5.294065 0.071193 7.066393 0
M  V30 2 O 5.029741 1.385509 6.596984 0
M  V30 3 C 4.915587 1.674200 5.226861 0
M  V30 4 O 5.023462 0.865915 4.273708 0
M  V30 5 C 4.639484 3.109172 4.999929 0
M  V30 6 C 4.516474 3.407786 3.501638 0
M  V30 7 N 3.418143 2.604497 2.986560 0
M  V30 8 C 3.242345 2.827741 1.596678 0
M  V30 9 O 4.045991 3.652209 1.092451 0
M  V30 10 C 2.239018 2.197248 0.744008 0
M  V30 11 C 2.254527 2.576339 -0.582531 0
M  V30 12 C 1.324175 2.014797 -1.459567 0
M  V30 13 C 0.417856 1.097360 -0.970463 0
M  V30 14 C 0.440387 0.747318 0.369627 0
M  V30 15 C 1.342679 1.281431 1.258708 0
M  V30 16 C -0.430545 -0.201139 1.080374 0
M  V30 17 O -0.392753 -0.290231 2.329984 0
M  V30 18 C -1.387964 -1.097655 0.427705 0
M  V30 19 C -2.299176 -1.681840 1.300211 0
M  V30 20 C -3.286681 -2.558612 0.898830 0
M  V30 21 C -3.369960 -2.869187 -0.443516 0
M  V30 22 N -4.369889 -3.765670 -0.908700 0
M  V30 23 C -4.603558 -4.255203 -2.223631 0
M  V30 24 C -5.845613 -3.965005 -2.798937 0
M  V30 25 C -6.009411 -4.468159 -4.071701 0
M  V30 26 C -5.104099 -5.201744 -4.806278 0
M  V30 27 C -3.884438 -5.456968 -4.175504 0
M  V30 28 C -3.669971 -4.980314 -2.911788 0
M  V30 29 N -2.416060 -5.287955 -2.353279 0
M  V30 30 C -2.495663 -2.319696 -1.342622 0
M  V30 31 C -1.520095 -1.445884 -0.903833 0
M  V30 32 C -0.638292 -0.923832 -1.987885 0
M  V30 33 C -0.523576 0.567176 -1.997029 0
M  V30 34 H 5.781782 -0.484368 6.244101 0
M  V30 35 H 6.042350 0.179139 7.876286 0
M  V30 36 H 4.367975 -0.427494 7.416451 0
M  V30 37 H 3.673724 3.369901 5.476239 0
M  V30 38 H 5.403463 3.766854 5.462904 0
M  V30 39 H 4.301900 4.494265 3.435687 0
M  V30 40 H 5.482391 3.165025 3.047771 0
M  V30 41 H 2.753174 1.913146 3.438050 0
M  V30 42 H 2.946180 3.288157 -0.999631 0
M  V30 43 H 1.290074 2.269753 -2.490876 0
M  V30 44 H 1.340864 0.995686 2.290477 0
M  V30 45 H -2.230756 -1.432999 2.364699 0
M  V30 46 H -3.988460 -3.004599 1.592976 0
M  V30 47 H -5.084275 -4.176769 -0.255563 0
M  V30 48 H -6.647023 -3.397440 -2.330005 0
M  V30 49 H -6.960002 -4.266845 -4.558545 0
M  V30 50 H -5.339773 -5.547365 -5.800951 0
M  V30 51 H -3.182880 -6.040345 -4.778150 0
M  V30 52 H -1.753950 -5.645227 -1.664226 0
M  V30 53 H -1.439468 -5.125123 -2.730834 0
M  V30 54 H -2.485591 -2.500058 -2.398352 0
M  V30 55 H -0.991026 -1.250874 -2.988759 0
M  V30 56 H 0.373358 -1.357687 -1.820296 0
M  V30 57 H -1.533700 0.971663 -1.754225 0
M  V30 58 H -0.271916 0.894956 -3.001345 0
M  V30 END ATOM
M  V30 BEGIN BOND
M  V30 1 1 1 2
M  V30 2 1 2 3
M  V30 3 2 3 4
M  V30 4 1 3 5
M  V30 5 1 5 6
M  V30 6 1 6 7
M  V30 7 1 7 8
M  V30 8 2 8 9
M  V30 9 1 8 10
M  V30 10 2 10 11
M  V30 11 1 11 12
M  V30 12 2 12 13
M  V30 13 1 13 14
M  V30 14 2 14 15
M  V30 15 1 14 16
M  V30 16 2 16 17
M  V30 17 1 16 18
M  V30 18 2 18 19
M  V30 19 1 19 20
M  V30 20 2 20 21
M  V30 21 1 21 22
M  V30 22 1 22 23
M  V30 23 2 23 24
M  V30 24 1 24 25
M  V30 25 2 25 26
M  V30 26 1 26 27
M  V30 27 2 27 28
M  V30 28 1 28 29
M  V30 29 1 21 30
M  V30 30 2 30 31
M  V30 31 1 31 32
M  V30 32 1 32 33
M  V30 33 1 15 10
M  V30 34 1 31 18
M  V30 35 1 33 13
M  V30 36 1 28 23
M  V30 37 1 1 34
M  V30 38 1 1 35
M  V30 39 1 1 36
M  V30 40 1 5 37
M  V30 41 1 5 38
M  V30 42 1 6 39
M  V30 43 1 6 40
M  V30 44 1 7 41
M  V30 45 1 11 42
M  V30 46 1 12 43
M  V30 47 1 15 44
M  V30 48 1 19 45
M  V30 49 1 20 46
M  V30 50 1 22 47
M  V30 51 1 24 48
M  V30 52 1 25 49
M  V30 53 1 26 50
M  V30 54 1 27 51
M  V30 55 1 29 52
M  V30 56 1 29 53
M  V30 57 1 30 54
M  V30 58 1 32 55
M  V30 59 1 32 56
M  V30 60 1 33 57
M  V30 61 1 33 58
M  V30 END BOND
M  V30 END CTAB
M  END
>  <Dataset>  (316) 
ChEMBL_Kinases

>  <Ligand_Instance>  (316) 
nan

>  <PDB_ID>  (316) 
nan

>  <Standardized_SMILES>  (316) 
COC(=O)CCNC(=O)c1ccc2c(c1)C(=O)c1ccc(Nc3ccccc3N)cc1CC2

>  <Name>  (316) 
nan

>  <Pocket>  (316) 
nan

>  <ATP_Site>  (316) 
nan

>  <Peripheral>  (316) 
nan

>  <Num_H_Atoms_ProtBoundConf>  (316) 
nan

>  <Num_Resolved_Atoms>  (316) 
nan

>  <Num_Not_Resolved_Atoms>  (316) 
nan

$$$$
CHEMBL5085851
     RDKit          3D

  0  0  0  0  0  0  0  0  0  0999 V3000
M  V30 BEGIN CTAB
M  V30 COUNTS 64 68 0 0 0
M  V30 BEGIN ATOM
M  V30 1 C 4.257434 -1.973639 4.908852 0
M  V30 2 N 3.217533 -2.904269 4.471888 0
M  V30 3 C 2.167739 -2.335220 3.812972 0
M  V30 4 N 2.007360 -0.951648 3.528644 0
M  V30 5 C 0.909881 -0.333794 2.823544 0
M  V30 6 C 0.828515 -0.862595 1.430335 0
M  V30 7 C -0.327264 -0.236329 0.629785 0
M  V30 8 C -0.182540 1.236506 0.521238 0
M  V30 9 N -1.188366 1.933182 -0.207775 0
M  V30 10 C -1.705459 1.944752 -1.506814 0
M  V30 11 C -1.034010 2.829613 -2.361938 0
M  V30 12 C -1.443280 2.945857 -3.695121 0
M  V30 13 N -2.469864 2.229571 -4.188009 0
M  V30 14 C -3.123860 1.375955 -3.376894 0
M  V30 15 C -4.198721 0.595317 -3.794012 0
M  V30 16 C -4.853397 -0.270675 -2.937788 0
M  V30 17 C -4.442269 -0.382810 -1.610217 0
M  V30 18 C -3.377251 0.391622 -1.199827 0
M  V30 19 C -2.750486 1.234405 -2.059838 0
M  V30 20 C -0.734046 3.880850 -4.601411 0
M  V30 21 C 0.748118 3.608881 -4.489023 0
M  V30 22 C 1.199003 3.457305 -3.056915 0
M  V30 23 C 0.110367 3.719483 -2.069321 0
M  V30 24 N 1.204671 -3.179322 3.405949 0
M  V30 25 C 1.213870 -4.506944 3.602880 0
M  V30 26 C 0.085336 -5.274295 3.094340 0
M  V30 27 C -0.929885 -4.607768 2.440656 0
M  V30 28 C -2.052336 -5.210782 1.911954 0
M  V30 29 N -2.147183 -6.560991 2.055389 0
M  V30 30 C -1.172928 -7.245911 2.689222 0
M  V30 31 C -0.040078 -6.641210 3.223368 0
M  V30 32 C 2.274822 -5.078680 4.268249 0
M  V30 33 C 3.257066 -4.221435 4.683936 0
M  V30 34 O 4.265380 -4.652077 5.299957 0
M  V30 35 H 5.087275 -2.564944 5.385185 0
M  V30 36 H 4.713287 -1.413675 4.086499 0
M  V30 37 H 3.867871 -1.293661 5.692866 0
M  V30 38 H 2.822097 -0.381256 3.907800 0
M  V30 39 H 1.085164 0.764352 2.855529 0
M  V30 40 H -0.003449 -0.620536 3.394062 0
M  V30 41 H 1.795301 -0.633079 0.925434 0
M  V30 42 H 0.735428 -1.959063 1.436271 0
M  V30 43 H -0.263610 -0.687559 -0.380396 0
M  V30 44 H -1.275028 -0.571625 1.081360 0
M  V30 45 H 0.807000 1.445266 0.015358 0
M  V30 46 H -0.082442 1.751441 1.502123 0
M  V30 47 H -1.801078 2.681739 0.215870 0
M  V30 48 H -4.491378 0.709119 -4.835619 0
M  V30 49 H -5.679584 -0.824453 -3.390424 0
M  V30 50 H -5.011350 -1.089148 -0.998046 0
M  V30 51 H -3.091305 0.282707 -0.172636 0
M  V30 52 H -1.043936 3.743729 -5.636308 0
M  V30 53 H -0.889872 4.946433 -4.274306 0
M  V30 54 H 0.936071 2.624384 -4.972952 0
M  V30 55 H 1.361405 4.356734 -5.034895 0
M  V30 56 H 1.638286 2.462303 -2.833722 0
M  V30 57 H 2.039731 4.182374 -2.889640 0
M  V30 58 H 0.532988 3.573416 -1.055320 0
M  V30 59 H -0.194186 4.795802 -2.200902 0
M  V30 60 H -0.893642 -3.525770 2.303775 0
M  V30 61 H -2.825649 -4.631287 1.403838 0
M  V30 62 H -1.271621 -8.321489 2.790801 0
M  V30 63 H 0.725873 -7.198073 3.724366 0
M  V30 64 H 2.306946 -6.142472 4.439489 0
M  V30 END ATOM
M  V30 BEGIN BOND
M  V30 1 1 1 2
M  V30 2 1 2 3
M  V30 3 1 3 4
M  V30 4 1 4 5
M  V30 5 1 5 6
M  V30 6 1 6 7
M  V30 7 1 7 8
M  V30 8 1 8 9
M  V30 9 1 9 10
M  V30 10 2 10 11
M  V30 11 1 11 12
M  V30 12 2 12 13
M  V30 13 1 13 14
M  V30 14 2 14 15
M  V30 15 1 15 16
M  V30 16 2 16 17
M  V30 17 1 17 18
M  V30 18 2 18 19
M  V30 19 1 12 20
M  V30 20 1 20 21
M  V30 21 1 21 22
M  V30 22 1 22 23
M  V30 23 2 3 24
M  V30 24 1 24 25
M  V30 25 1 25 26
M  V30 26 2 26 27
M  V30 27 1 27 28
M  V30 28 2 28 29
M  V30 29 1 29 30
M  V30 30 2 30 31
M  V30 31 2 25 32
M  V30 32 1 32 33
M  V30 33 2 33 34
M  V30 34 1 33 2
M  V30 35 1 19 10
M  V30 36 1 31 26
M  V30 37 1 23 11
M  V30 38 1 19 14
M  V30 39 1 1 35
M  V30 40 1 1 36
M  V30 41 1 1 37
M  V30 42 1 4 38
M  V30 43 1 5 39
M  V30 44 1 5 40
M  V30 45 1 6 41
M  V30 46 1 6 42
M  V30 47 1 7 43
M  V30 48 1 7 44
M  V30 49 1 8 45
M  V30 50 1 8 46
M  V30 51 1 9 47
M  V30 52 1 15 48
M  V30 53 1 16 49
M  V30 54 1 17 50
M  V30 55 1 18 51
M  V30 56 1 20 52
M  V30 57 1 20 53
M  V30 58 1 21 54
M  V30 59 1 21 55
M  V30 60 1 22 56
M  V30 61 1 22 57
M  V30 62 1 23 58
M  V30 63 1 23 59
M  V30 64 1 27 60
M  V30 65 1 28 61
M  V30 66 1 30 62
M  V30 67 1 31 63
M  V30 68 1 32 64
M  V30 END BOND
M  V30 END CTAB
M  END
>  <Dataset>  (317) 
ChEMBL_Kinases

>  <Ligand_Instance>  (317) 
nan

>  <PDB_ID>  (317) 
nan

>  <Standardized_SMILES>  (317) 
Cn1c(NCCCCNc2c3c(nc4ccccc24)CCCC3)nc(-c2ccncc2)cc1=O

>  <Name>  (317) 
nan

>  <Pocket>  (317) 
nan

>  <ATP_Site>  (317) 
nan

>  <Peripheral>  (317) 
nan

>  <Num_H_Atoms_ProtBoundConf>  (317) 
nan

>  <Num_Resolved_Atoms>  (317) 
nan

>  <Num_Not_Resolved_Atoms>  (317) 
nan

$$$$
CHEMBL5085873
     RDKit          3D

  0  0  0  0  0  0  0  0  0  0999 V3000
M  V30 BEGIN CTAB
M  V30 COUNTS 61 65 0 0 0
M  V30 BEGIN ATOM
M  V30 1 C 4.656045 -2.818567 1.984290 0
M  V30 2 C 3.810021 -1.587850 2.039276 0
M  V30 3 C 2.716950 -1.660888 3.076509 0
M  V30 4 N 3.316097 -1.139548 0.762777 0
M  V30 5 C 4.423210 -0.839256 -0.112713 0
M  V30 6 C 3.927686 -0.195624 -1.384194 0
M  V30 7 N 2.945330 -0.995806 -1.997950 0
M  V30 8 C 1.919680 -0.352490 -2.740083 0
M  V30 9 C 1.069630 0.591251 -2.017784 0
M  V30 10 C 1.299159 1.946014 -1.871669 0
M  V30 11 C 0.467205 2.802939 -1.178677 0
M  V30 12 C -0.672075 2.295875 -0.585920 0
M  V30 13 N -1.556002 3.146744 0.137660 0
M  V30 14 C -2.754472 2.708852 0.782107 0
M  V30 15 N -3.562064 3.531369 1.452520 0
M  V30 16 C -4.689065 3.092131 2.052978 0
M  V30 17 C -5.028867 1.766460 1.982071 0
M  V30 18 F -6.146194 1.259112 2.562210 0
M  V30 19 C -4.201040 0.886381 1.287067 0
M  V30 20 C -4.465652 -0.545238 1.147645 0
M  V30 21 C -5.670567 -1.147902 0.833175 0
M  V30 22 C -5.738550 -2.524412 0.742690 0
M  V30 23 C -4.622043 -3.276802 0.963062 0
M  V30 24 N -4.696531 -4.618513 0.872903 0
M  V30 25 C -3.584029 -5.373987 1.092126 0
M  V30 26 C -2.369582 -4.799830 1.407288 0
M  V30 27 N -2.282532 -3.473428 1.499569 0
M  V30 28 C -3.392862 -2.715551 1.280974 0
M  V30 29 C -3.338466 -1.339277 1.368265 0
M  V30 30 N -3.108130 1.397994 0.722846 0
M  V30 31 N -0.945073 0.977773 -0.697534 0
M  V30 32 C -0.103884 0.151920 -1.389624 0
M  V30 33 C 2.521819 -2.178823 -1.318888 0
M  V30 34 C 2.358091 -2.031002 0.161866 0
M  V30 35 H 5.743866 -2.622827 2.202300 0
M  V30 36 H 4.535913 -3.419663 1.052637 0
M  V30 37 H 4.333239 -3.494859 2.827298 0
M  V30 38 H 4.490263 -0.758564 2.393938 0
M  V30 39 H 2.978420 -1.141334 4.021502 0
M  V30 40 H 2.462436 -2.723317 3.260733 0
M  V30 41 H 1.827053 -1.164797 2.634521 0
M  V30 42 H 5.123480 -0.184020 0.443956 0
M  V30 43 H 4.962192 -1.758302 -0.421579 0
M  V30 44 H 4.845074 -0.155760 -2.042543 0
M  V30 45 H 3.650891 0.851535 -1.165107 0
M  V30 46 H 2.415018 0.222584 -3.575903 0
M  V30 47 H 1.286792 -1.092149 -3.227194 0
M  V30 48 H 2.183301 2.350224 -2.329603 0
M  V30 49 H 0.701497 3.852823 -1.100091 0
M  V30 50 H -1.329924 4.163344 0.213574 0
M  V30 51 H -5.310087 3.790808 2.582497 0
M  V30 52 H -6.489452 -0.466385 0.678602 0
M  V30 53 H -6.709145 -2.938099 0.493249 0
M  V30 54 H -3.654975 -6.463187 1.016436 0
M  V30 55 H -1.464769 -5.378467 1.587476 0
M  V30 56 H -2.353265 -0.931003 1.620788 0
M  V30 57 H -0.380569 -0.901060 -1.442780 0
M  V30 58 H 1.537224 -2.482564 -1.741138 0
M  V30 59 H 3.222386 -3.001862 -1.545088 0
M  V30 60 H 2.524296 -3.037997 0.598608 0
M  V30 61 H 1.337792 -1.715737 0.481505 0
M  V30 END ATOM
M  V30 BEGIN BOND
M  V30 1 1 1 2
M  V30 2 1 2 3
M  V30 3 1 2 4
M  V30 4 1 4 5
M  V30 5 1 5 6
M  V30 6 1 6 7
M  V30 7 1 7 8
M  V30 8 1 8 9
M  V30 9 2 9 10
M  V30 10 1 10 11
M  V30 11 2 11 12
M  V30 12 1 12 13
M  V30 13 1 13 14
M  V30 14 2 14 15
M  V30 15 1 15 16
M  V30 16 2 16 17
M  V30 17 1 17 18
M  V30 18 1 17 19
M  V30 19 1 19 20
M  V30 20 2 20 21
M  V30 21 1 21 22
M  V30 22 2 22 23
M  V30 23 1 23 24
M  V30 24 2 24 25
M  V30 25 1 25 26
M  V30 26 2 26 27
M  V30 27 1 27 28
M  V30 28 2 28 29
M  V30 29 2 19 30
M  V30 30 1 12 31
M  V30 31 2 31 32
M  V30 32 1 7 33
M  V30 33 1 33 34
M  V30 34 1 34 4
M  V30 35 1 32 9
M  V30 36 1 30 14
M  V30 37 1 29 20
M  V30 38 1 28 23
M  V30 39 1 1 35
M  V30 40 1 1 36
M  V30 41 1 1 37
M  V30 42 1 2 38
M  V30 43 1 3 39
M  V30 44 1 3 40
M  V30 45 1 3 41
M  V30 46 1 5 42
M  V30 47 1 5 43
M  V30 48 1 6 44
M  V30 49 1 6 45
M  V30 50 1 8 46
M  V30 51 1 8 47
M  V30 52 1 10 48
M  V30 53 1 11 49
M  V30 54 1 13 50
M  V30 55 1 16 51
M  V30 56 1 21 52
M  V30 57 1 22 53
M  V30 58 1 25 54
M  V30 59 1 26 55
M  V30 60 1 29 56
M  V30 61 1 32 57
M  V30 62 1 33 58
M  V30 63 1 33 59
M  V30 64 1 34 60
M  V30 65 1 34 61
M  V30 END BOND
M  V30 END CTAB
M  END
>  <Dataset>  (318) 
ChEMBL_Kinases

>  <Ligand_Instance>  (318) 
nan

>  <PDB_ID>  (318) 
nan

>  <Standardized_SMILES>  (318) 
CC(C)N1CCN(Cc2ccc(Nc3ncc(F)c(-c4ccc5nccnc5c4)n3)nc2)CC1

>  <Name>  (318) 
nan

>  <Pocket>  (318) 
nan

>  <ATP_Site>  (318) 
nan

>  <Peripheral>  (318) 
nan

>  <Num_H_Atoms_ProtBoundConf>  (318) 
nan

>  <Num_Resolved_Atoms>  (318) 
nan

>  <Num_Not_Resolved_Atoms>  (318) 
nan

$$$$
CHEMBL589569
     RDKit          3D

  0  0  0  0  0  0  0  0  0  0999 V3000
M  V30 BEGIN CTAB
M  V30 COUNTS 55 59 0 0 0
M  V30 BEGIN ATOM
M  V30 1 C 4.196050 -3.332160 4.999133 0
M  V30 2 N 3.693262 -2.463923 3.948446 0
M  V30 3 C 4.457241 -2.050518 2.822770 0
M  V30 4 N 5.708655 -2.523936 2.778658 0
M  V30 5 C 6.551570 -2.235622 1.793352 0
M  V30 6 C 6.110843 -1.410846 0.773115 0
M  V30 7 C 4.818559 -0.910379 0.800216 0
M  V30 8 C 3.995632 -1.239310 1.837226 0
M  V30 9 C 2.640184 -0.721323 1.885122 0
M  V30 10 O 1.733062 -0.877465 2.715847 0
M  V30 11 N 2.143214 0.126538 0.858119 0
M  V30 12 C 0.850218 0.712992 0.761427 0
M  V30 13 C 0.734650 1.977130 1.354912 0
M  V30 14 C -0.451835 2.690999 1.354257 0
M  V30 15 C -1.589677 2.154250 0.746991 0
M  V30 16 C -1.465858 0.913969 0.167711 0
M  V30 17 C -0.289937 0.210205 0.170201 0
M  V30 18 C -2.645817 0.385585 -0.452694 0
M  V30 19 C -3.786679 1.154688 -0.417019 0
M  V30 20 C -4.746388 0.387609 -1.084926 0
M  V30 21 C -6.142718 0.719135 -1.342922 0
M  V30 22 N -6.979663 -0.182856 -2.039561 0
M  V30 23 O -6.637583 1.800119 -0.959663 0
M  V30 24 N -4.145344 -0.768668 -1.474618 0
M  V30 25 N -2.879733 -0.767109 -1.092281 0
M  V30 26 C -2.056199 -1.881970 -1.393667 0
M  V30 27 C -1.334216 -1.926844 -2.597390 0
M  V30 28 C -0.557695 -3.058629 -2.831616 0
M  V30 29 C -0.470174 -4.125183 -1.939110 0
M  V30 30 F 0.297804 -5.207200 -2.207152 0
M  V30 31 C -1.209749 -4.000467 -0.782911 0
M  V30 32 C -2.008082 -2.923847 -0.457029 0
M  V30 33 C -4.007684 2.481319 0.168366 0
M  V30 34 C -2.788241 3.022740 0.824254 0
M  V30 35 H 4.233944 -2.765185 5.953547 0
M  V30 36 H 3.616219 -4.284822 5.089220 0
M  V30 37 H 5.237183 -3.692597 4.746178 0
M  V30 38 H 2.719137 -2.280451 4.263791 0
M  V30 39 H 7.560017 -2.616080 1.755488 0
M  V30 40 H 6.798563 -1.176901 -0.029319 0
M  V30 41 H 4.572765 -0.280604 -0.036373 0
M  V30 42 H 2.697454 0.435317 0.008446 0
M  V30 43 H 1.590194 2.445660 1.843555 0
M  V30 44 H -0.464813 3.679894 1.841393 0
M  V30 45 H -0.155334 -0.758211 -0.271187 0
M  V30 46 H -6.790030 -0.224611 -3.075453 0
M  V30 47 H -7.622322 -0.617912 -1.326285 0
M  V30 48 H -1.388006 -1.109582 -3.303200 0
M  V30 49 H -0.005993 -3.068371 -3.774891 0
M  V30 50 H -1.182260 -4.800607 -0.047140 0
M  V30 51 H -2.570713 -2.869392 0.461367 0
M  V30 52 H -4.278554 3.155455 -0.693536 0
M  V30 53 H -4.913181 2.521983 0.816845 0
M  V30 54 H -2.489231 3.971612 0.298488 0
M  V30 55 H -2.957629 3.265446 1.898752 0
M  V30 END ATOM
M  V30 BEGIN BOND
M  V30 1 1 1 2
M  V30 2 1 2 3
M  V30 3 2 3 4
M  V30 4 1 4 5
M  V30 5 2 5 6
M  V30 6 1 6 7
M  V30 7 2 7 8
M  V30 8 1 8 9
M  V30 9 2 9 10
M  V30 10 1 9 11
M  V30 11 1 11 12
M  V30 12 2 12 13
M  V30 13 1 13 14
M  V30 14 2 14 15
M  V30 15 1 15 16
M  V30 16 2 16 17
M  V30 17 1 16 18
M  V30 18 2 18 19
M  V30 19 1 19 20
M  V30 20 1 20 21
M  V30 21 1 21 22
M  V30 22 2 21 23
M  V30 23 2 20 24
M  V30 24 1 24 25
M  V30 25 1 25 26
M  V30 26 2 26 27
M  V30 27 1 27 28
M  V30 28 2 28 29
M  V30 29 1 29 30
M  V30 30 1 29 31
M  V30 31 2 31 32
M  V30 32 1 19 33
M  V30 33 1 33 34
M  V30 34 1 8 3
M  V30 35 1 17 12
M  V30 36 1 25 18
M  V30 37 1 32 26
M  V30 38 1 34 15
M  V30 39 1 1 35
M  V30 40 1 1 36
M  V30 41 1 1 37
M  V30 42 1 2 38
M  V30 43 1 5 39
M  V30 44 1 6 40
M  V30 45 1 7 41
M  V30 46 1 11 42
M  V30 47 1 13 43
M  V30 48 1 14 44
M  V30 49 1 17 45
M  V30 50 1 22 46
M  V30 51 1 22 47
M  V30 52 1 27 48
M  V30 53 1 28 49
M  V30 54 1 31 50
M  V30 55 1 32 51
M  V30 56 1 33 52
M  V30 57 1 33 53
M  V30 58 1 34 54
M  V30 59 1 34 55
M  V30 END BOND
M  V30 END CTAB
M  END
>  <Dataset>  (319) 
ChEMBL_Kinases

>  <Ligand_Instance>  (319) 
nan

>  <PDB_ID>  (319) 
nan

>  <Standardized_SMILES>  (319) 
CNc1ncccc1C(=O)Nc1ccc2c(c1)-c1c(c(C(N)=O)nn1-c1ccc(F)cc1)CC2

>  <Name>  (319) 
nan

>  <Pocket>  (319) 
nan

>  <ATP_Site>  (319) 
nan

>  <Peripheral>  (319) 
nan

>  <Num_H_Atoms_ProtBoundConf>  (319) 
nan

>  <Num_Resolved_Atoms>  (319) 
nan

>  <Num_Not_Resolved_Atoms>  (319) 
nan

$$$$
CHEMBL589540
     RDKit          3D

  0  0  0  0  0  0  0  0  0  0999 V3000
M  V30 BEGIN CTAB
M  V30 COUNTS 58 63 0 0 0
M  V30 BEGIN ATOM
M  V30 1 C 0.748032 4.046574 4.725553 0
M  V30 2 N 1.134520 2.921059 3.897702 0
M  V30 3 C 1.801375 1.772475 4.401398 0
M  V30 4 N 2.064505 1.778962 5.718444 0
M  V30 5 C 2.682405 0.766659 6.311519 0
M  V30 6 C 3.058430 -0.315150 5.539296 0
M  V30 7 C 2.802530 -0.350567 4.187534 0
M  V30 8 C 2.160471 0.713386 3.600585 0
M  V30 9 C 1.884168 0.692251 2.183095 0
M  V30 10 O 1.322135 1.532747 1.443599 0
M  V30 11 N 2.259019 -0.401338 1.383278 0
M  V30 12 C 2.013643 -0.483452 -0.029014 0
M  V30 13 C 2.931782 -0.013171 -0.961134 0
M  V30 14 C 2.717067 -0.081573 -2.325183 0
M  V30 15 C 1.541890 -0.639869 -2.792216 0
M  V30 16 C 0.622057 -1.110165 -1.891077 0
M  V30 17 C 0.830782 -1.044511 -0.533803 0
M  V30 18 C -0.582699 -1.680853 -2.407783 0
M  V30 19 C -0.821420 -1.760468 -3.758391 0
M  V30 20 C -2.032477 -2.342762 -3.966573 0
M  V30 21 C -2.718136 -2.641590 -5.233059 0
M  V30 22 N -3.996979 -3.263384 -5.188249 0
M  V30 23 O -2.105306 -2.315979 -6.287798 0
M  V30 24 N -2.506574 -2.606558 -2.713184 0
M  V30 25 N -1.644286 -2.212731 -1.790861 0
M  V30 26 C -1.993017 -2.418762 -0.429610 0
M  V30 27 C -1.671844 -3.581429 0.245940 0
M  V30 28 C -2.054957 -3.711813 1.566455 0
M  V30 29 C -2.746822 -2.740577 2.260063 0
M  V30 30 C -3.078776 -1.559521 1.590726 0
M  V30 31 C -2.696828 -1.428204 0.272352 0
M  V30 32 O -3.758867 -0.765143 2.497250 0
M  V30 33 C -3.593707 -1.270834 3.812515 0
M  V30 34 O -3.240654 -2.617591 3.554229 0
M  V30 35 C 0.137630 -1.267345 -4.774215 0
M  V30 36 C 1.382683 -0.679430 -4.244980 0
M  V30 37 H 1.112316 3.797828 5.762499 0
M  V30 38 H -0.334274 4.221793 4.707413 0
M  V30 39 H 1.319653 4.947068 4.407373 0
M  V30 40 H 0.805955 3.199786 2.950092 0
M  V30 41 H 2.895115 0.772449 7.378244 0
M  V30 42 H 3.559330 -1.119960 6.058411 0
M  V30 43 H 3.138517 -1.234632 3.698157 0
M  V30 44 H 2.753622 -1.266934 1.728482 0
M  V30 45 H 3.853226 0.423604 -0.554803 0
M  V30 46 H 3.515577 0.322206 -2.936722 0
M  V30 47 H 0.163632 -1.388657 0.235989 0
M  V30 48 H -4.737715 -2.544065 -5.034376 0
M  V30 49 H -3.674123 -4.255904 -5.335845 0
M  V30 50 H -1.126161 -4.349575 -0.298082 0
M  V30 51 H -1.783687 -4.645266 2.069042 0
M  V30 52 H -2.953959 -0.501008 -0.263125 0
M  V30 53 H -4.516923 -1.177715 4.412549 0
M  V30 54 H -2.777788 -0.674334 4.264336 0
M  V30 55 H -0.406242 -0.543960 -5.445891 0
M  V30 56 H 0.351084 -2.134677 -5.450615 0
M  V30 57 H 2.267893 -1.184862 -4.730294 0
M  V30 58 H 1.467782 0.379618 -4.599973 0
M  V30 END ATOM
M  V30 BEGIN BOND
M  V30 1 1 1 2
M  V30 2 1 2 3
M  V30 3 2 3 4
M  V30 4 1 4 5
M  V30 5 2 5 6
M  V30 6 1 6 7
M  V30 7 2 7 8
M  V30 8 1 8 9
M  V30 9 2 9 10
M  V30 10 1 9 11
M  V30 11 1 11 12
M  V30 12 2 12 13
M  V30 13 1 13 14
M  V30 14 2 14 15
M  V30 15 1 15 16
M  V30 16 2 16 17
M  V30 17 1 16 18
M  V30 18 2 18 19
M  V30 19 1 19 20
M  V30 20 1 20 21
M  V30 21 1 21 22
M  V30 22 2 21 23
M  V30 23 2 20 24
M  V30 24 1 24 25
M  V30 25 1 25 26
M  V30 26 2 26 27
M  V30 27 1 27 28
M  V30 28 2 28 29
M  V30 29 1 29 30
M  V30 30 2 30 31
M  V30 31 1 30 32
M  V30 32 1 32 33
M  V30 33 1 33 34
M  V30 34 1 19 35
M  V30 35 1 35 36
M  V30 36 1 8 3
M  V30 37 1 17 12
M  V30 38 1 25 18
M  V30 39 1 31 26
M  V30 40 1 36 15
M  V30 41 1 34 29
M  V30 42 1 1 37
M  V30 43 1 1 38
M  V30 44 1 1 39
M  V30 45 1 2 40
M  V30 46 1 5 41
M  V30 47 1 6 42
M  V30 48 1 7 43
M  V30 49 1 11 44
M  V30 50 1 13 45
M  V30 51 1 14 46
M  V30 52 1 17 47
M  V30 53 1 22 48
M  V30 54 1 22 49
M  V30 55 1 27 50
M  V30 56 1 28 51
M  V30 57 1 31 52
M  V30 58 1 33 53
M  V30 59 1 33 54
M  V30 60 1 35 55
M  V30 61 1 35 56
M  V30 62 1 36 57
M  V30 63 1 36 58
M  V30 END BOND
M  V30 END CTAB
M  END
>  <Dataset>  (320) 
ChEMBL_Kinases

>  <Ligand_Instance>  (320) 
nan

>  <PDB_ID>  (320) 
nan

>  <Standardized_SMILES>  (320) 
CNc1ncccc1C(=O)Nc1ccc2c(c1)-c1c(c(C(N)=O)nn1-c1ccc3c(c1)OCO3)CC2

>  <Name>  (320) 
nan

>  <Pocket>  (320) 
nan

>  <ATP_Site>  (320) 
nan

>  <Peripheral>  (320) 
nan

>  <Num_H_Atoms_ProtBoundConf>  (320) 
nan

>  <Num_Resolved_Atoms>  (320) 
nan

>  <Num_Not_Resolved_Atoms>  (320) 
nan

$$$$
CHEMBL375813
     RDKit          3D

  0  0  0  0  0  0  0  0  0  0999 V3000
M  V30 BEGIN CTAB
M  V30 COUNTS 48 51 0 0 0
M  V30 BEGIN ATOM
M  V30 1 C 2.191890 -1.791976 4.157378 0
M  V30 2 C 3.278181 -2.209700 3.206830 0
M  V30 3 N 4.061851 -3.325445 3.275487 0
M  V30 4 C 4.917889 -3.342361 2.237728 0
M  V30 5 N 4.663084 -2.231028 1.522191 0
M  V30 6 C 5.359664 -1.844636 0.306727 0
M  V30 7 C 3.670443 -1.518784 2.084245 0
M  V30 8 C 3.043846 -0.229707 1.661269 0
M  V30 9 N 1.754872 -0.424376 1.057216 0
M  V30 10 C 0.973451 0.664787 0.581210 0
M  V30 11 C 1.425159 1.970326 0.681025 0
M  V30 12 C 0.607238 2.983991 0.194543 0
M  V30 13 C -0.626948 2.741171 -0.379063 0
M  V30 14 N -1.435191 3.698915 -0.855592 0
M  V30 15 C -2.629197 3.418149 -1.406138 0
M  V30 16 C -3.057456 2.104714 -1.493831 0
M  V30 17 C -4.340741 1.789326 -2.084698 0
M  V30 18 N -5.359269 1.527808 -2.539414 0
M  V30 19 C -2.292121 1.044040 -1.028640 0
M  V30 20 N -2.649958 -0.300711 -1.080088 0
M  V30 21 C -3.323618 -1.206409 -0.262548 0
M  V30 22 C -3.827564 -0.783653 0.949000 0
M  V30 23 C -4.481185 -1.743300 1.701483 0
M  V30 24 C -4.624840 -3.046989 1.273412 0
M  V30 25 F -5.256285 -4.021209 1.976012 0
M  V30 26 C -4.096645 -3.430577 0.035511 0
M  V30 27 Cl -4.235295 -5.078727 -0.588546 0
M  V30 28 C -3.435270 -2.497468 -0.746469 0
M  V30 29 C -1.068262 1.437809 -0.473967 0
M  V30 30 C -0.259845 0.429391 0.007377 0
M  V30 31 H 1.188001 -1.832485 3.688620 0
M  V30 32 H 2.156546 -2.505588 5.005830 0
M  V30 33 H 2.404719 -0.779697 4.590930 0
M  V30 34 H 5.676781 -4.079988 1.987223 0
M  V30 35 H 6.459996 -2.024706 0.434976 0
M  V30 36 H 4.993896 -2.525699 -0.497450 0
M  V30 37 H 5.232354 -0.787145 0.064868 0
M  V30 38 H 3.682129 0.279256 0.912686 0
M  V30 39 H 3.023271 0.414688 2.568901 0
M  V30 40 H 1.411327 -1.382971 0.978205 0
M  V30 41 H 2.378609 2.175687 1.122647 0
M  V30 42 H 0.909877 4.025529 0.246454 0
M  V30 43 H -3.244943 4.247325 -1.778279 0
M  V30 44 H -2.234665 -0.509042 -2.014983 0
M  V30 45 H -3.731317 0.231153 1.313065 0
M  V30 46 H -4.919478 -1.527981 2.671930 0
M  V30 47 H -3.015990 -2.781925 -1.717785 0
M  V30 48 H -0.574967 -0.586997 -0.052764 0
M  V30 END ATOM
M  V30 BEGIN BOND
M  V30 1 1 1 2
M  V30 2 1 2 3
M  V30 3 2 3 4
M  V30 4 1 4 5
M  V30 5 1 5 6
M  V30 6 1 5 7
M  V30 7 1 7 8
M  V30 8 1 8 9
M  V30 9 1 9 10
M  V30 10 2 10 11
M  V30 11 1 11 12
M  V30 12 2 12 13
M  V30 13 1 13 14
M  V30 14 2 14 15
M  V30 15 1 15 16
M  V30 16 1 16 17
M  V30 17 3 17 18
M  V30 18 2 16 19
M  V30 19 1 19 20
M  V30 20 1 20 21
M  V30 21 2 21 22
M  V30 22 1 22 23
M  V30 23 2 23 24
M  V30 24 1 24 25
M  V30 25 1 24 26
M  V30 26 1 26 27
M  V30 27 2 26 28
M  V30 28 1 19 29
M  V30 29 2 29 30
M  V30 30 2 7 2
M  V30 31 1 30 10
M  V30 32 1 29 13
M  V30 33 1 28 21
M  V30 34 1 1 31
M  V30 35 1 1 32
M  V30 36 1 1 33
M  V30 37 1 4 34
M  V30 38 1 6 35
M  V30 39 1 6 36
M  V30 40 1 6 37
M  V30 41 1 8 38
M  V30 42 1 8 39
M  V30 43 1 9 40
M  V30 44 1 11 41
M  V30 45 1 12 42
M  V30 46 1 15 43
M  V30 47 1 20 44
M  V30 48 1 22 45
M  V30 49 1 23 46
M  V30 50 1 28 47
M  V30 51 1 30 48
M  V30 END BOND
M  V30 END CTAB
M  END
>  <Dataset>  (321) 
ChEMBL_Kinases

>  <Ligand_Instance>  (321) 
nan

>  <PDB_ID>  (321) 
nan

>  <Standardized_SMILES>  (321) 
Cc1ncn(C)c1CNc1ccc2ncc(C#N)c(Nc3ccc(F)c(Cl)c3)c2c1

>  <Name>  (321) 
nan

>  <Pocket>  (321) 
nan

>  <ATP_Site>  (321) 
nan

>  <Peripheral>  (321) 
nan

>  <Num_H_Atoms_ProtBoundConf>  (321) 
nan

>  <Num_Resolved_Atoms>  (321) 
nan

>  <Num_Not_Resolved_Atoms>  (321) 
nan

$$$$
CHEMBL5085896
     RDKit          3D

  0  0  0  0  0  0  0  0  0  0999 V3000
M  V30 BEGIN CTAB
M  V30 COUNTS 64 69 0 0 0
M  V30 BEGIN ATOM
M  V30 1 O 1.573333 0.882741 5.972855 0
M  V30 2 C 1.733503 0.208089 4.918526 0
M  V30 3 C 2.611428 0.715531 3.868112 0
M  V30 4 C 3.945087 1.048441 4.002728 0
M  V30 5 C 4.677165 1.519238 2.930527 0
M  V30 6 C 3.988963 1.628746 1.738673 0
M  V30 7 N 4.660760 2.114185 0.552369 0
M  V30 8 C 3.956723 2.222996 -0.705261 0
M  V30 9 N 4.461596 2.658158 -1.840985 0
M  V30 10 C 3.712639 2.707570 -2.943678 0
M  V30 11 C 2.373597 2.307233 -2.955653 0
M  V30 12 F 1.529762 2.317064 -4.009620 0
M  V30 13 C 1.855530 1.854337 -1.761416 0
M  V30 14 C 0.478186 1.384292 -1.526372 0
M  V30 15 C -0.103006 1.905689 -0.371503 0
M  V30 16 C -1.382610 1.598838 0.046045 0
M  V30 17 C -2.094288 0.720857 -0.755516 0
M  V30 18 N -3.342102 0.384193 -0.403219 0
M  V30 19 C -4.065319 -0.479347 -1.176136 0
M  V30 20 C -3.498310 -0.996909 -2.316489 0
M  V30 21 N -4.190512 -1.887966 -3.157962 0
M  V30 22 C -5.572381 -2.298660 -3.032308 0
M  V30 23 C -5.663121 -3.793556 -2.784481 0
M  V30 24 O -4.455293 -4.419378 -3.109410 0
M  V30 25 C -3.987604 -3.986402 -4.347306 0
M  V30 26 C -3.583841 -2.526935 -4.285549 0
M  V30 27 N -2.245923 -0.654808 -2.663185 0
M  V30 28 C -1.518479 0.207145 -1.895774 0
M  V30 29 C -0.243005 0.513006 -2.311539 0
M  V30 30 N 2.663137 1.834730 -0.707408 0
M  V30 31 N 2.668437 1.302273 1.592214 0
M  V30 32 C 1.956281 0.841264 2.650067 0
M  V30 33 N 1.088557 -1.063122 4.678820 0
M  V30 34 C 1.251288 -1.866136 3.482382 0
M  V30 35 C 1.281195 -3.347446 3.752097 0
M  V30 36 N 0.438430 -3.749437 4.843603 0
M  V30 37 C 0.662351 -2.960577 6.039680 0
M  V30 38 C 0.215727 -1.547869 5.730247 0
M  V30 39 H 4.362305 0.920692 4.973822 0
M  V30 40 H 5.710421 1.779345 3.024533 0
M  V30 41 H 5.670568 2.384831 0.626343 0
M  V30 42 H 4.087671 3.058618 -3.894475 0
M  V30 43 H 0.414933 2.604628 0.299156 0
M  V30 44 H -1.828011 2.001528 0.934297 0
M  V30 45 H -5.068877 -0.730515 -0.863620 0
M  V30 46 H -6.125673 -1.689061 -2.311980 0
M  V30 47 H -6.086944 -2.125190 -4.020273 0
M  V30 48 H -6.519237 -4.247874 -3.325628 0
M  V30 49 H -5.853061 -3.933867 -1.698165 0
M  V30 50 H -3.042933 -4.566744 -4.534212 0
M  V30 51 H -4.655380 -4.236742 -5.174405 0
M  V30 52 H -2.475702 -2.416282 -4.184041 0
M  V30 53 H -3.975940 -2.060415 -5.208499 0
M  V30 54 H 0.251155 0.146458 -3.181504 0
M  V30 55 H 0.939154 0.625190 2.405267 0
M  V30 56 H 2.114614 -1.598570 2.865093 0
M  V30 57 H 0.332425 -1.649853 2.860952 0
M  V30 58 H 2.335874 -3.719946 3.866692 0
M  V30 59 H 0.906514 -3.856413 2.830737 0
M  V30 60 H 0.723315 -4.731401 5.091127 0
M  V30 61 H 1.733237 -2.904582 6.283031 0
M  V30 62 H 0.016392 -3.375021 6.821459 0
M  V30 63 H -0.813712 -1.661343 5.284714 0
M  V30 64 H 0.219475 -0.900922 6.625123 0
M  V30 END ATOM
M  V30 BEGIN BOND
M  V30 1 2 1 2
M  V30 2 1 2 3
M  V30 3 2 3 4
M  V30 4 1 4 5
M  V30 5 2 5 6
M  V30 6 1 6 7
M  V30 7 1 7 8
M  V30 8 2 8 9
M  V30 9 1 9 10
M  V30 10 2 10 11
M  V30 11 1 11 12
M  V30 12 1 11 13
M  V30 13 1 13 14
M  V30 14 2 14 15
M  V30 15 1 15 16
M  V30 16 2 16 17
M  V30 17 1 17 18
M  V30 18 2 18 19
M  V30 19 1 19 20
M  V30 20 1 20 21
M  V30 21 1 21 22
M  V30 22 1 22 23
M  V30 23 1 23 24
M  V30 24 1 24 25
M  V30 25 1 25 26
M  V30 26 2 20 27
M  V30 27 1 27 28
M  V30 28 2 28 29
M  V30 29 2 13 30
M  V30 30 1 6 31
M  V30 31 2 31 32
M  V30 32 1 2 33
M  V30 33 1 33 34
M  V30 34 1 34 35
M  V30 35 1 35 36
M  V30 36 1 36 37
M  V30 37 1 37 38
M  V30 38 1 32 3
M  V30 39 1 38 33
M  V30 40 1 30 8
M  V30 41 1 29 14
M  V30 42 1 28 17
M  V30 43 1 26 21
M  V30 44 1 4 39
M  V30 45 1 5 40
M  V30 46 1 7 41
M  V30 47 1 10 42
M  V30 48 1 15 43
M  V30 49 1 16 44
M  V30 50 1 19 45
M  V30 51 1 22 46
M  V30 52 1 22 47
M  V30 53 1 23 48
M  V30 54 1 23 49
M  V30 55 1 25 50
M  V30 56 1 25 51
M  V30 57 1 26 52
M  V30 58 1 26 53
M  V30 59 1 29 54
M  V30 60 1 32 55
M  V30 61 1 34 56
M  V30 62 1 34 57
M  V30 63 1 35 58
M  V30 64 1 35 59
M  V30 65 1 36 60
M  V30 66 1 37 61
M  V30 67 1 37 62
M  V30 68 1 38 63
M  V30 69 1 38 64
M  V30 END BOND
M  V30 END CTAB
M  END
>  <Dataset>  (322) 
ChEMBL_Kinases

>  <Ligand_Instance>  (322) 
nan

>  <PDB_ID>  (322) 
nan

>  <Standardized_SMILES>  (322) 
O=C(c1ccc(Nc2ncc(F)c(-c3ccc4ncc(N5CCOCC5)nc4c3)n2)nc1)N1CCNCC1

>  <Name>  (322) 
nan

>  <Pocket>  (322) 
nan

>  <ATP_Site>  (322) 
nan

>  <Peripheral>  (322) 
nan

>  <Num_H_Atoms_ProtBoundConf>  (322) 
nan

>  <Num_Resolved_Atoms>  (322) 
nan

>  <Num_Not_Resolved_Atoms>  (322) 
nan

$$$$
CHEMBL375787
     RDKit          3D

  0  0  0  0  0  0  0  0  0  0999 V3000
M  V30 BEGIN CTAB
M  V30 COUNTS 46 49 0 0 0
M  V30 BEGIN ATOM
M  V30 1 C 0.286245 -7.099232 1.254281 0
M  V30 2 O -0.408179 -5.926746 1.568184 0
M  V30 3 C -0.152765 -4.772124 0.840900 0
M  V30 4 C 0.783637 -4.824664 -0.172104 0
M  V30 5 C 1.106126 -3.734047 -0.948705 0
M  V30 6 N 1.952673 -3.482917 -1.979714 0
M  V30 7 C 1.795837 -2.178419 -2.309923 0
M  V30 8 N 0.887267 -1.582134 -1.537403 0
M  V30 9 C 0.435316 -0.270967 -1.544538 0
M  V30 10 C 0.860223 0.833727 -0.885026 0
M  V30 11 C 0.299409 2.065171 -1.003815 0
M  V30 12 O 0.467976 3.298684 -0.521180 0
M  V30 13 C 1.323496 3.886737 0.359837 0
M  V30 14 C 1.344773 3.437454 1.771285 0
M  V30 15 C -0.000938 3.598279 2.462344 0
M  V30 16 C 0.213062 2.805826 3.730937 0
M  V30 17 C 1.441019 1.978911 3.375757 0
M  V30 18 O 1.658745 2.140439 2.030107 0
M  V30 19 C -0.866834 2.017738 -1.980675 0
M  V30 20 C -1.760298 3.071533 -2.424477 0
M  V30 21 N -2.447324 3.906321 -2.759302 0
M  V30 22 S -0.909653 0.295243 -2.497335 0
M  V30 23 C 0.449892 -2.548032 -0.682141 0
M  V30 24 C -0.481045 -2.503306 0.327845 0
M  V30 25 C -0.807436 -3.583878 1.104879 0
M  V30 26 O -1.726171 -3.609072 2.128377 0
M  V30 27 C -2.484346 -2.506360 2.539587 0
M  V30 28 H 0.033541 -7.516785 0.254239 0
M  V30 29 H -0.022332 -7.876952 1.986291 0
M  V30 30 H 1.381385 -6.939761 1.236720 0
M  V30 31 H 1.325488 -5.730342 -0.420607 0
M  V30 32 H 2.332926 -1.659043 -3.102948 0
M  V30 33 H 1.706687 0.716682 -0.230849 0
M  V30 34 H 1.271407 5.009427 0.365090 0
M  V30 35 H 2.374994 3.701250 -0.036165 0
M  V30 36 H 2.050121 4.061945 2.396619 0
M  V30 37 H -0.787797 3.136585 1.822586 0
M  V30 38 H -0.200004 4.675547 2.678120 0
M  V30 39 H -0.662003 2.150628 3.959897 0
M  V30 40 H 0.464111 3.477242 4.593336 0
M  V30 41 H 2.317570 2.327839 3.992676 0
M  V30 42 H 1.209512 0.925553 3.608373 0
M  V30 43 H -0.994084 -1.574293 0.535549 0
M  V30 44 H -3.524615 -2.877934 2.739116 0
M  V30 45 H -2.051423 -2.050082 3.472877 0
M  V30 46 H -2.597895 -1.718141 1.789000 0
M  V30 END ATOM
M  V30 BEGIN BOND
M  V30 1 1 1 2
M  V30 2 1 2 3
M  V30 3 2 3 4
M  V30 4 1 4 5
M  V30 5 1 5 6
M  V30 6 2 6 7
M  V30 7 1 7 8
M  V30 8 1 8 9
M  V30 9 2 9 10
M  V30 10 1 10 11
M  V30 11 1 11 12
M  V30 12 1 12 13
M  V30 13 1 13 14
M  V30 14 1 14 15
M  V30 15 1 15 16
M  V30 16 1 16 17
M  V30 17 1 17 18
M  V30 18 2 11 19
M  V30 19 1 19 20
M  V30 20 3 20 21
M  V30 21 1 19 22
M  V30 22 1 8 23
M  V30 23 1 23 24
M  V30 24 2 24 25
M  V30 25 1 25 26
M  V30 26 1 26 27
M  V30 27 1 25 3
M  V30 28 2 23 5
M  V30 29 1 22 9
M  V30 30 1 18 14
M  V30 31 1 1 28
M  V30 32 1 1 29
M  V30 33 1 1 30
M  V30 34 1 4 31
M  V30 35 1 7 32
M  V30 36 1 10 33
M  V30 37 1 13 34
M  V30 38 1 13 35
M  V30 39 1 14 36
M  V30 40 1 15 37
M  V30 41 1 15 38
M  V30 42 1 16 39
M  V30 43 1 16 40
M  V30 44 1 17 41
M  V30 45 1 17 42
M  V30 46 1 24 43
M  V30 47 1 27 44
M  V30 48 1 27 45
M  V30 49 1 27 46
M  V30 END BOND
M  V30 END CTAB
M  END
>  <Dataset>  (323) 
ChEMBL_Kinases

>  <Ligand_Instance>  (323) 
nan

>  <PDB_ID>  (323) 
nan

>  <Standardized_SMILES>  (323) 
COc1cc2ncn(-c3cc(OCC4CCCO4)c(C#N)s3)c2cc1OC

>  <Name>  (323) 
nan

>  <Pocket>  (323) 
nan

>  <ATP_Site>  (323) 
nan

>  <Peripheral>  (323) 
nan

>  <Num_H_Atoms_ProtBoundConf>  (323) 
nan

>  <Num_Resolved_Atoms>  (323) 
nan

>  <Num_Not_Resolved_Atoms>  (323) 
nan

$$$$
CHEMBL589602
     RDKit          3D

  0  0  0  0  0  0  0  0  0  0999 V3000
M  V30 BEGIN CTAB
M  V30 COUNTS 59 63 0 0 0
M  V30 BEGIN ATOM
M  V30 1 C 2.303004 -4.733788 4.011178 0
M  V30 2 C 2.193566 -3.855115 2.813683 0
M  V30 3 C 3.214695 -3.904614 1.895418 0
M  V30 4 C 3.110350 -3.092302 0.791281 0
M  V30 5 C 2.062619 -2.239704 0.543026 0
M  V30 6 N 1.905102 -1.388761 -0.567174 0
M  V30 7 C 2.664257 -1.126612 -1.696759 0
M  V30 8 O 3.745330 -1.819391 -1.684275 0
M  V30 9 C 2.560400 -0.289444 -2.854449 0
M  V30 10 N 3.728734 0.163271 -3.400065 0
M  V30 11 C 3.462312 0.952194 -4.459477 0
M  V30 12 C 4.474908 1.631339 -5.309326 0
M  V30 13 F 4.135270 1.472208 -6.655507 0
M  V30 14 F 5.724102 1.059608 -5.162436 0
M  V30 15 F 4.600026 2.969381 -4.991546 0
M  V30 16 N 2.143034 0.970887 -4.550331 0
M  V30 17 C 1.546131 0.231665 -3.602743 0
M  V30 18 C 0.133960 0.085111 -3.470606 0
M  V30 19 C -0.647465 1.014255 -4.110708 0
M  V30 20 C -2.015891 0.968297 -4.115562 0
M  V30 21 C -2.715105 -0.013172 -3.479456 0
M  V30 22 F -4.062400 -0.079145 -3.469651 0
M  V30 23 C -1.985227 -0.972090 -2.822160 0
M  V30 24 Cl -2.790989 -2.265857 -1.981201 0
M  V30 25 C -0.613700 -0.877901 -2.849923 0
M  V30 26 C 1.086690 -2.255908 1.514306 0
M  V30 27 C 1.111729 -3.024762 2.632145 0
M  V30 28 N 0.132388 -3.048400 3.656036 0
M  V30 29 C -1.068468 -2.334380 3.904912 0
M  V30 30 C -2.241488 -2.887217 4.435595 0
M  V30 31 C -3.360146 -2.130401 4.668518 0
M  V30 32 C -3.387288 -0.781042 4.391160 0
M  V30 33 N -4.505998 -0.078717 4.635256 0
M  V30 34 C -4.552406 1.254610 4.368038 0
M  V30 35 N -3.466831 1.846684 3.860317 0
M  V30 36 C -3.475860 3.270981 3.560390 0
M  V30 37 C -2.358420 1.147036 3.619273 0
M  V30 38 O -1.323400 1.717824 3.133854 0
M  V30 39 C -2.247039 -0.206160 3.867868 0
M  V30 40 C -1.133919 -0.987215 3.642286 0
M  V30 41 H 1.532657 -5.515016 3.909766 0
M  V30 42 H 2.168068 -4.148330 4.952960 0
M  V30 43 H 3.284139 -5.223140 4.056403 0
M  V30 44 H 4.065762 -4.559317 2.040416 0
M  V30 45 H 3.927443 -3.157315 0.094522 0
M  V30 46 H 1.054197 -0.766625 -0.582314 0
M  V30 47 H 1.686670 1.536830 -5.321988 0
M  V30 48 H -0.211099 1.851284 -4.656522 0
M  V30 49 H -2.579995 1.725270 -4.632819 0
M  V30 50 H -0.095942 -1.677327 -2.347994 0
M  V30 51 H 0.223492 -1.621309 1.382659 0
M  V30 52 H 0.224606 -3.701318 4.453916 0
M  V30 53 H -2.182559 -3.965876 4.644210 0
M  V30 54 H -4.213912 -2.670331 5.083875 0
M  V30 55 H -5.429396 1.860725 4.547619 0
M  V30 56 H -3.633395 3.457385 2.467746 0
M  V30 57 H -4.332631 3.779438 4.077046 0
M  V30 58 H -2.569905 3.791339 3.881609 0
M  V30 59 H -0.335898 -0.374559 3.247252 0
M  V30 END ATOM
M  V30 BEGIN BOND
M  V30 1 1 1 2
M  V30 2 2 2 3
M  V30 3 1 3 4
M  V30 4 2 4 5
M  V30 5 1 5 6
M  V30 6 1 6 7
M  V30 7 2 7 8
M  V30 8 1 7 9
M  V30 9 1 9 10
M  V30 10 2 10 11
M  V30 11 1 11 12
M  V30 12 1 12 13
M  V30 13 1 12 14
M  V30 14 1 12 15
M  V30 15 1 11 16
M  V30 16 1 16 17
M  V30 17 1 17 18
M  V30 18 2 18 19
M  V30 19 1 19 20
M  V30 20 2 20 21
M  V30 21 1 21 22
M  V30 22 1 21 23
M  V30 23 1 23 24
M  V30 24 2 23 25
M  V30 25 1 5 26
M  V30 26 2 26 27
M  V30 27 1 27 28
M  V30 28 1 28 29
M  V30 29 2 29 30
M  V30 30 1 30 31
M  V30 31 2 31 32
M  V30 32 1 32 33
M  V30 33 2 33 34
M  V30 34 1 34 35
M  V30 35 1 35 36
M  V30 36 1 35 37
M  V30 37 2 37 38
M  V30 38 1 37 39
M  V30 39 2 39 40
M  V30 40 1 27 2
M  V30 41 1 40 29
M  V30 42 2 17 9
M  V30 43 1 25 18
M  V30 44 1 39 32
M  V30 45 1 1 41
M  V30 46 1 1 42
M  V30 47 1 1 43
M  V30 48 1 3 44
M  V30 49 1 4 45
M  V30 50 1 6 46
M  V30 51 1 16 47
M  V30 52 1 19 48
M  V30 53 1 20 49
M  V30 54 1 25 50
M  V30 55 1 26 51
M  V30 56 1 28 52
M  V30 57 1 30 53
M  V30 58 1 31 54
M  V30 59 1 34 55
M  V30 60 1 36 56
M  V30 61 1 36 57
M  V30 62 1 36 58
M  V30 63 1 40 59
M  V30 END BOND
M  V30 END CTAB
M  END
>  <Dataset>  (324) 
ChEMBL_Kinases

>  <Ligand_Instance>  (324) 
nan

>  <PDB_ID>  (324) 
nan

>  <Standardized_SMILES>  (324) 
Cc1ccc(NC(=O)c2nc(C(F)(F)F)[nH]c2-c2ccc(F)c(Cl)c2)cc1Nc1ccc2ncn(C)c(=O)c2c1

>  <Name>  (324) 
nan

>  <Pocket>  (324) 
nan

>  <ATP_Site>  (324) 
nan

>  <Peripheral>  (324) 
nan

>  <Num_H_Atoms_ProtBoundConf>  (324) 
nan

>  <Num_Resolved_Atoms>  (324) 
nan

>  <Num_Not_Resolved_Atoms>  (324) 
nan

$$$$
CHEMBL3763663
     RDKit          3D

  0  0  0  0  0  0  0  0  0  0999 V3000
M  V30 BEGIN CTAB
M  V30 COUNTS 50 53 0 0 0
M  V30 BEGIN ATOM
M  V30 1 C -1.525013 -1.032566 2.864506 0
M  V30 2 C -0.988181 -1.831680 4.025425 0
M  V30 3 N 0.398488 -2.129977 3.944593 0
M  V30 4 C 1.292114 -1.026278 4.066573 0
M  V30 5 C 1.778278 -0.486192 2.743328 0
M  V30 6 N 2.152949 -1.605474 1.886187 0
M  V30 7 C 2.379637 -1.482450 0.492466 0
M  V30 8 C 3.015930 -2.425456 -0.267710 0
M  V30 9 C 3.207457 -2.301434 -1.625544 0
M  V30 10 C 2.730624 -1.163944 -2.240414 0
M  V30 11 N 2.812667 -0.840124 -3.546161 0
M  V30 12 N 2.325536 0.282447 -4.042998 0
M  V30 13 N 1.703586 1.205544 -3.296394 0
M  V30 14 C 1.556748 0.995645 -1.962048 0
M  V30 15 N 0.916486 1.908361 -1.059753 0
M  V30 16 C -0.484468 1.892287 -0.878360 0
M  V30 17 C -1.155132 2.601820 0.093560 0
M  V30 18 C -2.521538 2.611686 0.282115 0
M  V30 19 C -3.265318 1.833981 -0.592989 0
M  V30 20 C -2.697283 1.067578 -1.623304 0
M  V30 21 O -3.501773 0.330051 -2.442518 0
M  V30 22 C -3.891857 -0.995613 -2.222171 0
M  V30 23 F -4.703567 -1.371193 -3.289137 0
M  V30 24 F -2.816168 -1.836447 -2.185015 0
M  V30 25 F -4.664263 -1.103018 -1.075691 0
M  V30 26 C -1.323621 1.145599 -1.702342 0
M  V30 27 C 2.076620 -0.193170 -1.455319 0
M  V30 28 N 1.936636 -0.396841 -0.155870 0
M  V30 29 C 2.246854 -2.878768 2.611592 0
M  V30 30 C 0.788505 -3.148148 3.029770 0
M  V30 31 H -2.599965 -1.273460 2.686987 0
M  V30 32 H -0.973957 -1.143269 1.929801 0
M  V30 33 H -1.524011 0.071324 3.108422 0
M  V30 34 H -1.560489 -2.774669 4.071975 0
M  V30 35 H -1.152106 -1.266385 4.975414 0
M  V30 36 H 2.149097 -1.286579 4.743578 0
M  V30 37 H 0.770198 -0.197732 4.585173 0
M  V30 38 H 1.021717 0.168741 2.316715 0
M  V30 39 H 2.743242 0.049604 2.959398 0
M  V30 40 H 3.404536 -3.328159 0.176327 0
M  V30 41 H 3.700322 -3.008361 -2.271825 0
M  V30 42 H 1.445932 2.628664 -0.492478 0
M  V30 43 H -0.527337 3.206089 0.768236 0
M  V30 44 H -2.962166 3.192289 1.064966 0
M  V30 45 H -4.328627 1.873079 -0.407977 0
M  V30 46 H -0.865035 0.559267 -2.493603 0
M  V30 47 H 2.849612 -2.763083 3.530338 0
M  V30 48 H 2.636245 -3.698285 2.003600 0
M  V30 49 H 0.684947 -4.148125 3.461542 0
M  V30 50 H 0.208433 -3.128613 2.076299 0
M  V30 END ATOM
M  V30 BEGIN BOND
M  V30 1 1 1 2
M  V30 2 1 2 3
M  V30 3 1 3 4
M  V30 4 1 4 5
M  V30 5 1 5 6
M  V30 6 1 6 7
M  V30 7 2 7 8
M  V30 8 1 8 9
M  V30 9 2 9 10
M  V30 10 1 10 11
M  V30 11 2 11 12
M  V30 12 1 12 13
M  V30 13 2 13 14
M  V30 14 1 14 15
M  V30 15 1 15 16
M  V30 16 2 16 17
M  V30 17 1 17 18
M  V30 18 2 18 19
M  V30 19 1 19 20
M  V30 20 1 20 21
M  V30 21 1 21 22
M  V30 22 1 22 23
M  V30 23 1 22 24
M  V30 24 1 22 25
M  V30 25 2 20 26
M  V30 26 1 14 27
M  V30 27 2 27 28
M  V30 28 1 6 29
M  V30 29 1 29 30
M  V30 30 1 30 3
M  V30 31 1 28 7
M  V30 32 1 27 10
M  V30 33 1 26 16
M  V30 34 1 1 31
M  V30 35 1 1 32
M  V30 36 1 1 33
M  V30 37 1 2 34
M  V30 38 1 2 35
M  V30 39 1 4 36
M  V30 40 1 4 37
M  V30 41 1 5 38
M  V30 42 1 5 39
M  V30 43 1 8 40
M  V30 44 1 9 41
M  V30 45 1 15 42
M  V30 46 1 17 43
M  V30 47 1 18 44
M  V30 48 1 19 45
M  V30 49 1 26 46
M  V30 50 1 29 47
M  V30 51 1 29 48
M  V30 52 1 30 49
M  V30 53 1 30 50
M  V30 END BOND
M  V30 END CTAB
M  END
>  <Dataset>  (325) 
ChEMBL_Kinases

>  <Ligand_Instance>  (325) 
nan

>  <PDB_ID>  (325) 
nan

>  <Standardized_SMILES>  (325) 
CCN1CCN(c2ccc3nnnc(Nc4cccc(OC(F)(F)F)c4)c3n2)CC1

>  <Name>  (325) 
nan

>  <Pocket>  (325) 
nan

>  <ATP_Site>  (325) 
nan

>  <Peripheral>  (325) 
nan

>  <Num_H_Atoms_ProtBoundConf>  (325) 
nan

>  <Num_Resolved_Atoms>  (325) 
nan

>  <Num_Not_Resolved_Atoms>  (325) 
nan

$$$$
CHEMBL508506
     RDKit          3D

  0  0  0  0  0  0  0  0  0  0999 V3000
M  V30 BEGIN CTAB
M  V30 COUNTS 52 54 0 0 0
M  V30 BEGIN ATOM
M  V30 1 C 2.865408 -2.533221 0.240081 0
M  V30 2 C 3.149453 -1.539559 -0.857424 0
M  V30 3 N 4.029678 -2.025944 -1.850078 0
M  V30 4 C 5.383523 -2.195940 -1.488241 0
M  V30 5 C 5.954371 -1.171921 -0.564397 0
M  V30 6 C 4.986239 -0.601922 0.414212 0
M  V30 7 C 3.721843 -0.240351 -0.296666 0
M  V30 8 C 2.741359 0.441375 0.582411 0
M  V30 9 O 2.730031 0.790588 1.788583 0
M  V30 10 N 1.518052 0.798005 -0.051245 0
M  V30 11 C 0.562717 1.474276 0.847156 0
M  V30 12 N 0.464754 2.580400 1.038143 0
M  V30 13 C -0.353069 3.269645 1.816929 0
M  V30 14 C -1.258307 2.422217 2.525257 0
M  V30 15 S -2.568094 2.781108 3.700070 0
M  V30 16 C -3.360693 1.220846 4.240915 0
M  V30 17 C -4.070483 0.578337 3.107232 0
M  V30 18 N -5.366038 0.755870 2.724433 0
M  V30 19 C -5.530913 -0.035809 1.658520 0
M  V30 20 C -4.356025 -0.700383 1.376497 0
M  V30 21 C -3.884920 -1.683730 0.367793 0
M  V30 22 C -3.315977 -1.025350 -0.851761 0
M  V30 23 C -5.085660 -2.512127 -0.092098 0
M  V30 24 C -2.882822 -2.643802 0.924155 0
M  V30 25 O -3.502445 -0.292620 2.284214 0
M  V30 26 S -0.798583 0.742199 1.964047 0
M  V30 27 H 3.557202 -3.405003 0.238800 0
M  V30 28 H 2.841282 -2.040515 1.245000 0
M  V30 29 H 1.832341 -2.978953 0.142813 0
M  V30 30 H 2.167705 -1.327418 -1.360902 0
M  V30 31 H 3.798037 -1.869444 -2.831618 0
M  V30 32 H 6.005900 -2.211774 -2.408334 0
M  V30 33 H 5.485469 -3.223908 -1.040012 0
M  V30 34 H 6.467452 -0.332126 -1.082646 0
M  V30 35 H 6.763711 -1.695717 0.020014 0
M  V30 36 H 4.778621 -1.319670 1.232074 0
M  V30 37 H 5.464212 0.281094 0.892275 0
M  V30 38 H 3.983783 0.384348 -1.173717 0
M  V30 39 H 1.313024 0.596553 -1.071673 0
M  V30 40 H -0.487248 4.324650 2.034567 0
M  V30 41 H -3.985534 1.376274 5.119261 0
M  V30 42 H -2.520061 0.558382 4.560458 0
M  V30 43 H -6.390814 -0.239456 1.002736 0
M  V30 44 H -2.799775 -1.808668 -1.451080 0
M  V30 45 H -2.574622 -0.231381 -0.625064 0
M  V30 46 H -4.125133 -0.575008 -1.494061 0
M  V30 47 H -4.795170 -3.148875 -0.961537 0
M  V30 48 H -5.458627 -3.183453 0.705795 0
M  V30 49 H -5.864107 -1.761167 -0.352768 0
M  V30 50 H -2.358471 -3.111221 0.046190 0
M  V30 51 H -2.117246 -2.160353 1.566040 0
M  V30 52 H -3.390988 -3.445924 1.482335 0
M  V30 END ATOM
M  V30 BEGIN BOND
M  V30 1 1 1 2
M  V30 2 1 2 3
M  V30 3 1 3 4
M  V30 4 1 4 5
M  V30 5 1 5 6
M  V30 6 1 6 7
M  V30 7 1 7 8
M  V30 8 2 8 9
M  V30 9 1 8 10
M  V30 10 1 10 11
M  V30 11 2 11 12
M  V30 12 1 12 13
M  V30 13 2 13 14
M  V30 14 1 14 15
M  V30 15 1 15 16
M  V30 16 1 16 17
M  V30 17 2 17 18
M  V30 18 1 18 19
M  V30 19 2 19 20
M  V30 20 1 20 21
M  V30 21 1 21 22
M  V30 22 1 21 23
M  V30 23 1 21 24
M  V30 24 1 20 25
M  V30 25 1 14 26
M  V30 26 1 7 2
M  V30 27 1 26 11
M  V30 28 1 25 17
M  V30 29 1 1 27
M  V30 30 1 1 28
M  V30 31 1 1 29
M  V30 32 1 2 30
M  V30 33 1 3 31
M  V30 34 1 4 32
M  V30 35 1 4 33
M  V30 36 1 5 34
M  V30 37 1 5 35
M  V30 38 1 6 36
M  V30 39 1 6 37
M  V30 40 1 7 38
M  V30 41 1 10 39
M  V30 42 1 13 40
M  V30 43 1 16 41
M  V30 44 1 16 42
M  V30 45 1 19 43
M  V30 46 1 22 44
M  V30 47 1 22 45
M  V30 48 1 22 46
M  V30 49 1 23 47
M  V30 50 1 23 48
M  V30 51 1 23 49
M  V30 52 1 24 50
M  V30 53 1 24 51
M  V30 54 1 24 52
M  V30 END BOND
M  V30 END CTAB
M  END
>  <Dataset>  (326) 
ChEMBL_Kinases

>  <Ligand_Instance>  (326) 
nan

>  <PDB_ID>  (326) 
nan

>  <Standardized_SMILES>  (326) 
CC1NCCCC1C(=O)Nc1ncc(SCc2ncc(C(C)(C)C)o2)s1

>  <Name>  (326) 
nan

>  <Pocket>  (326) 
nan

>  <ATP_Site>  (326) 
nan

>  <Peripheral>  (326) 
nan

>  <Num_H_Atoms_ProtBoundConf>  (326) 
nan

>  <Num_Resolved_Atoms>  (326) 
nan

>  <Num_Not_Resolved_Atoms>  (326) 
nan

$$$$
CHEMBL508515
     RDKit          3D

  0  0  0  0  0  0  0  0  0  0999 V3000
M  V30 BEGIN CTAB
M  V30 COUNTS 54 58 0 0 0
M  V30 BEGIN ATOM
M  V30 1 C 0.052033 0.092217 6.013832 0
M  V30 2 N 0.215627 -0.053733 4.577443 0
M  V30 3 C 0.437080 -1.462123 4.228246 0
M  V30 4 C 1.266712 0.781802 4.065861 0
M  V30 5 C 1.389943 0.613192 2.579050 0
M  V30 6 C 0.092748 1.001994 1.925347 0
M  V30 7 N 0.126908 0.874869 0.473625 0
M  V30 8 C 0.506032 1.858330 -0.395482 0
M  V30 9 C 0.927808 3.154743 -0.072926 0
M  V30 10 C 1.285389 4.058382 -1.050268 0
M  V30 11 C 1.212852 3.636319 -2.379283 0
M  V30 12 O 1.570170 4.536482 -3.373873 0
M  V30 13 C 0.790820 2.350612 -2.628547 0
M  V30 14 C 0.427954 1.423792 -1.699809 0
M  V30 15 C -0.011905 0.137848 -1.618872 0
M  V30 16 C -0.265623 -0.765530 -2.602914 0
M  V30 17 C -0.710228 -2.028589 -2.295823 0
M  V30 18 C -0.904588 -2.392645 -0.974527 0
M  V30 19 C -1.387330 -3.653961 -0.427477 0
M  V30 20 C -2.519348 -4.363829 -0.768716 0
M  V30 21 C -2.840604 -5.561339 -0.167063 0
M  V30 22 C -2.022566 -6.088763 0.809785 0
M  V30 23 C -0.871437 -5.443790 1.211332 0
M  V30 24 C -0.593551 -4.234955 0.569261 0
M  V30 25 C -0.641033 -1.458050 0.036539 0
M  V30 26 C -0.194826 -0.195179 -0.296592 0
M  V30 27 C -0.923981 -2.863927 -3.453479 0
M  V30 28 O -1.319855 -4.053169 -3.522806 0
M  V30 29 N -0.573730 -2.015956 -4.557389 0
M  V30 30 C -0.179643 -0.757930 -4.038318 0
M  V30 31 O 0.155317 0.091213 -4.873930 0
M  V30 32 H -1.002410 0.336008 6.263414 0
M  V30 33 H 0.254880 -0.879719 6.531840 0
M  V30 34 H 0.712474 0.874092 6.424805 0
M  V30 35 H 0.126712 -2.053563 5.136065 0
M  V30 36 H -0.265313 -1.771101 3.433634 0
M  V30 37 H 1.498167 -1.660785 4.002077 0
M  V30 38 H 1.084439 1.816474 4.374393 0
M  V30 39 H 2.211124 0.443775 4.583161 0
M  V30 40 H 2.254103 1.183946 2.180187 0
M  V30 41 H 1.616585 -0.452013 2.368516 0
M  V30 42 H -0.180938 2.037979 2.215206 0
M  V30 43 H -0.696415 0.343687 2.332240 0
M  V30 44 H 0.994097 3.509831 0.945231 0
M  V30 45 H 1.606091 5.045541 -0.795049 0
M  V30 46 H 0.820134 4.950200 -3.913977 0
M  V30 47 H 0.766171 2.117158 -3.663406 0
M  V30 48 H -3.134820 -3.908309 -1.531230 0
M  V30 49 H -3.722616 -6.082147 -0.456147 0
M  V30 50 H -2.280855 -7.026137 1.275567 0
M  V30 51 H -0.190779 -5.804947 1.969843 0
M  V30 52 H 0.326299 -3.726080 0.894806 0
M  V30 53 H -0.762751 -1.649746 1.098223 0
M  V30 54 H -0.640566 -2.385921 -5.552926 0
M  V30 END ATOM
M  V30 BEGIN BOND
M  V30 1 1 1 2
M  V30 2 1 2 3
M  V30 3 1 2 4
M  V30 4 1 4 5
M  V30 5 1 5 6
M  V30 6 1 6 7
M  V30 7 1 7 8
M  V30 8 2 8 9
M  V30 9 1 9 10
M  V30 10 2 10 11
M  V30 11 1 11 12
M  V30 12 1 11 13
M  V30 13 2 13 14
M  V30 14 1 14 15
M  V30 15 2 15 16
M  V30 16 1 16 17
M  V30 17 2 17 18
M  V30 18 1 18 19
M  V30 19 2 19 20
M  V30 20 1 20 21
M  V30 21 2 21 22
M  V30 22 1 22 23
M  V30 23 2 23 24
M  V30 24 1 18 25
M  V30 25 2 25 26
M  V30 26 1 17 27
M  V30 27 2 27 28
M  V30 28 1 27 29
M  V30 29 1 29 30
M  V30 30 2 30 31
M  V30 31 1 26 7
M  V30 32 1 14 8
M  V30 33 1 26 15
M  V30 34 1 30 16
M  V30 35 1 24 19
M  V30 36 1 1 32
M  V30 37 1 1 33
M  V30 38 1 1 34
M  V30 39 1 3 35
M  V30 40 1 3 36
M  V30 41 1 3 37
M  V30 42 1 4 38
M  V30 43 1 4 39
M  V30 44 1 5 40
M  V30 45 1 5 41
M  V30 46 1 6 42
M  V30 47 1 6 43
M  V30 48 1 9 44
M  V30 49 1 10 45
M  V30 50 1 12 46
M  V30 51 1 13 47
M  V30 52 1 20 48
M  V30 53 1 21 49
M  V30 54 1 22 50
M  V30 55 1 23 51
M  V30 56 1 24 52
M  V30 57 1 25 53
M  V30 58 1 29 54
M  V30 END BOND
M  V30 END CTAB
M  END
>  <Dataset>  (327) 
ChEMBL_Kinases

>  <Ligand_Instance>  (327) 
nan

>  <PDB_ID>  (327) 
nan

>  <Standardized_SMILES>  (327) 
CN(C)CCCn1c2ccc(O)cc2c2c3c(c(-c4ccccc4)cc21)C(=O)NC3=O

>  <Name>  (327) 
nan

>  <Pocket>  (327) 
nan

>  <ATP_Site>  (327) 
nan

>  <Peripheral>  (327) 
nan

>  <Num_H_Atoms_ProtBoundConf>  (327) 
nan

>  <Num_Resolved_Atoms>  (327) 
nan

>  <Num_Not_Resolved_Atoms>  (327) 
nan

$$$$
CHEMBL3763439
     RDKit          3D

  0  0  0  0  0  0  0  0  0  0999 V3000
M  V30 BEGIN CTAB
M  V30 COUNTS 72 76 0 0 0
M  V30 BEGIN ATOM
M  V30 1 C 6.206998 -8.170573 -1.667755 0
M  V30 2 N 5.657465 -7.123481 -2.510903 0
M  V30 3 C 6.510362 -6.840123 -3.609794 0
M  V30 4 C 7.022666 -5.442628 -3.518330 0
M  V30 5 N 5.955184 -4.463156 -3.492623 0
M  V30 6 C 6.438822 -3.096534 -3.489441 0
M  V30 7 C 5.186983 -2.201093 -3.503338 0
M  V30 8 C 5.564529 -0.754926 -3.492225 0
M  V30 9 O 4.514947 0.155645 -3.491867 0
M  V30 10 C 3.534244 0.356859 -2.571044 0
M  V30 11 C 3.316302 -0.273675 -1.370677 0
M  V30 12 C 2.270901 0.041598 -0.547702 0
M  V30 13 C 1.349054 1.006679 -0.836052 0
M  V30 14 N 0.250481 1.317848 0.005537 0
M  V30 15 C -0.647548 2.395461 -0.206838 0
M  V30 16 O -0.716056 3.293969 -1.084423 0
M  V30 17 C -1.719294 2.519451 0.765505 0
M  V30 18 C -2.890856 3.085028 0.829292 0
M  V30 19 C -3.808385 3.060885 1.959479 0
M  V30 20 C -3.997480 1.928079 2.720858 0
M  V30 21 C -4.857628 1.862569 3.808856 0
M  V30 22 C -5.562370 3.027170 4.131076 0
M  V30 23 O -6.423679 2.939464 5.231406 0
M  V30 24 C -7.754993 2.567785 5.136764 0
M  V30 25 C -8.456054 2.517688 6.323942 0
M  V30 26 C -9.808137 2.156334 6.362539 0
M  V30 27 C -10.393507 1.855390 5.149927 0
M  V30 28 C -11.801782 1.478701 5.190490 0
M  V30 29 O -12.409849 1.442301 6.299595 0
M  V30 30 O -12.569424 1.142555 4.080666 0
M  V30 31 C -9.733143 1.891616 3.938751 0
M  V30 32 C -8.398805 2.254871 3.957854 0
M  V30 33 C -5.392208 4.172287 3.386698 0
M  V30 34 C -4.516876 4.208708 2.293857 0
M  V30 35 S -1.068372 1.594711 2.193028 0
M  V30 36 C -0.041612 0.521654 1.144865 0
M  V30 37 S 0.260455 -0.952937 1.686337 0
M  V30 38 C 1.551200 1.652233 -2.036446 0
M  V30 39 C 2.607270 1.353516 -2.897194 0
M  V30 40 C 5.019272 -4.722322 -2.418247 0
M  V30 41 C 5.155978 -6.039545 -1.753468 0
M  V30 42 H 5.558118 -8.250974 -0.746448 0
M  V30 43 H 7.200666 -7.843719 -1.267215 0
M  V30 44 H 6.305375 -9.132133 -2.181841 0
M  V30 45 H 5.939191 -6.952989 -4.556814 0
M  V30 46 H 7.387761 -7.525177 -3.571411 0
M  V30 47 H 7.681995 -5.306076 -2.637178 0
M  V30 48 H 7.638062 -5.226228 -4.424434 0
M  V30 49 H 6.970332 -2.888452 -4.436066 0
M  V30 50 H 7.095447 -2.857400 -2.642788 0
M  V30 51 H 4.439211 -2.524573 -2.781977 0
M  V30 52 H 4.720197 -2.462992 -4.513296 0
M  V30 53 H 6.196848 -0.571730 -4.394447 0
M  V30 54 H 6.269905 -0.567802 -2.634624 0
M  V30 55 H 4.019010 -1.024819 -1.095974 0
M  V30 56 H 2.243594 -0.534063 0.354542 0
M  V30 57 H -3.158539 3.620941 -0.097475 0
M  V30 58 H -3.487652 0.996912 2.521384 0
M  V30 59 H -4.997311 0.978643 4.393530 0
M  V30 60 H -8.014814 2.749732 7.284935 0
M  V30 61 H -10.355002 2.119264 7.306288 0
M  V30 62 H -13.533286 0.834902 4.159611 0
M  V30 63 H -10.194165 1.655774 2.991685 0
M  V30 64 H -7.765135 2.321715 3.067792 0
M  V30 65 H -5.957923 5.028273 3.681700 0
M  V30 66 H -4.423526 5.142491 1.742525 0
M  V30 67 H 0.903091 2.437342 -2.398349 0
M  V30 68 H 2.710073 1.910194 -3.844151 0
M  V30 69 H 5.289576 -3.949716 -1.634496 0
M  V30 70 H 3.966582 -4.491680 -2.676487 0
M  V30 71 H 4.115617 -6.341353 -1.419683 0
M  V30 72 H 5.713919 -5.982498 -0.777159 0
M  V30 END ATOM
M  V30 BEGIN BOND
M  V30 1 1 1 2
M  V30 2 1 2 3
M  V30 3 1 3 4
M  V30 4 1 4 5
M  V30 5 1 5 6
M  V30 6 1 6 7
M  V30 7 1 7 8
M  V30 8 1 8 9
M  V30 9 1 9 10
M  V30 10 2 10 11
M  V30 11 1 11 12
M  V30 12 2 12 13
M  V30 13 1 13 14
M  V30 14 1 14 15
M  V30 15 2 15 16
M  V30 16 1 15 17
M  V30 17 2 17 18
M  V30 18 1 18 19
M  V30 19 2 19 20
M  V30 20 1 20 21
M  V30 21 2 21 22
M  V30 22 1 22 23
M  V30 23 1 23 24
M  V30 24 2 24 25
M  V30 25 1 25 26
M  V30 26 2 26 27
M  V30 27 1 27 28
M  V30 28 2 28 29
M  V30 29 1 28 30
M  V30 30 1 27 31
M  V30 31 2 31 32
M  V30 32 1 22 33
M  V30 33 2 33 34
M  V30 34 1 17 35
M  V30 35 1 35 36
M  V30 36 2 36 37
M  V30 37 1 13 38
M  V30 38 2 38 39
M  V30 39 1 5 40
M  V30 40 1 40 41
M  V30 41 1 41 2
M  V30 42 1 39 10
M  V30 43 1 36 14
M  V30 44 1 34 19
M  V30 45 1 32 24
M  V30 46 1 1 42
M  V30 47 1 1 43
M  V30 48 1 1 44
M  V30 49 1 3 45
M  V30 50 1 3 46
M  V30 51 1 4 47
M  V30 52 1 4 48
M  V30 53 1 6 49
M  V30 54 1 6 50
M  V30 55 1 7 51
M  V30 56 1 7 52
M  V30 57 1 8 53
M  V30 58 1 8 54
M  V30 59 1 11 55
M  V30 60 1 12 56
M  V30 61 1 18 57
M  V30 62 1 20 58
M  V30 63 1 21 59
M  V30 64 1 25 60
M  V30 65 1 26 61
M  V30 66 1 30 62
M  V30 67 1 31 63
M  V30 68 1 32 64
M  V30 69 1 33 65
M  V30 70 1 34 66
M  V30 71 1 38 67
M  V30 72 1 39 68
M  V30 73 1 40 69
M  V30 74 1 40 70
M  V30 75 1 41 71
M  V30 76 1 41 72
M  V30 END BOND
M  V30 END CTAB
M  END
>  <Dataset>  (328) 
ChEMBL_Kinases

>  <Ligand_Instance>  (328) 
nan

>  <PDB_ID>  (328) 
nan

>  <Standardized_SMILES>  (328) 
CN1CCN(CCCOc2ccc(N3C(=O)/C(=C/c4ccc(Oc5ccc(C(=O)O)cc5)cc4)SC3=S)cc2)CC1

>  <Name>  (328) 
nan

>  <Pocket>  (328) 
nan

>  <ATP_Site>  (328) 
nan

>  <Peripheral>  (328) 
nan

>  <Num_H_Atoms_ProtBoundConf>  (328) 
nan

>  <Num_Resolved_Atoms>  (328) 
nan

>  <Num_Not_Resolved_Atoms>  (328) 
nan

$$$$
CHEMBL3763424
     RDKit          3D

  0  0  0  0  0  0  0  0  0  0999 V3000
M  V30 BEGIN CTAB
M  V30 COUNTS 44 47 0 0 0
M  V30 BEGIN ATOM
M  V30 1 F 6.308115 -2.566808 2.330828 0
M  V30 2 C 5.081679 -2.021051 1.984392 0
M  V30 3 F 4.584811 -2.844258 0.962867 0
M  V30 4 F 4.228104 -1.965839 3.052670 0
M  V30 5 O 5.262701 -0.731615 1.420610 0
M  V30 6 C 4.128774 -0.033703 1.028303 0
M  V30 7 C 3.633987 0.751809 2.068088 0
M  V30 8 C 2.511537 1.527297 1.892563 0
M  V30 9 C 1.883029 1.504061 0.643090 0
M  V30 10 C 2.383526 0.723594 -0.371884 0
M  V30 11 N 1.752459 0.666556 -1.634801 0
M  V30 12 C 0.591554 1.369459 -2.055522 0
M  V30 13 N 0.524224 2.327908 -2.988096 0
M  V30 14 N -0.571246 2.959951 -3.342422 0
M  V30 15 N -1.747304 2.702378 -2.797246 0
M  V30 16 C -1.788917 1.732083 -1.824510 0
M  V30 17 C -3.017135 1.443895 -1.216660 0
M  V30 18 C -3.046510 0.471217 -0.226466 0
M  V30 19 C -1.886805 -0.187410 0.138416 0
M  V30 20 N -1.818183 -1.187296 1.173555 0
M  V30 21 C -2.014146 -0.906111 2.596883 0
M  V30 22 C -1.328828 -1.921554 3.460229 0
M  V30 23 N -1.553399 -3.254438 2.991487 0
M  V30 24 C -0.994592 -3.415369 1.669364 0
M  V30 25 C -1.556357 -2.484074 0.641211 0
M  V30 26 N -0.724347 0.119612 -0.473373 0
M  V30 27 C -0.625381 1.049811 -1.436455 0
M  V30 28 C 3.511651 -0.053635 -0.192076 0
M  V30 29 H 4.060801 0.828855 3.076865 0
M  V30 30 H 2.071561 2.167207 2.659656 0
M  V30 31 H 0.995917 2.114668 0.499729 0
M  V30 32 H 2.107392 0.077349 -2.417136 0
M  V30 33 H -3.924522 1.955751 -1.505933 0
M  V30 34 H -3.943164 0.186429 0.292753 0
M  V30 35 H -3.100851 -0.854427 2.764655 0
M  V30 36 H -1.581623 0.112705 2.770624 0
M  V30 37 H -1.732299 -1.810163 4.486800 0
M  V30 38 H -0.229999 -1.723571 3.413727 0
M  V30 39 H -2.514343 -3.593089 3.104793 0
M  V30 40 H 0.105677 -3.327144 1.768131 0
M  V30 41 H -1.217886 -4.463580 1.371754 0
M  V30 42 H -2.518232 -2.938861 0.262928 0
M  V30 43 H -0.870738 -2.485044 -0.236539 0
M  V30 44 H 3.977195 -0.694376 -0.930263 0
M  V30 END ATOM
M  V30 BEGIN BOND
M  V30 1 1 1 2
M  V30 2 1 2 3
M  V30 3 1 2 4
M  V30 4 1 2 5
M  V30 5 1 5 6
M  V30 6 2 6 7
M  V30 7 1 7 8
M  V30 8 2 8 9
M  V30 9 1 9 10
M  V30 10 1 10 11
M  V30 11 1 11 12
M  V30 12 2 12 13
M  V30 13 1 13 14
M  V30 14 2 14 15
M  V30 15 1 15 16
M  V30 16 2 16 17
M  V30 17 1 17 18
M  V30 18 2 18 19
M  V30 19 1 19 20
M  V30 20 1 20 21
M  V30 21 1 21 22
M  V30 22 1 22 23
M  V30 23 1 23 24
M  V30 24 1 24 25
M  V30 25 1 19 26
M  V30 26 2 26 27
M  V30 27 2 10 28
M  V30 28 1 28 6
M  V30 29 1 27 12
M  V30 30 1 27 16
M  V30 31 1 25 20
M  V30 32 1 7 29
M  V30 33 1 8 30
M  V30 34 1 9 31
M  V30 35 1 11 32
M  V30 36 1 17 33
M  V30 37 1 18 34
M  V30 38 1 21 35
M  V30 39 1 21 36
M  V30 40 1 22 37
M  V30 41 1 22 38
M  V30 42 1 23 39
M  V30 43 1 24 40
M  V30 44 1 24 41
M  V30 45 1 25 42
M  V30 46 1 25 43
M  V30 47 1 28 44
M  V30 END BOND
M  V30 END CTAB
M  END
>  <Dataset>  (329) 
ChEMBL_Kinases

>  <Ligand_Instance>  (329) 
nan

>  <PDB_ID>  (329) 
nan

>  <Standardized_SMILES>  (329) 
FC(F)(F)Oc1cccc(Nc2nnnc3ccc(N4CCNCC4)nc23)c1

>  <Name>  (329) 
nan

>  <Pocket>  (329) 
nan

>  <ATP_Site>  (329) 
nan

>  <Peripheral>  (329) 
nan

>  <Num_H_Atoms_ProtBoundConf>  (329) 
nan

>  <Num_Resolved_Atoms>  (329) 
nan

>  <Num_Not_Resolved_Atoms>  (329) 
nan

$$$$
CHEMBL3763391
     RDKit          3D

  0  0  0  0  0  0  0  0  0  0999 V3000
M  V30 BEGIN CTAB
M  V30 COUNTS 74 78 0 0 0
M  V30 BEGIN ATOM
M  V30 1 C 3.263898 -6.077797 -1.262501 0
M  V30 2 N 4.281751 -5.232701 -1.858294 0
M  V30 3 C 4.492614 -5.706066 -3.214760 0
M  V30 4 C 5.532806 -4.881394 -3.936802 0
M  V30 5 N 6.428791 -4.202524 -3.074068 0
M  V30 6 C 6.163271 -2.782307 -2.900598 0
M  V30 7 C 6.425417 -1.992972 -4.145109 0
M  V30 8 C 6.210627 -0.511371 -4.055152 0
M  V30 9 O 5.005768 -0.015210 -3.724478 0
M  V30 10 C 4.132182 0.019599 -2.708593 0
M  V30 11 C 3.997080 -0.427224 -1.413435 0
M  V30 12 C 2.913161 -0.213742 -0.594889 0
M  V30 13 C 1.874672 0.516210 -1.133136 0
M  V30 14 N 0.804063 0.671134 -0.189651 0
M  V30 15 C -0.264670 -0.247529 -0.071625 0
M  V30 16 O -0.397282 -1.301089 -0.781942 0
M  V30 17 C -1.253036 0.078991 0.944912 0
M  V30 18 C -2.132938 -0.691943 1.511184 0
M  V30 19 C -3.061649 -0.206795 2.523807 0
M  V30 20 C -2.841538 0.723485 3.516071 0
M  V30 21 C -3.853726 1.053918 4.393435 0
M  V30 22 C -5.098928 0.463219 4.295899 0
M  V30 23 O -6.048440 0.862396 5.224962 0
M  V30 24 C -6.912030 1.912474 4.954651 0
M  V30 25 C -6.815697 3.271378 5.154926 0
M  V30 26 C -7.849767 4.100417 4.783195 0
M  V30 27 C -8.992091 3.614664 4.210734 0
M  V30 28 S -10.286953 4.674886 3.751328 0
M  V30 29 N -10.184697 5.251171 2.149257 0
M  V30 30 O -11.624269 3.975230 3.922491 0
M  V30 31 O -10.321941 5.887807 4.656796 0
M  V30 32 C -9.121655 2.261940 3.995904 0
M  V30 33 C -8.079054 1.404603 4.368385 0
M  V30 34 C -5.373066 -0.475791 3.319233 0
M  V30 35 C -4.332350 -0.775200 2.464470 0
M  V30 36 S -0.970703 1.841282 1.251070 0
M  V30 37 C 0.760314 1.780825 0.700258 0
M  V30 38 S 2.015218 2.754862 1.104947 0
M  V30 39 C 1.902308 1.014003 -2.419681 0
M  V30 40 C 3.039882 0.761175 -3.206787 0
M  V30 41 C 6.703296 -4.867132 -1.833009 0
M  V30 42 C 5.518968 -5.439539 -1.138509 0
M  V30 43 H 3.606823 -7.140380 -1.149650 0
M  V30 44 H 2.347667 -6.147762 -1.902223 0
M  V30 45 H 2.909220 -5.644701 -0.307474 0
M  V30 46 H 3.519344 -5.743328 -3.751616 0
M  V30 47 H 4.865236 -6.749251 -3.156898 0
M  V30 48 H 6.113310 -5.502137 -4.672410 0
M  V30 49 H 4.966292 -4.145417 -4.541776 0
M  V30 50 H 5.055771 -2.711312 -2.696970 0
M  V30 51 H 6.719707 -2.339131 -2.068896 0
M  V30 52 H 7.524533 -2.150570 -4.396249 0
M  V30 53 H 5.903513 -2.431071 -5.038704 0
M  V30 54 H 7.063727 -0.141869 -3.402181 0
M  V30 55 H 6.505265 -0.062766 -5.062046 0
M  V30 56 H 4.878786 -0.962749 -1.126648 0
M  V30 57 H 2.999095 -0.642054 0.375534 0
M  V30 58 H -2.152158 -1.726802 1.199422 0
M  V30 59 H -1.844232 1.136440 3.525754 0
M  V30 60 H -3.535778 1.797909 5.118481 0
M  V30 61 H -5.867920 3.521826 5.612400 0
M  V30 62 H -7.684602 5.158677 4.980084 0
M  V30 63 H -9.718659 6.175259 2.135276 0
M  V30 64 H -9.833401 4.556632 1.479373 0
M  V30 65 H -10.038403 1.903044 3.540316 0
M  V30 66 H -8.311906 0.352036 4.141667 0
M  V30 67 H -6.341936 -0.934154 3.244627 0
M  V30 68 H -4.594008 -1.526062 1.703302 0
M  V30 69 H 1.006473 1.556777 -2.663696 0
M  V30 70 H 2.843348 1.242759 -4.172258 0
M  V30 71 H 7.454170 -5.664220 -2.000593 0
M  V30 72 H 7.212133 -4.120783 -1.162017 0
M  V30 73 H 5.635931 -6.548624 -1.018659 0
M  V30 74 H 5.379268 -5.028768 -0.108702 0
M  V30 END ATOM
M  V30 BEGIN BOND
M  V30 1 1 1 2
M  V30 2 1 2 3
M  V30 3 1 3 4
M  V30 4 1 4 5
M  V30 5 1 5 6
M  V30 6 1 6 7
M  V30 7 1 7 8
M  V30 8 1 8 9
M  V30 9 1 9 10
M  V30 10 2 10 11
M  V30 11 1 11 12
M  V30 12 2 12 13
M  V30 13 1 13 14
M  V30 14 1 14 15
M  V30 15 2 15 16
M  V30 16 1 15 17
M  V30 17 2 17 18
M  V30 18 1 18 19
M  V30 19 2 19 20
M  V30 20 1 20 21
M  V30 21 2 21 22
M  V30 22 1 22 23
M  V30 23 1 23 24
M  V30 24 2 24 25
M  V30 25 1 25 26
M  V30 26 2 26 27
M  V30 27 1 27 28
M  V30 28 1 28 29
M  V30 29 2 28 30
M  V30 30 2 28 31
M  V30 31 1 27 32
M  V30 32 2 32 33
M  V30 33 1 22 34
M  V30 34 2 34 35
M  V30 35 1 17 36
M  V30 36 1 36 37
M  V30 37 2 37 38
M  V30 38 1 13 39
M  V30 39 2 39 40
M  V30 40 1 5 41
M  V30 41 1 41 42
M  V30 42 1 42 2
M  V30 43 1 40 10
M  V30 44 1 37 14
M  V30 45 1 35 19
M  V30 46 1 33 24
M  V30 47 1 1 43
M  V30 48 1 1 44
M  V30 49 1 1 45
M  V30 50 1 3 46
M  V30 51 1 3 47
M  V30 52 1 4 48
M  V30 53 1 4 49
M  V30 54 1 6 50
M  V30 55 1 6 51
M  V30 56 1 7 52
M  V30 57 1 7 53
M  V30 58 1 8 54
M  V30 59 1 8 55
M  V30 60 1 11 56
M  V30 61 1 12 57
M  V30 62 1 18 58
M  V30 63 1 20 59
M  V30 64 1 21 60
M  V30 65 1 25 61
M  V30 66 1 26 62
M  V30 67 1 29 63
M  V30 68 1 29 64
M  V30 69 1 32 65
M  V30 70 1 33 66
M  V30 71 1 34 67
M  V30 72 1 35 68
M  V30 73 1 39 69
M  V30 74 1 40 70
M  V30 75 1 41 71
M  V30 76 1 41 72
M  V30 77 1 42 73
M  V30 78 1 42 74
M  V30 END BOND
M  V30 END CTAB
M  END
>  <Dataset>  (330) 
ChEMBL_Kinases

>  <Ligand_Instance>  (330) 
nan

>  <PDB_ID>  (330) 
nan

>  <Standardized_SMILES>  (330) 
CN1CCN(CCCOc2ccc(N3C(=O)/C(=C/c4ccc(Oc5ccc(S(N)(=O)=O)cc5)cc4)SC3=S)cc2)CC1

>  <Name>  (330) 
nan

>  <Pocket>  (330) 
nan

>  <ATP_Site>  (330) 
nan

>  <Peripheral>  (330) 
nan

>  <Num_H_Atoms_ProtBoundConf>  (330) 
nan

>  <Num_Resolved_Atoms>  (330) 
nan

>  <Num_Not_Resolved_Atoms>  (330) 
nan

$$$$
CHEMBL508516
     RDKit          3D

  0  0  0  0  0  0  0  0  0  0999 V3000
M  V30 BEGIN CTAB
M  V30 COUNTS 54 58 0 0 0
M  V30 BEGIN ATOM
M  V30 1 C 3.797521 0.475385 4.195849 0
M  V30 2 N 2.665201 -0.334336 4.377743 0
M  V30 3 C 2.042809 -0.385629 5.643165 0
M  V30 4 C 2.394149 -1.374125 3.466350 0
M  V30 5 C 2.001118 -0.940042 2.075407 0
M  V30 6 C 0.759295 -0.101592 2.068751 0
M  V30 7 N 0.354462 0.331694 0.744456 0
M  V30 8 C 0.680194 1.439651 0.052852 0
M  V30 9 C 1.519950 2.454694 0.492374 0
M  V30 10 C 1.776258 3.545022 -0.314116 0
M  V30 11 C 1.178285 3.599351 -1.564428 0
M  V30 12 O 1.452850 4.702615 -2.349735 0
M  V30 13 C 0.357955 2.559112 -1.935456 0
M  V30 14 C 0.071127 1.463124 -1.182438 0
M  V30 15 C -0.654934 0.313790 -1.233416 0
M  V30 16 C -1.451466 -0.177869 -2.218502 0
M  V30 17 C -2.094900 -1.378496 -2.045382 0
M  V30 18 C -1.924910 -2.077171 -0.865538 0
M  V30 19 C -2.555094 -3.364356 -0.570296 0
M  V30 20 C -3.788658 -3.487269 0.036446 0
M  V30 21 Cl -4.607010 -1.996989 0.452273 0
M  V30 22 C -4.282335 -4.759802 0.268804 0
M  V30 23 C -3.544357 -5.872245 -0.104376 0
M  V30 24 C -2.315606 -5.715346 -0.708659 0
M  V30 25 C -1.793195 -4.457409 -0.955164 0
M  V30 26 Cl -0.229832 -4.319300 -1.725238 0
M  V30 27 C -1.112333 -1.583216 0.148885 0
M  V30 28 C -0.484058 -0.379963 -0.057999 0
M  V30 29 C -2.906792 -1.758806 -3.195058 0
M  V30 30 O -3.609526 -2.790752 -3.343283 0
M  V30 31 N -2.709215 -0.670387 -4.115701 0
M  V30 32 C -1.836810 0.270213 -3.521954 0
M  V30 33 O -1.580104 1.263255 -4.210949 0
M  V30 34 H 4.072567 0.942282 5.171628 0
M  V30 35 H 4.663401 -0.161469 3.894430 0
M  V30 36 H 3.703897 1.314908 3.475478 0
M  V30 37 H 1.634982 -1.423655 5.798137 0
M  V30 38 H 1.215036 0.309136 5.822903 0
M  V30 39 H 2.814593 -0.243054 6.439118 0
M  V30 40 H 1.568584 -1.980445 3.859806 0
M  V30 41 H 3.294621 -2.015850 3.366975 0
M  V30 42 H 2.823797 -0.360774 1.579670 0
M  V30 43 H 1.821398 -1.858051 1.478835 0
M  V30 44 H -0.051282 -0.689764 2.567404 0
M  V30 45 H 0.897296 0.796091 2.706643 0
M  V30 46 H 1.992138 2.428523 1.463915 0
M  V30 47 H 2.428437 4.343163 0.012707 0
M  V30 48 H 0.771639 4.930633 -3.062402 0
M  V30 49 H -0.062207 2.673909 -2.903440 0
M  V30 50 H -5.264406 -4.764400 0.752434 0
M  V30 51 H -4.034713 -6.806963 0.128365 0
M  V30 52 H -1.792099 -6.622110 -0.975019 0
M  V30 53 H -0.970374 -2.120060 1.078259 0
M  V30 54 H -3.206385 -0.708307 -5.052815 0
M  V30 END ATOM
M  V30 BEGIN BOND
M  V30 1 1 1 2
M  V30 2 1 2 3
M  V30 3 1 2 4
M  V30 4 1 4 5
M  V30 5 1 5 6
M  V30 6 1 6 7
M  V30 7 1 7 8
M  V30 8 2 8 9
M  V30 9 1 9 10
M  V30 10 2 10 11
M  V30 11 1 11 12
M  V30 12 1 11 13
M  V30 13 2 13 14
M  V30 14 1 14 15
M  V30 15 2 15 16
M  V30 16 1 16 17
M  V30 17 2 17 18
M  V30 18 1 18 19
M  V30 19 2 19 20
M  V30 20 1 20 21
M  V30 21 1 20 22
M  V30 22 2 22 23
M  V30 23 1 23 24
M  V30 24 2 24 25
M  V30 25 1 25 26
M  V30 26 1 18 27
M  V30 27 2 27 28
M  V30 28 1 17 29
M  V30 29 2 29 30
M  V30 30 1 29 31
M  V30 31 1 31 32
M  V30 32 2 32 33
M  V30 33 1 28 7
M  V30 34 1 14 8
M  V30 35 1 28 15
M  V30 36 1 32 16
M  V30 37 1 25 19
M  V30 38 1 1 34
M  V30 39 1 1 35
M  V30 40 1 1 36
M  V30 41 1 3 37
M  V30 42 1 3 38
M  V30 43 1 3 39
M  V30 44 1 4 40
M  V30 45 1 4 41
M  V30 46 1 5 42
M  V30 47 1 5 43
M  V30 48 1 6 44
M  V30 49 1 6 45
M  V30 50 1 9 46
M  V30 51 1 10 47
M  V30 52 1 12 48
M  V30 53 1 13 49
M  V30 54 1 22 50
M  V30 55 1 23 51
M  V30 56 1 24 52
M  V30 57 1 27 53
M  V30 58 1 31 54
M  V30 END BOND
M  V30 END CTAB
M  END
>  <Dataset>  (331) 
ChEMBL_Kinases

>  <Ligand_Instance>  (331) 
nan

>  <PDB_ID>  (331) 
nan

>  <Standardized_SMILES>  (331) 
CN(C)CCCn1c2ccc(O)cc2c2c3c(c(-c4c(Cl)cccc4Cl)cc21)C(=O)NC3=O

>  <Name>  (331) 
nan

>  <Pocket>  (331) 
nan

>  <ATP_Site>  (331) 
nan

>  <Peripheral>  (331) 
nan

>  <Num_H_Atoms_ProtBoundConf>  (331) 
nan

>  <Num_Resolved_Atoms>  (331) 
nan

>  <Num_Not_Resolved_Atoms>  (331) 
nan

$$$$
CHEMBL3763318
     RDKit          3D

  0  0  0  0  0  0  0  0  0  0999 V3000
M  V30 BEGIN CTAB
M  V30 COUNTS 45 46 0 0 0
M  V30 BEGIN ATOM
M  V30 1 C -5.229166 -4.298987 2.878867 0
M  V30 2 O -6.002551 -3.928557 1.747449 0
M  V30 3 C -5.520209 -3.072837 0.771899 0
M  V30 4 C -4.240115 -2.600480 0.959469 0
M  V30 5 C -3.736838 -1.746748 0.003210 0
M  V30 6 C -2.426174 -1.141666 -0.006920 0
M  V30 7 C -1.812556 -0.315435 -0.819353 0
M  V30 8 C -0.475371 0.126853 -0.566751 0
M  V30 9 O 0.234614 -0.292746 0.539983 0
M  V30 10 C 0.153177 0.956027 -1.373231 0
M  V30 11 C 1.497052 1.502943 -1.272208 0
M  V30 12 O 1.886590 2.300230 -2.192771 0
M  V30 13 C 2.450390 1.225720 -0.212075 0
M  V30 14 C 3.648846 1.779239 -0.212647 0
M  V30 15 C 4.684654 1.581492 0.786566 0
M  V30 16 C 4.593913 0.789055 1.908840 0
M  V30 17 C 5.556454 0.579612 2.873587 0
M  V30 18 C 6.740305 1.267210 2.647933 0
M  V30 19 C 7.857697 1.123646 3.617329 0
M  V30 20 C 6.934754 2.085074 1.557887 0
M  V30 21 C 5.901475 2.220402 0.656102 0
M  V30 22 C -4.535992 -1.406115 -1.092686 0
M  V30 23 C -5.817554 -1.913851 -1.226608 0
M  V30 24 C -6.341707 -2.772549 -0.278265 0
M  V30 25 O -7.628908 -3.287477 -0.405109 0
M  V30 26 H -5.768896 -5.011449 3.525364 0
M  V30 27 H -4.233708 -4.693539 2.604746 0
M  V30 28 H -5.075507 -3.378074 3.501957 0
M  V30 29 H -3.596222 -2.836892 1.783958 0
M  V30 30 H -1.830504 -1.458972 0.869033 0
M  V30 31 H -2.441866 -0.044444 -1.652637 0
M  V30 32 H 0.704269 -1.183264 0.485687 0
M  V30 33 H -0.455521 1.258614 -2.238411 0
M  V30 34 H 2.332716 0.590229 0.644986 0
M  V30 35 H 3.893291 2.458829 -1.045163 0
M  V30 36 H 3.670568 0.253519 2.081742 0
M  V30 37 H 5.395848 -0.057119 3.717407 0
M  V30 38 H 8.419998 0.199513 3.331235 0
M  V30 39 H 8.552456 1.992433 3.579673 0
M  V30 40 H 7.549579 0.999358 4.655962 0
M  V30 41 H 7.862547 2.614869 1.393568 0
M  V30 42 H 6.074682 2.870884 -0.197340 0
M  V30 43 H -4.307204 -0.752893 -1.934695 0
M  V30 44 H -6.489923 -1.687488 -2.058095 0
M  V30 45 H -7.800550 -4.267171 -0.619325 0
M  V30 END ATOM
M  V30 BEGIN BOND
M  V30 1 1 1 2
M  V30 2 1 2 3
M  V30 3 2 3 4
M  V30 4 1 4 5
M  V30 5 1 5 6
M  V30 6 2 6 7
M  V30 7 1 7 8
M  V30 8 1 8 9
M  V30 9 2 8 10
M  V30 10 1 10 11
M  V30 11 2 11 12
M  V30 12 1 11 13
M  V30 13 2 13 14
M  V30 14 1 14 15
M  V30 15 2 15 16
M  V30 16 1 16 17
M  V30 17 2 17 18
M  V30 18 1 18 19
M  V30 19 1 18 20
M  V30 20 2 20 21
M  V30 21 2 5 22
M  V30 22 1 22 23
M  V30 23 2 23 24
M  V30 24 1 24 25
M  V30 25 1 24 3
M  V30 26 1 21 15
M  V30 27 1 1 26
M  V30 28 1 1 27
M  V30 29 1 1 28
M  V30 30 1 4 29
M  V30 31 1 6 30
M  V30 32 1 7 31
M  V30 33 1 9 32
M  V30 34 1 10 33
M  V30 35 1 13 34
M  V30 36 1 14 35
M  V30 37 1 16 36
M  V30 38 1 17 37
M  V30 39 1 19 38
M  V30 40 1 19 39
M  V30 41 1 19 40
M  V30 42 1 20 41
M  V30 43 1 21 42
M  V30 44 1 22 43
M  V30 45 1 23 44
M  V30 46 1 25 45
M  V30 END BOND
M  V30 END CTAB
M  END
>  <Dataset>  (332) 
ChEMBL_Kinases

>  <Ligand_Instance>  (332) 
nan

>  <PDB_ID>  (332) 
nan

>  <Standardized_SMILES>  (332) 
COc1cc(/C=C/C(O)=C/C(=O)/C=C/c2ccc(C)cc2)ccc1O

>  <Name>  (332) 
nan

>  <Pocket>  (332) 
nan

>  <ATP_Site>  (332) 
nan

>  <Peripheral>  (332) 
nan

>  <Num_H_Atoms_ProtBoundConf>  (332) 
nan

>  <Num_Resolved_Atoms>  (332) 
nan

>  <Num_Not_Resolved_Atoms>  (332) 
nan

$$$$
CHEMBL376262
     RDKit          3D

  0  0  0  0  0  0  0  0  0  0999 V3000
M  V30 BEGIN CTAB
M  V30 COUNTS 48 51 0 0 0
M  V30 BEGIN ATOM
M  V30 1 C 2.319050 -2.844129 7.691054 0
M  V30 2 O 1.309227 -2.885254 6.733099 0
M  V30 3 C 1.444006 -2.606528 5.382419 0
M  V30 4 C 2.601421 -2.236037 4.729497 0
M  V30 5 C 2.588354 -1.984901 3.355355 0
M  V30 6 N 3.601204 -1.617502 2.549168 0
M  V30 7 C 3.122079 -1.489467 1.296583 0
M  V30 8 N 1.827560 -1.776765 1.339776 0
M  V30 9 C 0.767965 -1.814914 0.310215 0
M  V30 10 C 0.217828 -0.726805 -0.223725 0
M  V30 11 C -0.761398 -0.805649 -1.175173 0
M  V30 12 O -1.485543 0.136473 -1.878179 0
M  V30 13 C -1.305090 1.519852 -1.703611 0 CFG=2
M  V30 14 C -2.552280 2.197418 -1.178584 0
M  V30 15 C -0.855695 2.185366 -2.957583 0
M  V30 16 C -1.328648 1.738603 -4.179251 0
M  V30 17 C -0.968625 2.293044 -5.406797 0
M  V30 18 C -0.081499 3.357051 -5.390301 0
M  V30 19 C 0.421216 3.841314 -4.185626 0
M  V30 20 C 0.027314 3.248627 -2.982393 0
M  V30 21 Cl 0.639775 3.831800 -1.446497 0
M  V30 22 C -1.123017 -2.126265 -1.527252 0
M  V30 23 C -2.073520 -2.697560 -2.451420 0
M  V30 24 N -2.836785 -3.147762 -3.172081 0
M  V30 25 S 0.014808 -3.146632 -0.422303 0
M  V30 26 C 1.428467 -2.096654 2.605329 0
M  V30 27 C 0.286866 -2.462047 3.249115 0
M  V30 28 C 0.311157 -2.707047 4.603101 0
M  V30 29 O -0.906249 -3.080388 5.200520 0
M  V30 30 C -2.093054 -3.203818 4.479579 0
M  V30 31 H 2.364392 -3.869194 8.160893 0
M  V30 32 H 2.096871 -2.171139 8.551558 0
M  V30 33 H 3.341683 -2.681601 7.296287 0
M  V30 34 H 3.492998 -2.155409 5.335182 0
M  V30 35 H 3.590663 -1.214256 0.354176 0
M  V30 36 H 0.509263 0.297993 0.060004 0
M  V30 37 H -0.523194 1.692273 -0.952037 0
M  V30 38 H -2.946207 1.607109 -0.321407 0
M  V30 39 H -2.368866 3.202971 -0.806331 0
M  V30 40 H -3.373986 2.228310 -1.917494 0
M  V30 41 H -2.021727 0.910042 -4.218337 0
M  V30 42 H -1.380322 1.890044 -6.325590 0
M  V30 43 H 0.192225 3.779900 -6.338604 0
M  V30 44 H 1.119345 4.680179 -4.190972 0
M  V30 45 H -0.609187 -2.548744 2.673081 0
M  V30 46 H -2.934292 -3.290483 5.192367 0
M  V30 47 H -2.111731 -4.127413 3.837334 0
M  V30 48 H -2.250798 -2.291219 3.860586 0
M  V30 END ATOM
M  V30 BEGIN BOND
M  V30 1 1 1 2
M  V30 2 1 2 3
M  V30 3 2 3 4
M  V30 4 1 4 5
M  V30 5 1 5 6
M  V30 6 2 6 7
M  V30 7 1 7 8
M  V30 8 1 8 9
M  V30 9 2 9 10
M  V30 10 1 10 11
M  V30 11 1 11 12
M  V30 12 1 12 13
M  V30 13 1 13 14
M  V30 14 1 13 15
M  V30 15 2 15 16
M  V30 16 1 16 17
M  V30 17 2 17 18
M  V30 18 1 18 19
M  V30 19 2 19 20
M  V30 20 1 20 21
M  V30 21 2 11 22
M  V30 22 1 22 23
M  V30 23 3 23 24
M  V30 24 1 22 25
M  V30 25 1 8 26
M  V30 26 1 26 27
M  V30 27 2 27 28
M  V30 28 1 28 29
M  V30 29 1 29 30
M  V30 30 1 28 3
M  V30 31 2 26 5
M  V30 32 1 25 9
M  V30 33 1 20 15
M  V30 34 1 1 31
M  V30 35 1 1 32
M  V30 36 1 1 33
M  V30 37 1 4 34
M  V30 38 1 7 35
M  V30 39 1 10 36
M  V30 40 1 13 37 CFG=1
M  V30 41 1 14 38
M  V30 42 1 14 39
M  V30 43 1 14 40
M  V30 44 1 16 41
M  V30 45 1 17 42
M  V30 46 1 18 43
M  V30 47 1 19 44
M  V30 48 1 27 45
M  V30 49 1 30 46
M  V30 50 1 30 47
M  V30 51 1 30 48
M  V30 END BOND
M  V30 END CTAB
M  END
>  <Dataset>  (333) 
ChEMBL_Kinases

>  <Ligand_Instance>  (333) 
nan

>  <PDB_ID>  (333) 
nan

>  <Standardized_SMILES>  (333) 
COc1cc2ncn(-c3cc(O[C@H](C)c4ccccc4Cl)c(C#N)s3)c2cc1OC

>  <Name>  (333) 
nan

>  <Pocket>  (333) 
nan

>  <ATP_Site>  (333) 
nan

>  <Peripheral>  (333) 
nan

>  <Num_H_Atoms_ProtBoundConf>  (333) 
nan

>  <Num_Resolved_Atoms>  (333) 
nan

>  <Num_Not_Resolved_Atoms>  (333) 
nan

$$$$
CHEMBL376119
     RDKit          3D

  0  0  0  0  0  0  0  0  0  0999 V3000
M  V30 BEGIN CTAB
M  V30 COUNTS 57 61 0 0 0
M  V30 BEGIN ATOM
M  V30 1 C 4.071365 -1.580239 3.873055 0
M  V30 2 C 4.411970 -0.297776 3.176890 0
M  V30 3 C 4.077761 -0.367323 1.708881 0
M  V30 4 C 5.046718 -0.820964 0.831842 0
M  V30 5 C 4.751031 -0.887509 -0.514277 0
M  V30 6 C 3.504570 -0.504511 -0.963981 0
M  V30 7 C 2.554511 -0.055997 -0.073941 0
M  V30 8 C 1.195403 0.388794 -0.336553 0
M  V30 9 N 0.642049 1.600454 -0.177422 0
M  V30 10 C -0.676370 1.623849 -0.537162 0
M  V30 11 C -1.452178 2.884979 -0.435207 0
M  V30 12 N -2.069478 3.110868 0.834631 0
M  V30 13 C -3.091939 2.400747 1.514905 0
M  V30 14 C -3.567528 2.757580 2.781894 0
M  V30 15 C -4.567154 2.033746 3.386179 0
M  V30 16 C -5.153696 0.935578 2.800006 0
M  V30 17 C -4.701403 0.574905 1.565321 0
M  V30 18 C -5.332489 -0.590187 0.958717 0
M  V30 19 N -5.111091 -1.222201 -0.293715 0
M  V30 20 O -6.238396 -1.204623 1.576563 0
M  V30 21 C -3.701156 1.290716 0.948271 0
M  V30 22 N -0.901596 0.356692 -0.926653 0
M  V30 23 C 0.189231 -0.410840 -0.822060 0
M  V30 24 C 0.141289 -1.815560 -1.201372 0
M  V30 25 C -0.693675 -2.564045 -0.366846 0
M  V30 26 C -0.892883 -3.929264 -0.547062 0
M  V30 27 C -0.258929 -4.591692 -1.574251 0
M  V30 28 N -0.364712 -5.902745 -1.858388 0
M  V30 29 C 0.281929 -6.492208 -2.879083 0
M  V30 30 C 1.101860 -5.711866 -3.683739 0
M  V30 31 N 1.224715 -4.396902 -3.420527 0
M  V30 32 C 0.561510 -3.843133 -2.390161 0
M  V30 33 C 0.767076 -2.494742 -2.223510 0
M  V30 34 N 2.861538 0.004130 1.253749 0
M  V30 35 H 3.355476 -1.409184 4.716355 0
M  V30 36 H 3.572982 -2.313484 3.204663 0
M  V30 37 H 5.005330 -1.986200 4.320282 0
M  V30 38 H 3.857578 0.524352 3.676475 0
M  V30 39 H 5.489758 -0.038667 3.301165 0
M  V30 40 H 6.039600 -1.133359 1.137362 0
M  V30 41 H 5.408886 -1.219098 -1.295129 0
M  V30 42 H 3.177583 -0.516970 -1.993635 0
M  V30 43 H 1.234868 2.392040 0.191435 0
M  V30 44 H -0.787964 3.717688 -0.693513 0
M  V30 45 H -2.215062 2.860204 -1.270616 0
M  V30 46 H -1.721282 3.952797 1.390258 0
M  V30 47 H -3.108721 3.629627 3.259713 0
M  V30 48 H -4.859342 2.400087 4.369045 0
M  V30 49 H -5.926291 0.432822 3.346204 0
M  V30 50 H -5.818010 -1.041451 -1.033840 0
M  V30 51 H -4.222299 -1.723381 -0.067999 0
M  V30 52 H -3.439501 0.915174 -0.013256 0
M  V30 53 H -1.247758 -2.148206 0.478638 0
M  V30 54 H -1.538438 -4.512926 0.097426 0
M  V30 55 H 0.173102 -7.553082 -3.078983 0
M  V30 56 H 1.630618 -6.169138 -4.510737 0
M  V30 57 H 1.391050 -1.852109 -2.825215 0
M  V30 END ATOM
M  V30 BEGIN BOND
M  V30 1 1 1 2
M  V30 2 1 2 3
M  V30 3 2 3 4
M  V30 4 1 4 5
M  V30 5 2 5 6
M  V30 6 1 6 7
M  V30 7 1 7 8
M  V30 8 1 8 9
M  V30 9 1 9 10
M  V30 10 1 10 11
M  V30 11 1 11 12
M  V30 12 1 12 13
M  V30 13 2 13 14
M  V30 14 1 14 15
M  V30 15 2 15 16
M  V30 16 1 16 17
M  V30 17 1 17 18
M  V30 18 1 18 19
M  V30 19 2 18 20
M  V30 20 2 17 21
M  V30 21 2 10 22
M  V30 22 1 22 23
M  V30 23 1 23 24
M  V30 24 2 24 25
M  V30 25 1 25 26
M  V30 26 2 26 27
M  V30 27 1 27 28
M  V30 28 2 28 29
M  V30 29 1 29 30
M  V30 30 2 30 31
M  V30 31 1 31 32
M  V30 32 2 32 33
M  V30 33 2 7 34
M  V30 34 1 34 3
M  V30 35 2 23 8
M  V30 36 1 33 24
M  V30 37 1 21 13
M  V30 38 1 32 27
M  V30 39 1 1 35
M  V30 40 1 1 36
M  V30 41 1 1 37
M  V30 42 1 2 38
M  V30 43 1 2 39
M  V30 44 1 4 40
M  V30 45 1 5 41
M  V30 46 1 6 42
M  V30 47 1 9 43
M  V30 48 1 11 44
M  V30 49 1 11 45
M  V30 50 1 12 46
M  V30 51 1 14 47
M  V30 52 1 15 48
M  V30 53 1 16 49
M  V30 54 1 19 50
M  V30 55 1 19 51
M  V30 56 1 21 52
M  V30 57 1 25 53
M  V30 58 1 26 54
M  V30 59 1 29 55
M  V30 60 1 30 56
M  V30 61 1 33 57
M  V30 END BOND
M  V30 END CTAB
M  END
>  <Dataset>  (334) 
ChEMBL_Kinases

>  <Ligand_Instance>  (334) 
nan

>  <PDB_ID>  (334) 
nan

>  <Standardized_SMILES>  (334) 
CCc1cccc(-c2[nH]c(CNc3cccc(C(N)=O)c3)nc2-c2ccc3nccnc3c2)n1

>  <Name>  (334) 
nan

>  <Pocket>  (334) 
nan

>  <ATP_Site>  (334) 
nan

>  <Peripheral>  (334) 
nan

>  <Num_H_Atoms_ProtBoundConf>  (334) 
nan

>  <Num_Resolved_Atoms>  (334) 
nan

>  <Num_Not_Resolved_Atoms>  (334) 
nan

$$$$
CHEMBL5085373
     RDKit          3D

  0  0  0  0  0  0  0  0  0  0999 V3000
M  V30 BEGIN CTAB
M  V30 COUNTS 47 48 0 0 0
M  V30 BEGIN ATOM
M  V30 1 C 0.383275 -8.129367 1.693636 0
M  V30 2 C 0.377812 -6.874259 2.476515 0
M  V30 3 C 0.243454 -5.616373 1.934284 0
M  V30 4 C 0.242463 -4.448872 2.697404 0
M  V30 5 C 0.091413 -3.213356 1.956087 0
M  V30 6 C 0.089761 -2.046503 2.683065 0
M  V30 7 C -0.053459 -0.908699 1.931826 0
M  V30 8 C -0.192347 -0.797735 0.570471 0
M  V30 9 O -0.339967 0.070279 -0.388433 0
M  V30 10 C -0.450269 1.354233 -0.765940 0
M  V30 11 C 0.731196 2.251476 -0.481648 0 CFG=1
M  V30 12 C 1.076370 2.227455 0.948116 0
M  V30 13 N 1.844952 1.589329 -1.199991 0
M  V30 14 C 0.610760 3.588779 -1.117675 0
M  V30 15 C -0.506224 4.485371 -0.794147 0
M  V30 16 C -0.604865 4.876014 0.667293 0
M  V30 17 C -1.843557 4.176849 -1.359567 0
M  V30 18 C -0.177106 -2.059276 -0.072548 0
M  V30 19 Cl -0.325419 -2.409891 -1.807597 0
M  V30 20 N -0.037729 -3.246689 0.607423 0
M  V30 21 C 0.383343 -4.598779 4.041316 0
M  V30 22 C 0.517309 -5.857920 4.578164 0
M  V30 23 N 0.517561 -6.989430 3.831193 0
M  V30 24 H 1.420472 -8.408264 1.381809 0
M  V30 25 H -0.092693 -8.946403 2.297999 0
M  V30 26 H -0.179686 -7.981735 0.736100 0
M  V30 27 H 0.139894 -5.655131 0.848247 0
M  V30 28 H 0.184864 -1.913701 3.738057 0
M  V30 29 H -0.076519 0.053796 2.387339 0
M  V30 30 H -1.406566 1.859480 -0.420246 0
M  V30 31 H -0.629065 1.352968 -1.901051 0
M  V30 32 H 1.617040 1.285136 1.171225 0
M  V30 33 H 0.219498 2.267174 1.642488 0
M  V30 34 H 1.848387 3.014781 1.227071 0
M  V30 35 H 2.028158 0.659587 -0.747641 0
M  V30 36 H 2.698262 2.198361 -1.086266 0
M  V30 37 H 0.570692 3.422237 -2.221933 0
M  V30 38 H 1.570206 4.152646 -0.980383 0
M  V30 39 H -0.192661 5.471519 -1.277286 0
M  V30 40 H 0.383665 5.085683 1.101043 0
M  V30 41 H -1.162991 5.841474 0.755572 0
M  V30 42 H -1.223074 4.168644 1.258997 0
M  V30 43 H -2.257469 5.094648 -1.873375 0
M  V30 44 H -2.625597 3.875977 -0.638985 0
M  V30 45 H -1.835034 3.414435 -2.184881 0
M  V30 46 H 0.382930 -3.705430 4.635825 0
M  V30 47 H 0.628646 -5.974792 5.642622 0
M  V30 END ATOM
M  V30 BEGIN BOND
M  V30 1 1 1 2
M  V30 2 2 2 3
M  V30 3 1 3 4
M  V30 4 1 4 5
M  V30 5 2 5 6
M  V30 6 1 6 7
M  V30 7 2 7 8
M  V30 8 1 8 9
M  V30 9 1 9 10
M  V30 10 1 10 11
M  V30 11 1 11 12
M  V30 12 1 11 13 CFG=3
M  V30 13 1 11 14
M  V30 14 1 14 15
M  V30 15 1 15 16
M  V30 16 1 15 17
M  V30 17 1 8 18
M  V30 18 1 18 19
M  V30 19 2 18 20
M  V30 20 2 4 21
M  V30 21 1 21 22
M  V30 22 2 22 23
M  V30 23 1 23 2
M  V30 24 1 20 5
M  V30 25 1 1 24
M  V30 26 1 1 25
M  V30 27 1 1 26
M  V30 28 1 3 27
M  V30 29 1 6 28
M  V30 30 1 7 29
M  V30 31 1 10 30
M  V30 32 1 10 31
M  V30 33 1 12 32
M  V30 34 1 12 33
M  V30 35 1 12 34
M  V30 36 1 13 35
M  V30 37 1 13 36
M  V30 38 1 14 37
M  V30 39 1 14 38
M  V30 40 1 15 39
M  V30 41 1 16 40
M  V30 42 1 16 41
M  V30 43 1 16 42
M  V30 44 1 17 43
M  V30 45 1 17 44
M  V30 46 1 17 45
M  V30 47 1 21 46
M  V30 48 1 22 47
M  V30 END BOND
M  V30 END CTAB
M  END
>  <Dataset>  (335) 
ChEMBL_Kinases

>  <Ligand_Instance>  (335) 
nan

>  <PDB_ID>  (335) 
nan

>  <Standardized_SMILES>  (335) 
Cc1cc(-c2ccc(OC[C@@](C)(N)CC(C)C)c(Cl)n2)ccn1

>  <Name>  (335) 
nan

>  <Pocket>  (335) 
nan

>  <ATP_Site>  (335) 
nan

>  <Peripheral>  (335) 
nan

>  <Num_H_Atoms_ProtBoundConf>  (335) 
nan

>  <Num_Resolved_Atoms>  (335) 
nan

>  <Num_Not_Resolved_Atoms>  (335) 
nan

$$$$
CHEMBL5085162
     RDKit          3D

  0  0  0  0  0  0  0  0  0  0999 V3000
M  V30 BEGIN CTAB
M  V30 COUNTS 34 36 0 0 0
M  V30 BEGIN ATOM
M  V30 1 C -1.240666 -4.855336 2.904034 0
M  V30 2 C -0.195928 -4.273748 2.365793 0
M  V30 3 C 0.431305 -3.237252 1.607363 0
M  V30 4 O 1.604601 -3.692577 1.717988 0
M  V30 5 N 0.209773 -2.053490 0.891261 0
M  V30 6 C 1.430755 -1.406273 0.453444 0
M  V30 7 O 2.451959 -2.185231 0.490510 0
M  V30 8 C 1.847246 -0.106503 -0.024449 0
M  V30 9 C 0.888650 0.942202 -0.344960 0
M  V30 10 C 1.588579 2.245865 -0.531926 0
M  V30 11 C 2.309630 2.955799 0.338739 0
M  V30 12 C 2.888203 4.136288 0.011434 0
M  V30 13 C 2.676864 4.559771 -1.304500 0
M  V30 14 S 1.615115 3.186425 -2.035718 0
M  V30 15 S -0.462716 1.221156 0.813147 0
M  V30 16 C -1.569814 -0.200781 0.615227 0
M  V30 17 C -2.909197 0.031333 0.390255 0
M  V30 18 C -3.715657 -1.072310 0.218039 0
M  V30 19 C -3.274416 -2.378258 0.255290 0
M  V30 20 C -1.934194 -2.607442 0.480388 0
M  V30 21 C -1.083157 -1.507901 0.661804 0
M  V30 22 H -2.304475 -4.583346 2.904806 0
M  V30 23 H -2.302502 -4.583888 2.904828 0
M  V30 24 H 0.002500 -5.173139 2.903164 0
M  V30 25 H 2.507398 -0.263121 -0.930052 0
M  V30 26 H 2.568882 0.306333 0.743891 0
M  V30 27 H 0.402756 0.704276 -1.335567 0
M  V30 28 H 2.434216 2.558941 1.361741 0
M  V30 29 H 3.484274 4.769049 0.654130 0
M  V30 30 H 3.114219 5.568124 -1.746738 0
M  V30 31 H -3.162095 1.067720 0.377106 0
M  V30 32 H -4.771809 -0.827210 0.042932 0
M  V30 33 H -3.973857 -3.189364 0.109936 0
M  V30 34 H -1.558046 -3.599598 0.494904 0
M  V30 END ATOM
M  V30 BEGIN BOND
M  V30 1 2 1 2
M  V30 2 1 2 3
M  V30 3 2 3 4
M  V30 4 1 3 5
M  V30 5 1 5 6
M  V30 6 2 6 7
M  V30 7 1 6 8
M  V30 8 1 8 9
M  V30 9 1 9 10
M  V30 10 2 10 11
M  V30 11 1 11 12
M  V30 12 2 12 13
M  V30 13 1 13 14
M  V30 14 1 9 15
M  V30 15 1 15 16
M  V30 16 2 16 17
M  V30 17 1 17 18
M  V30 18 2 18 19
M  V30 19 1 19 20
M  V30 20 2 20 21
M  V30 21 1 21 5
M  V30 22 1 14 10
M  V30 23 1 21 16
M  V30 24 1 1 22
M  V30 25 1 1 23
M  V30 26 1 2 24
M  V30 27 1 8 25
M  V30 28 1 8 26
M  V30 29 1 9 27
M  V30 30 1 11 28
M  V30 31 1 12 29
M  V30 32 1 13 30
M  V30 33 1 17 31
M  V30 34 1 18 32
M  V30 35 1 19 33
M  V30 36 1 20 34
M  V30 END BOND
M  V30 END CTAB
M  END
>  <Dataset>  (336) 
ChEMBL_Kinases

>  <Ligand_Instance>  (336) 
nan

>  <PDB_ID>  (336) 
nan

>  <Standardized_SMILES>  (336) 
C=CC(=O)N1C(=O)CC(c2cccs2)Sc2ccccc21

>  <Name>  (336) 
nan

>  <Pocket>  (336) 
nan

>  <ATP_Site>  (336) 
nan

>  <Peripheral>  (336) 
nan

>  <Num_H_Atoms_ProtBoundConf>  (336) 
nan

>  <Num_Resolved_Atoms>  (336) 
nan

>  <Num_Not_Resolved_Atoms>  (336) 
nan

$$$$
CHEMBL5085177
     RDKit          3D

  0  0  0  0  0  0  0  0  0  0999 V3000
M  V30 BEGIN CTAB
M  V30 COUNTS 46 47 0 0 0
M  V30 BEGIN ATOM
M  V30 1 C 0.819996 -2.725309 7.073673 0
M  V30 2 C 0.210325 -1.523994 6.429717 0
M  V30 3 C 0.011603 -1.603595 5.050526 0
M  V30 4 C -0.551949 -0.484799 4.475019 0
M  V30 5 C -0.781004 -0.517314 3.031425 0
M  V30 6 C 0.114176 -1.252494 2.284995 0
M  V30 7 C -0.150528 -1.244931 0.934212 0
M  V30 8 C -1.175547 -0.603985 0.276517 0
M  V30 9 O -1.577605 -0.483812 -0.951860 0
M  V30 10 C -1.446416 -0.738584 -2.252805 0
M  V30 11 C -0.270636 -0.261548 -3.035141 0 CFG=1
M  V30 12 N -0.199311 1.192142 -3.002991 0
M  V30 13 C 0.984759 -0.915628 -2.613114 0
M  V30 14 C 2.204098 -0.476037 -3.398109 0
M  V30 15 C 2.518797 0.971226 -3.320940 0
M  V30 16 C 3.371986 -1.203293 -2.722145 0
M  V30 17 C -2.026181 0.114163 1.137628 0
M  V30 18 C -3.185481 0.878300 0.693600 0
M  V30 19 N -4.099641 1.487423 0.321862 0
M  V30 20 C -1.855063 0.177500 2.525502 0
M  V30 21 C -0.914348 0.657983 5.156201 0
M  V30 22 C -0.674069 0.634943 6.528378 0
M  V30 23 N -0.126316 -0.433798 7.133909 0
M  V30 24 H 0.756827 -2.699654 8.174709 0
M  V30 25 H 0.356275 -3.601251 6.601972 0
M  V30 26 H 1.909868 -2.749619 6.796095 0
M  V30 27 H 0.288420 -2.487811 4.501698 0
M  V30 28 H 0.954560 -1.796882 2.673363 0
M  V30 29 H 0.499010 -1.814061 0.300881 0
M  V30 30 H -1.421721 -1.882940 -2.371751 0
M  V30 31 H -2.362855 -0.498083 -2.879587 0
M  V30 32 H -0.491708 -0.504351 -4.117467 0
M  V30 33 H -0.964993 1.586124 -2.380658 0
M  V30 34 H -0.182888 1.629980 -3.930066 0
M  V30 35 H 0.901436 -2.007893 -2.722971 0
M  V30 36 H 1.235878 -0.709545 -1.548982 0
M  V30 37 H 2.179065 -0.850521 -4.440783 0
M  V30 38 H 2.184928 1.456215 -4.255479 0
M  V30 39 H 3.629912 1.161185 -3.253824 0
M  V30 40 H 2.086079 1.519267 -2.478544 0
M  V30 41 H 4.350514 -0.832497 -3.085563 0
M  V30 42 H 3.243527 -1.037711 -1.629865 0
M  V30 43 H 3.296912 -2.302435 -2.883724 0
M  V30 44 H -2.483377 0.712775 3.201851 0
M  V30 45 H -1.355350 1.526953 4.688674 0
M  V30 46 H -0.923667 1.491725 7.171860 0
M  V30 END ATOM
M  V30 BEGIN BOND
M  V30 1 1 1 2
M  V30 2 2 2 3
M  V30 3 1 3 4
M  V30 4 1 4 5
M  V30 5 2 5 6
M  V30 6 1 6 7
M  V30 7 2 7 8
M  V30 8 1 8 9
M  V30 9 1 9 10
M  V30 10 1 10 11
M  V30 11 1 11 12
M  V30 12 1 11 13
M  V30 13 1 13 14
M  V30 14 1 14 15
M  V30 15 1 14 16
M  V30 16 1 8 17
M  V30 17 1 17 18
M  V30 18 3 18 19
M  V30 19 2 17 20
M  V30 20 2 4 21
M  V30 21 1 21 22
M  V30 22 2 22 23
M  V30 23 1 23 2
M  V30 24 1 20 5
M  V30 25 1 1 24
M  V30 26 1 1 25
M  V30 27 1 1 26
M  V30 28 1 3 27
M  V30 29 1 6 28
M  V30 30 1 7 29
M  V30 31 1 10 30
M  V30 32 1 10 31
M  V30 33 1 11 32 CFG=3
M  V30 34 1 12 33
M  V30 35 1 12 34
M  V30 36 1 13 35
M  V30 37 1 13 36
M  V30 38 1 14 37
M  V30 39 1 15 38
M  V30 40 1 15 39
M  V30 41 1 15 40
M  V30 42 1 16 41
M  V30 43 1 16 42
M  V30 44 1 16 43
M  V30 45 1 20 44
M  V30 46 1 21 45
M  V30 47 1 22 46
M  V30 END BOND
M  V30 END CTAB
M  END
>  <Dataset>  (337) 
ChEMBL_Kinases

>  <Ligand_Instance>  (337) 
nan

>  <PDB_ID>  (337) 
nan

>  <Standardized_SMILES>  (337) 
Cc1cc(-c2ccc(OC[C@@H](N)CC(C)C)c(C#N)c2)ccn1

>  <Name>  (337) 
nan

>  <Pocket>  (337) 
nan

>  <ATP_Site>  (337) 
nan

>  <Peripheral>  (337) 
nan

>  <Num_H_Atoms_ProtBoundConf>  (337) 
nan

>  <Num_Resolved_Atoms>  (337) 
nan

>  <Num_Not_Resolved_Atoms>  (337) 
nan

$$$$
CHEMBL3702317
     RDKit          3D

  0  0  0  0  0  0  0  0  0  0999 V3000
M  V30 BEGIN CTAB
M  V30 COUNTS 57 59 0 0 0
M  V30 BEGIN ATOM
M  V30 1 C -0.377399 -1.236998 0.540373 0
M  V30 2 C 0.605908 -0.947774 1.600125 0
M  V30 3 C 1.619487 -0.076472 1.313132 0
M  V30 4 C 2.205244 0.711723 0.287710 0
M  V30 5 O 3.242074 1.421206 0.535667 0
M  V30 6 N 1.964489 0.974081 -1.062869 0
M  V30 7 C 2.838798 1.876010 -1.746172 0
M  V30 8 C 2.406791 2.028177 -3.213853 0
M  V30 9 C 3.326945 2.977081 -3.922162 0
M  V30 10 N 3.349642 4.303973 -3.345672 0
M  V30 11 C 4.279210 5.101753 -4.147483 0
M  V30 12 C 2.081244 4.965792 -3.384538 0
M  V30 13 S 2.529513 0.094400 2.842146 0
M  V30 14 C 1.495245 -1.031130 3.812850 0
M  V30 15 N 1.579662 -1.406818 5.096007 0
M  V30 16 C 0.695510 -2.266102 5.621963 0
M  V30 17 N -0.197366 -2.651418 4.740898 0
M  V30 18 C -0.326854 -2.313435 3.464238 0
M  V30 19 N -1.405273 -2.965177 2.852789 0
M  V30 20 C -2.611229 -3.539418 3.327250 0
M  V30 21 C -2.910922 -3.496434 4.685423 0
M  V30 22 C -4.070229 -4.037255 5.245400 0
M  V30 23 C -4.978722 -4.657100 4.383676 0
M  V30 24 F -6.124084 -5.201231 4.874567 0
M  V30 25 C -4.655977 -4.685384 3.039349 0
M  V30 26 C -3.535354 -4.165272 2.479754 0
M  V30 27 O -3.179955 -4.170717 1.163771 0
M  V30 28 C -3.939570 -4.731470 0.149857 0
M  V30 29 C -3.197572 -5.829464 -0.598748 0
M  V30 30 C -4.291454 -3.705228 -0.870677 0
M  V30 31 N -4.579509 -2.909120 -1.662813 0
M  V30 32 C 0.527911 -1.441036 2.850248 0
M  V30 33 H -1.435468 -1.127031 0.902431 0
M  V30 34 H -0.331093 -0.409925 -0.215071 0
M  V30 35 H -0.149006 -2.144644 0.000921 0
M  V30 36 H 1.167531 0.496873 -1.513963 0
M  V30 37 H 3.906893 1.518692 -1.805454 0
M  V30 38 H 2.866301 2.906960 -1.336428 0
M  V30 39 H 2.517781 1.031602 -3.719026 0
M  V30 40 H 1.345526 2.315109 -3.283601 0
M  V30 41 H 3.142197 3.013165 -5.012640 0
M  V30 42 H 4.374919 2.570860 -3.823449 0
M  V30 43 H 5.321192 4.812837 -3.982699 0
M  V30 44 H 4.139556 6.178987 -3.880933 0
M  V30 45 H 4.026167 5.005958 -5.229390 0
M  V30 46 H 1.908152 5.458109 -2.386075 0
M  V30 47 H 2.044025 5.832704 -4.105734 0
M  V30 48 H 1.252177 4.306538 -3.669939 0
M  V30 49 H 0.869038 -2.480338 6.639467 0
M  V30 50 H -1.267000 -3.091363 1.837673 0
M  V30 51 H -2.317791 -3.054337 5.458611 0
M  V30 52 H -4.325515 -4.017019 6.294851 0
M  V30 53 H -5.401234 -5.177135 2.440181 0
M  V30 54 H -4.860247 -5.172973 0.562785 0
M  V30 55 H -2.650388 -5.402409 -1.470348 0
M  V30 56 H -3.968840 -6.509806 -1.012867 0
M  V30 57 H -2.479061 -6.364911 0.049585 0
M  V30 END ATOM
M  V30 BEGIN BOND
M  V30 1 1 1 2
M  V30 2 2 2 3
M  V30 3 1 3 4
M  V30 4 2 4 5
M  V30 5 1 4 6
M  V30 6 1 6 7
M  V30 7 1 7 8
M  V30 8 1 8 9
M  V30 9 1 9 10
M  V30 10 1 10 11
M  V30 11 1 10 12
M  V30 12 1 3 13
M  V30 13 1 13 14
M  V30 14 2 14 15
M  V30 15 1 15 16
M  V30 16 2 16 17
M  V30 17 1 17 18
M  V30 18 1 18 19
M  V30 19 1 19 20
M  V30 20 2 20 21
M  V30 21 1 21 22
M  V30 22 2 22 23
M  V30 23 1 23 24
M  V30 24 1 23 25
M  V30 25 2 25 26
M  V30 26 1 26 27
M  V30 27 1 27 28
M  V30 28 1 28 29
M  V30 29 1 28 30
M  V30 30 3 30 31
M  V30 31 2 18 32
M  V30 32 1 32 2
M  V30 33 1 32 14
M  V30 34 1 26 20
M  V30 35 1 1 33
M  V30 36 1 1 34
M  V30 37 1 1 35
M  V30 38 1 6 36
M  V30 39 1 7 37
M  V30 40 1 7 38
M  V30 41 1 8 39
M  V30 42 1 8 40
M  V30 43 1 9 41
M  V30 44 1 9 42
M  V30 45 1 11 43
M  V30 46 1 11 44
M  V30 47 1 11 45
M  V30 48 1 12 46
M  V30 49 1 12 47
M  V30 50 1 12 48
M  V30 51 1 16 49
M  V30 52 1 19 50
M  V30 53 1 21 51
M  V30 54 1 22 52
M  V30 55 1 25 53
M  V30 56 1 28 54
M  V30 57 1 29 55
M  V30 58 1 29 56
M  V30 59 1 29 57
M  V30 END BOND
M  V30 END CTAB
M  END
>  <Dataset>  (338) 
ChEMBL_Kinases

>  <Ligand_Instance>  (338) 
nan

>  <PDB_ID>  (338) 
nan

>  <Standardized_SMILES>  (338) 
Cc1c(C(=O)NCCCN(C)C)sc2ncnc(Nc3ccc(F)cc3OC(C)C#N)c12

>  <Name>  (338) 
nan

>  <Pocket>  (338) 
nan

>  <ATP_Site>  (338) 
nan

>  <Peripheral>  (338) 
nan

>  <Num_H_Atoms_ProtBoundConf>  (338) 
nan

>  <Num_Resolved_Atoms>  (338) 
nan

>  <Num_Not_Resolved_Atoms>  (338) 
nan

$$$$
CHEMBL376037
     RDKit          3D

  0  0  0  0  0  0  0  0  0  0999 V3000
M  V30 BEGIN CTAB
M  V30 COUNTS 60 62 0 0 0
M  V30 BEGIN ATOM
M  V30 1 C 7.219232 0.586127 3.282948 0
M  V30 2 O 6.257654 1.316026 3.934594 0
M  V30 3 C 5.785441 2.419447 3.272684 0
M  V30 4 C 5.145660 2.077350 1.944167 0
M  V30 5 O 4.684246 3.229749 1.327180 0
M  V30 6 C 4.113212 3.005041 0.081552 0
M  V30 7 C 2.951765 2.061099 0.249382 0
M  V30 8 O 1.936190 2.548486 1.105487 0
M  V30 9 C 0.843206 1.740693 1.341727 0
M  V30 10 C 0.778765 0.494428 0.754860 0
M  V30 11 C -0.326467 -0.259533 1.029960 0
M  V30 12 C -1.348899 0.178459 1.852758 0
M  V30 13 C -1.254876 1.451859 2.434593 0
M  V30 14 C -0.152101 2.252941 2.185576 0
M  V30 15 Cl 0.045350 3.850274 2.872211 0
M  V30 16 N -2.548846 -0.433051 2.270056 0
M  V30 17 C -3.571730 -1.281522 1.812717 0
M  V30 18 O -2.969483 -1.310869 0.727260 0
M  V30 19 N -4.751695 -2.038025 1.858958 0
M  V30 20 C -5.190140 -2.803536 0.745226 0
M  V30 21 C -6.532659 -3.101570 0.623302 0
M  V30 22 N -7.008823 -3.831548 -0.402914 0
M  V30 23 C -6.151209 -4.276744 -1.322819 0
M  V30 24 C -6.390621 -5.067970 -2.487370 0
M  V30 25 N -6.599116 -5.709298 -3.425935 0
M  V30 26 C -4.823509 -3.982209 -1.202937 0
M  V30 27 N -4.329808 -3.243388 -0.169631 0
M  V30 28 O -3.623113 -4.236104 -1.912065 0
M  V30 29 C -3.031754 -3.104510 -2.517280 0
M  V30 30 C -1.735161 -3.314277 -3.200513 0
M  V30 31 C -0.687562 -3.946158 -2.297014 0
M  V30 32 C -0.600025 -3.293334 -0.977356 0
M  V30 33 C -0.312430 -1.839156 -0.906177 0
M  V30 34 O -0.445775 -1.508019 0.476501 0
M  V30 35 H 8.146771 1.165910 3.052593 0
M  V30 36 H 6.809175 0.122923 2.351949 0
M  V30 37 H 7.493869 -0.279620 3.944914 0
M  V30 38 H 5.023510 2.910855 3.902523 0
M  V30 39 H 6.601888 3.150393 3.121965 0
M  V30 40 H 4.255407 1.449983 2.178293 0
M  V30 41 H 5.817448 1.507012 1.291702 0
M  V30 42 H 4.827717 2.471773 -0.604091 0
M  V30 43 H 3.754140 3.941505 -0.372657 0
M  V30 44 H 3.265938 1.022329 0.501686 0
M  V30 45 H 2.539727 1.943002 -0.807122 0
M  V30 46 H 1.519477 0.084042 0.111943 0
M  V30 47 H -1.981921 1.936075 3.105027 0
M  V30 48 H -2.958832 -0.316745 3.214542 0
M  V30 49 H -5.263661 -1.994493 2.802888 0
M  V30 50 H -7.181141 -2.718415 1.387702 0
M  V30 51 H -3.064044 -2.225943 -1.846883 0
M  V30 52 H -3.774558 -2.819737 -3.338766 0
M  V30 53 H -1.323655 -2.355793 -3.560273 0
M  V30 54 H -1.824446 -3.992093 -4.077228 0
M  V30 55 H -0.895068 -5.010149 -2.150373 0
M  V30 56 H 0.275078 -3.801829 -2.823319 0
M  V30 57 H 0.223668 -3.823728 -0.412912 0
M  V30 58 H -1.496611 -3.473482 -0.334241 0
M  V30 59 H -0.969653 -1.212714 -1.528232 0
M  V30 60 H 0.761531 -1.657184 -1.208445 0
M  V30 END ATOM
M  V30 BEGIN BOND
M  V30 1 1 1 2
M  V30 2 1 2 3
M  V30 3 1 3 4
M  V30 4 1 4 5
M  V30 5 1 5 6
M  V30 6 1 6 7
M  V30 7 1 7 8
M  V30 8 1 8 9
M  V30 9 2 9 10
M  V30 10 1 10 11
M  V30 11 2 11 12
M  V30 12 1 12 13
M  V30 13 2 13 14
M  V30 14 1 14 15
M  V30 15 1 12 16
M  V30 16 1 16 17
M  V30 17 2 17 18
M  V30 18 1 17 19
M  V30 19 1 19 20
M  V30 20 1 20 21
M  V30 21 2 21 22
M  V30 22 1 22 23
M  V30 23 1 23 24
M  V30 24 3 24 25
M  V30 25 2 23 26
M  V30 26 1 26 27
M  V30 27 1 26 28
M  V30 28 1 28 29
M  V30 29 1 29 30
M  V30 30 1 30 31
M  V30 31 1 31 32
M  V30 32 1 32 33
M  V30 33 1 33 34
M  V30 34 1 14 9
M  V30 35 2 27 20
M  V30 36 1 34 11
M  V30 37 1 1 35
M  V30 38 1 1 36
M  V30 39 1 1 37
M  V30 40 1 3 38
M  V30 41 1 3 39
M  V30 42 1 4 40
M  V30 43 1 4 41
M  V30 44 1 6 42
M  V30 45 1 6 43
M  V30 46 1 7 44
M  V30 47 1 7 45
M  V30 48 1 10 46
M  V30 49 1 13 47
M  V30 50 1 16 48
M  V30 51 1 19 49
M  V30 52 1 21 50
M  V30 53 1 29 51
M  V30 54 1 29 52
M  V30 55 1 30 53
M  V30 56 1 30 54
M  V30 57 1 31 55
M  V30 58 1 31 56
M  V30 59 1 32 57
M  V30 60 1 32 58
M  V30 61 1 33 59
M  V30 62 1 33 60
M  V30 END BOND
M  V30 END CTAB
M  END
>  <Dataset>  (339) 
ChEMBL_Kinases

>  <Ligand_Instance>  (339) 
nan

>  <PDB_ID>  (339) 
nan

>  <Standardized_SMILES>  (339) 
COCCOCCOc1cc2c(cc1Cl)NC(=O)Nc1cnc(C#N)c(n1)OCCCCCO2

>  <Name>  (339) 
nan

>  <Pocket>  (339) 
nan

>  <ATP_Site>  (339) 
nan

>  <Peripheral>  (339) 
nan

>  <Num_H_Atoms_ProtBoundConf>  (339) 
nan

>  <Num_Resolved_Atoms>  (339) 
nan

>  <Num_Not_Resolved_Atoms>  (339) 
nan

$$$$
CHEMBL5085182
     RDKit          3D

  0  0  0  0  0  0  0  0  0  0999 V3000
M  V30 BEGIN CTAB
M  V30 COUNTS 102 109 0 0 0
M  V30 BEGIN ATOM
M  V30 1 C 2.383871 2.354469 2.270592 0
M  V30 2 C 2.041362 3.728004 2.785519 0
M  V30 3 C 1.579474 3.648645 4.185479 0
M  V30 4 C 2.466655 4.036863 5.199625 0
M  V30 5 C 2.183912 4.042090 6.545254 0
M  V30 6 C 0.936553 3.637361 6.937958 0
M  V30 7 C 0.024393 3.244309 5.973565 0
M  V30 8 C -1.307893 2.843468 6.462330 0
M  V30 9 C -2.249284 4.026606 6.224304 0
M  V30 10 C 0.316491 3.240836 4.626185 0
M  V30 11 N -0.623242 2.843000 3.606723 0
M  V30 12 C -1.492263 3.554897 2.699363 0
M  V30 13 C -2.867653 2.997067 2.777079 0
M  V30 14 N -2.895322 1.562207 2.593027 0
M  V30 15 C -3.901763 0.787654 2.097042 0
M  V30 16 C -3.531386 -0.538128 2.095072 0
M  V30 17 C -4.216773 -1.753159 1.670828 0
M  V30 18 N -3.473964 -2.577830 0.913822 0
M  V30 19 C -3.859232 -3.736603 0.397002 0
M  V30 20 N -3.067436 -4.586175 -0.416895 0
M  V30 21 C -1.723053 -4.397762 -0.818835 0
M  V30 22 C -0.908282 -3.364381 -0.410018 0
M  V30 23 C 0.395201 -3.145729 -0.772594 0
M  V30 24 C 0.969589 -4.066896 -1.653701 0
M  V30 25 N 2.321316 -3.946929 -2.090429 0
M  V30 26 C 2.984932 -4.570706 -3.243704 0
M  V30 27 C 3.231092 -3.510579 -4.303263 0
M  V30 28 C 3.068275 -2.156107 -3.652651 0
M  V30 29 C 3.366418 -1.021015 -4.521718 0
M  V30 30 O 4.309549 -0.245522 -4.180962 0
M  V30 31 N 2.883830 -0.474217 -5.730620 0
M  V30 32 C 3.522885 0.714987 -6.222910 0
M  V30 33 C 2.592721 1.688816 -6.862961 0
M  V30 34 N 1.222820 1.272332 -6.930841 0
M  V30 35 C 0.392125 1.731161 -5.857013 0
M  V30 36 C 1.027797 -0.087071 -7.295558 0
M  V30 37 C 1.779522 -1.075824 -6.467101 0
M  V30 38 C 3.912776 -2.155771 -2.397558 0
M  V30 39 C 3.345220 -3.157993 -1.426840 0
M  V30 40 C 0.201175 -5.117257 -2.092466 0
M  V30 41 C -1.108756 -5.296754 -1.698902 0
M  V30 42 O -1.861448 -6.355923 -2.149449 0
M  V30 43 C -1.475399 -7.366406 -3.019345 0
M  V30 44 N -5.122208 -4.099382 0.673915 0
M  V30 45 C -5.952064 -3.354847 1.418620 0
M  V30 46 N -7.222973 -3.438014 1.856491 0
M  V30 47 C -7.549511 -2.362025 2.596612 0
M  V30 48 C -6.458128 -1.496215 2.674975 0
M  V30 49 C -5.506840 -2.159112 1.932807 0
M  V30 50 C -2.247112 -0.546568 2.614576 0
M  V30 51 C -1.865708 0.745379 2.916406 0
M  V30 52 C -0.658757 1.409517 3.455804 0
M  V30 53 O 0.231139 0.546033 3.726288 0
M  V30 54 H 1.534456 2.004662 1.642175 0
M  V30 55 H 3.261776 2.358998 1.580156 0
M  V30 56 H 2.654773 1.648789 3.079161 0
M  V30 57 H 1.279575 4.216481 2.124853 0
M  V30 58 H 2.968002 4.367101 2.773565 0
M  V30 59 H 3.479821 4.371353 4.934438 0
M  V30 60 H 2.923839 4.355592 7.266807 0
M  V30 61 H 0.688648 3.631634 7.985633 0
M  V30 62 H -1.313416 2.670364 7.548654 0
M  V30 63 H -1.705917 1.964558 5.899547 0
M  V30 64 H -3.269617 3.649398 6.060780 0
M  V30 65 H -2.205666 4.700907 7.130845 0
M  V30 66 H -1.867561 4.577285 5.363667 0
M  V30 67 H -1.511559 4.645992 2.910278 0
M  V30 68 H -1.144608 3.417943 1.644277 0
M  V30 69 H -3.438128 3.452963 1.908621 0
M  V30 70 H -3.412659 3.193794 3.724027 0
M  V30 71 H -4.872744 1.087578 1.738959 0
M  V30 72 H -3.522184 -5.460167 -0.768754 0
M  V30 73 H -1.273677 -2.617273 0.267486 0
M  V30 74 H 0.978314 -2.309755 -0.414607 0
M  V30 75 H 3.902141 -5.100441 -2.929844 0
M  V30 76 H 2.324470 -5.384657 -3.652713 0
M  V30 77 H 4.250947 -3.623450 -4.710297 0
M  V30 78 H 2.467493 -3.669200 -5.103274 0
M  V30 79 H 1.999511 -2.127581 -3.286333 0
M  V30 80 H 4.332021 0.408872 -6.920227 0
M  V30 81 H 4.033620 1.244677 -5.371659 0
M  V30 82 H 2.958698 1.890878 -7.903715 0
M  V30 83 H 2.637185 2.682399 -6.349388 0
M  V30 84 H -0.373137 0.966164 -5.553993 0
M  V30 85 H 0.970173 1.988231 -4.957900 0
M  V30 86 H -0.168681 2.643937 -6.168261 0
M  V30 87 H 1.230853 -0.225760 -8.385938 0
M  V30 88 H -0.067464 -0.307044 -7.120362 0
M  V30 89 H 2.282529 -1.797446 -7.171965 0
M  V30 90 H 1.126822 -1.702549 -5.819202 0
M  V30 91 H 4.937644 -2.498784 -2.697713 0
M  V30 92 H 4.021077 -1.141162 -1.967215 0
M  V30 93 H 4.156232 -3.877360 -1.088783 0
M  V30 94 H 2.956579 -2.676320 -0.499969 0
M  V30 95 H 0.564791 -5.882580 -2.779326 0
M  V30 96 H -1.640722 -7.049897 -4.066370 0
M  V30 97 H -2.102922 -8.271412 -2.767919 0
M  V30 98 H -0.433950 -7.670793 -2.794799 0
M  V30 99 H -7.862045 -4.248566 1.637789 0
M  V30 100 H -8.512507 -2.182468 3.066845 0
M  V30 101 H -6.347204 -0.545426 3.175634 0
M  V30 102 H -1.625152 -1.419558 2.765827 0
M  V30 END ATOM
M  V30 BEGIN BOND
M  V30 1 1 1 2
M  V30 2 1 2 3
M  V30 3 2 3 4
M  V30 4 1 4 5
M  V30 5 2 5 6
M  V30 6 1 6 7
M  V30 7 1 7 8
M  V30 8 1 8 9
M  V30 9 2 7 10
M  V30 10 1 10 11
M  V30 11 1 11 12
M  V30 12 1 12 13
M  V30 13 1 13 14
M  V30 14 1 14 15
M  V30 15 2 15 16
M  V30 16 1 16 17
M  V30 17 2 17 18
M  V30 18 1 18 19
M  V30 19 1 19 20
M  V30 20 1 20 21
M  V30 21 2 21 22
M  V30 22 1 22 23
M  V30 23 2 23 24
M  V30 24 1 24 25
M  V30 25 1 25 26
M  V30 26 1 26 27
M  V30 27 1 27 28
M  V30 28 1 28 29
M  V30 29 2 29 30
M  V30 30 1 29 31
M  V30 31 1 31 32
M  V30 32 1 32 33
M  V30 33 1 33 34
M  V30 34 1 34 35
M  V30 35 1 34 36
M  V30 36 1 36 37
M  V30 37 1 28 38
M  V30 38 1 38 39
M  V30 39 1 24 40
M  V30 40 2 40 41
M  V30 41 1 41 42
M  V30 42 1 42 43
M  V30 43 2 19 44
M  V30 44 1 44 45
M  V30 45 1 45 46
M  V30 46 1 46 47
M  V30 47 2 47 48
M  V30 48 1 48 49
M  V30 49 1 16 50
M  V30 50 2 50 51
M  V30 51 1 51 52
M  V30 52 2 52 53
M  V30 53 1 10 3
M  V30 54 1 52 11
M  V30 55 1 51 14
M  V30 56 1 49 17
M  V30 57 1 41 21
M  V30 58 2 49 45
M  V30 59 1 39 25
M  V30 60 1 37 31
M  V30 61 1 1 54
M  V30 62 1 1 55
M  V30 63 1 1 56
M  V30 64 1 2 57
M  V30 65 1 2 58
M  V30 66 1 4 59
M  V30 67 1 5 60
M  V30 68 1 6 61
M  V30 69 1 8 62
M  V30 70 1 8 63
M  V30 71 1 9 64
M  V30 72 1 9 65
M  V30 73 1 9 66
M  V30 74 1 12 67
M  V30 75 1 12 68
M  V30 76 1 13 69
M  V30 77 1 13 70
M  V30 78 1 15 71
M  V30 79 1 20 72
M  V30 80 1 22 73
M  V30 81 1 23 74
M  V30 82 1 26 75
M  V30 83 1 26 76
M  V30 84 1 27 77
M  V30 85 1 27 78
M  V30 86 1 28 79
M  V30 87 1 32 80
M  V30 88 1 32 81
M  V30 89 1 33 82
M  V30 90 1 33 83
M  V30 91 1 35 84
M  V30 92 1 35 85
M  V30 93 1 35 86
M  V30 94 1 36 87
M  V30 95 1 36 88
M  V30 96 1 37 89
M  V30 97 1 37 90
M  V30 98 1 38 91
M  V30 99 1 38 92
M  V30 100 1 39 93
M  V30 101 1 39 94
M  V30 102 1 40 95
M  V30 103 1 43 96
M  V30 104 1 43 97
M  V30 105 1 43 98
M  V30 106 1 46 99
M  V30 107 1 47 100
M  V30 108 1 48 101
M  V30 109 1 50 102
M  V30 END BOND
M  V30 END CTAB
M  END
>  <Dataset>  (340) 
ChEMBL_Kinases

>  <Ligand_Instance>  (340) 
nan

>  <PDB_ID>  (340) 
nan

>  <Standardized_SMILES>  (340) 
CCc1cccc(CC)c1N1CCn2cc(-c3nc(Nc4ccc(N5CCC(C(=O)N6CCN(C)CC6)CC5)cc4OC)nc4[nH]ccc34)cc2C1=O

>  <Name>  (340) 
nan

>  <Pocket>  (340) 
nan

>  <ATP_Site>  (340) 
nan

>  <Peripheral>  (340) 
nan

>  <Num_H_Atoms_ProtBoundConf>  (340) 
nan

>  <Num_Resolved_Atoms>  (340) 
nan

>  <Num_Not_Resolved_Atoms>  (340) 
nan

$$$$
CHEMBL5085230
     RDKit          3D

  0  0  0  0  0  0  0  0  0  0999 V3000
M  V30 BEGIN CTAB
M  V30 COUNTS 49 50 0 0 0
M  V30 BEGIN ATOM
M  V30 1 C -2.425446 -7.761105 1.290955 0
M  V30 2 C -1.127543 -7.019613 1.396610 0
M  V30 3 C -1.155909 -5.685430 1.039513 0
M  V30 4 C 0.011536 -4.943841 1.115036 0
M  V30 5 C 0.102323 -3.529023 0.763998 0
M  V30 6 C 1.013375 -2.716251 1.421290 0
M  V30 7 C 1.135369 -1.378584 1.125624 0
M  V30 8 C 0.353705 -0.786935 0.159152 0
M  V30 9 O 0.354430 0.531912 -0.252094 0
M  V30 10 C 1.217482 1.464555 0.320270 0
M  V30 11 C 1.099776 2.844696 -0.229359 0 CFG=1
M  V30 12 C 2.228597 3.748803 0.266860 0
M  V30 13 N 1.416333 2.684621 -1.671045 0
M  V30 14 C -0.214348 3.493706 -0.223214 0
M  V30 15 C -0.980544 3.765243 0.976494 0
M  V30 16 C -0.401322 4.621469 2.035358 0
M  V30 17 C -1.551529 2.510431 1.584497 0
M  V30 18 C -0.572711 -1.584586 -0.518219 0
M  V30 19 C -1.437001 -1.078305 -1.540409 0
M  V30 20 N -2.148789 -0.662014 -2.354384 0
M  V30 21 C -0.668710 -2.915615 -0.198563 0
M  V30 22 C 1.128247 -5.618677 1.550930 0
M  V30 23 C 1.175942 -6.964177 1.915475 0
M  V30 24 N 0.008566 -7.607136 1.814057 0
M  V30 25 H -3.080313 -7.502275 2.162344 0
M  V30 26 H -2.924707 -7.517551 0.331773 0
M  V30 27 H -2.217946 -8.840837 1.271685 0
M  V30 28 H -2.057789 -5.168425 0.694951 0
M  V30 29 H 1.677412 -3.077118 2.198034 0
M  V30 30 H 1.818301 -0.687740 1.592761 0
M  V30 31 H 2.252575 1.026749 0.126013 0
M  V30 32 H 1.201061 1.519273 1.427553 0
M  V30 33 H 2.541804 3.387379 1.283754 0
M  V30 34 H 3.149814 3.664160 -0.347469 0
M  V30 35 H 1.954619 4.819591 0.247568 0
M  V30 36 H 1.414250 3.656673 -2.097086 0
M  V30 37 H 2.427877 2.374044 -1.732416 0
M  V30 38 H -0.841647 2.910458 -0.972680 0
M  V30 39 H -0.075423 4.466330 -0.800004 0
M  V30 40 H -1.924410 4.338021 0.656400 0
M  V30 41 H -0.110480 5.635005 1.651104 0
M  V30 42 H 0.479566 4.226811 2.551886 0
M  V30 43 H -1.153235 4.849723 2.820886 0
M  V30 44 H -1.830915 1.747099 0.801207 0
M  V30 45 H -2.525869 2.703107 2.099220 0
M  V30 46 H -0.922432 2.011423 2.318299 0
M  V30 47 H -1.375800 -3.588968 -0.695523 0
M  V30 48 H 2.067787 -5.065289 1.623095 0
M  V30 49 H 2.086969 -7.409237 2.243414 0
M  V30 END ATOM
M  V30 BEGIN BOND
M  V30 1 1 1 2
M  V30 2 2 2 3
M  V30 3 1 3 4
M  V30 4 1 4 5
M  V30 5 2 5 6
M  V30 6 1 6 7
M  V30 7 2 7 8
M  V30 8 1 8 9
M  V30 9 1 9 10
M  V30 10 1 10 11
M  V30 11 1 11 12
M  V30 12 1 11 13 CFG=3
M  V30 13 1 11 14
M  V30 14 1 14 15
M  V30 15 1 15 16
M  V30 16 1 15 17
M  V30 17 1 8 18
M  V30 18 1 18 19
M  V30 19 3 19 20
M  V30 20 2 18 21
M  V30 21 2 4 22
M  V30 22 1 22 23
M  V30 23 2 23 24
M  V30 24 1 24 2
M  V30 25 1 21 5
M  V30 26 1 1 25
M  V30 27 1 1 26
M  V30 28 1 1 27
M  V30 29 1 3 28
M  V30 30 1 6 29
M  V30 31 1 7 30
M  V30 32 1 10 31
M  V30 33 1 10 32
M  V30 34 1 12 33
M  V30 35 1 12 34
M  V30 36 1 12 35
M  V30 37 1 13 36
M  V30 38 1 13 37
M  V30 39 1 14 38
M  V30 40 1 14 39
M  V30 41 1 15 40
M  V30 42 1 16 41
M  V30 43 1 16 42
M  V30 44 1 16 43
M  V30 45 1 17 44
M  V30 46 1 17 45
M  V30 47 1 17 46
M  V30 48 1 21 47
M  V30 49 1 22 48
M  V30 50 1 23 49
M  V30 END BOND
M  V30 END CTAB
M  END
>  <Dataset>  (341) 
ChEMBL_Kinases

>  <Ligand_Instance>  (341) 
nan

>  <PDB_ID>  (341) 
nan

>  <Standardized_SMILES>  (341) 
Cc1cc(-c2ccc(OC[C@@](C)(N)CC(C)C)c(C#N)c2)ccn1

>  <Name>  (341) 
nan

>  <Pocket>  (341) 
nan

>  <ATP_Site>  (341) 
nan

>  <Peripheral>  (341) 
nan

>  <Num_H_Atoms_ProtBoundConf>  (341) 
nan

>  <Num_Resolved_Atoms>  (341) 
nan

>  <Num_Not_Resolved_Atoms>  (341) 
nan

$$$$
CHEMBL376004
     RDKit          3D

  0  0  0  0  0  0  0  0  0  0999 V3000
M  V30 BEGIN CTAB
M  V30 COUNTS 42 44 0 0 0
M  V30 BEGIN ATOM
M  V30 1 C -0.472577 -6.917375 -2.013489 0
M  V30 2 N 0.026649 -6.121705 -3.122315 0
M  V30 3 C 1.115080 -5.341634 -2.644220 0
M  V30 4 N 2.424541 -5.701405 -2.637446 0
M  V30 5 C 3.345077 -4.830446 -2.140622 0
M  V30 6 C 3.020580 -3.572618 -1.630624 0
M  V30 7 C 1.676899 -3.267873 -1.665784 0
M  V30 8 C 1.238092 -1.954986 -1.146026 0
M  V30 9 C 0.048435 -1.398175 -1.051476 0
M  V30 10 C -0.094281 -0.145130 -0.520769 0
M  V30 11 C 1.050260 0.464152 -0.110439 0
M  V30 12 C 1.346291 1.797567 0.510486 0
M  V30 13 O 2.521183 2.063762 0.774417 0
M  V30 14 N 0.202874 2.575443 0.707601 0
M  V30 15 C 0.327277 3.889454 1.300135 0
M  V30 16 C 0.912827 3.753273 2.681121 0
M  V30 17 C 0.089612 2.933158 3.594114 0
M  V30 18 C 0.162705 1.574649 3.820308 0
M  V30 19 C -0.681467 0.939847 4.707071 0
M  V30 20 C -1.646902 1.614188 5.421201 0
M  V30 21 Cl -2.695824 0.796066 6.529347 0
M  V30 22 C -1.766751 2.968026 5.237740 0
M  V30 23 C -0.906908 3.571916 4.343591 0
M  V30 24 S 2.346830 -0.767262 -0.486934 0
M  V30 25 N 0.767159 -4.116893 -2.151648 0
M  V30 26 H -0.753459 -6.244465 -1.162363 0
M  V30 27 H 0.207602 -7.710993 -1.702218 0
M  V30 28 H -1.461263 -7.329077 -2.367988 0
M  V30 29 H -0.293923 -6.065326 -4.130974 0
M  V30 30 H 4.375190 -5.167516 -2.158958 0
M  V30 31 H 3.787327 -2.923825 -1.250367 0
M  V30 32 H -0.811906 -1.958050 -1.404524 0
M  V30 33 H -1.014138 0.409661 -0.393260 0
M  V30 34 H -0.778991 2.261230 0.445758 0
M  V30 35 H 1.087503 4.465299 0.700029 0
M  V30 36 H -0.638269 4.417184 1.335371 0
M  V30 37 H 1.005013 4.759581 3.163903 0
M  V30 38 H 1.933141 3.348083 2.607992 0
M  V30 39 H 0.922704 1.050305 3.259864 0
M  V30 40 H -0.543260 -0.140485 4.815613 0
M  V30 41 H -2.497217 3.572697 5.757882 0
M  V30 42 H -1.018821 4.657154 4.210611 0
M  V30 END ATOM
M  V30 BEGIN BOND
M  V30 1 1 1 2
M  V30 2 1 2 3
M  V30 3 2 3 4
M  V30 4 1 4 5
M  V30 5 2 5 6
M  V30 6 1 6 7
M  V30 7 1 7 8
M  V30 8 2 8 9
M  V30 9 1 9 10
M  V30 10 2 10 11
M  V30 11 1 11 12
M  V30 12 2 12 13
M  V30 13 1 12 14
M  V30 14 1 14 15
M  V30 15 1 15 16
M  V30 16 1 16 17
M  V30 17 2 17 18
M  V30 18 1 18 19
M  V30 19 2 19 20
M  V30 20 1 20 21
M  V30 21 1 20 22
M  V30 22 2 22 23
M  V30 23 1 11 24
M  V30 24 2 7 25
M  V30 25 1 25 3
M  V30 26 1 24 8
M  V30 27 1 23 17
M  V30 28 1 1 26
M  V30 29 1 1 27
M  V30 30 1 1 28
M  V30 31 1 2 29
M  V30 32 1 5 30
M  V30 33 1 6 31
M  V30 34 1 9 32
M  V30 35 1 10 33
M  V30 36 1 14 34
M  V30 37 1 15 35
M  V30 38 1 15 36
M  V30 39 1 16 37
M  V30 40 1 16 38
M  V30 41 1 18 39
M  V30 42 1 19 40
M  V30 43 1 22 41
M  V30 44 1 23 42
M  V30 END BOND
M  V30 END CTAB
M  END
>  <Dataset>  (342) 
ChEMBL_Kinases

>  <Ligand_Instance>  (342) 
nan

>  <PDB_ID>  (342) 
nan

>  <Standardized_SMILES>  (342) 
CNc1nccc(-c2ccc(C(=O)NCCc3ccc(Cl)cc3)s2)n1

>  <Name>  (342) 
nan

>  <Pocket>  (342) 
nan

>  <ATP_Site>  (342) 
nan

>  <Peripheral>  (342) 
nan

>  <Num_H_Atoms_ProtBoundConf>  (342) 
nan

>  <Num_Resolved_Atoms>  (342) 
nan

>  <Num_Not_Resolved_Atoms>  (342) 
nan

$$$$
CHEMBL5085236
     RDKit          3D

  0  0  0  0  0  0  0  0  0  0999 V3000
M  V30 BEGIN CTAB
M  V30 COUNTS 60 64 0 0 0
M  V30 BEGIN ATOM
M  V30 1 C 6.326578 -0.603356 3.279826 0
M  V30 2 C 4.905796 -0.716618 2.834550 0
M  V30 3 C 4.017281 -1.516334 3.515932 0
M  V30 4 C 2.714688 -1.592157 3.073534 0
M  V30 5 C 1.752777 -2.459866 3.814097 0
M  V30 6 C 2.344029 -0.867502 1.966574 0
M  V30 7 C 3.182570 -0.059953 1.254001 0
M  V30 8 N 2.834903 0.702329 0.108669 0
M  V30 9 C 1.566253 0.787979 -0.522137 0
M  V30 10 N 1.407852 1.562646 -1.609107 0
M  V30 11 C 0.233492 1.681102 -2.242985 0
M  V30 12 C -0.887837 1.012072 -1.815679 0
M  V30 13 C -0.746242 0.213265 -0.703694 0
M  V30 14 C -1.783567 -0.573310 -0.086325 0
M  V30 15 C -2.920196 0.002772 0.474169 0
M  V30 16 C -3.328145 1.401856 0.578273 0
M  V30 17 C -2.565288 2.323539 1.306248 0
M  V30 18 C -2.994461 3.636630 1.375237 0
M  V30 19 C -4.158329 4.017368 0.731529 0
M  V30 20 I -4.856992 6.004667 0.804720 0
M  V30 21 C -4.914205 3.110973 0.011974 0
M  V30 22 C -4.498454 1.781689 -0.069858 0
M  V30 23 N -3.646176 -1.027950 0.945453 0
M  V30 24 C -3.010041 -2.197253 0.700368 0
M  V30 25 N -1.855621 -1.927110 0.061775 0
M  V30 26 C -0.777178 -2.781926 -0.445252 0
M  V30 27 C -1.192900 -4.231449 -0.298547 0
M  V30 28 C -2.186487 -4.616445 -1.380064 0
M  V30 29 N -1.578667 -4.604626 -2.684454 0
M  V30 30 C -0.363030 -3.848779 -2.688654 0
M  V30 31 C -0.558574 -2.556626 -1.924744 0
M  V30 32 N 0.469733 0.164457 -0.144921 0
M  V30 33 C 4.462744 -0.023559 1.738979 0
M  V30 34 H 6.503085 -1.197028 4.186347 0
M  V30 35 H 6.562459 0.485242 3.428566 0
M  V30 36 H 6.978097 -0.911261 2.440146 0
M  V30 37 H 4.397330 -2.048462 4.373246 0
M  V30 38 H 1.920914 -2.303810 4.917538 0
M  V30 39 H 1.820509 -3.516066 3.536387 0
M  V30 40 H 0.696427 -2.136294 3.634046 0
M  V30 41 H 1.324376 -0.976776 1.686091 0
M  V30 42 H 3.603069 1.268388 -0.322757 0
M  V30 43 H 0.143758 2.319986 -3.122459 0
M  V30 44 H -1.866033 1.057829 -2.273796 0
M  V30 45 H -1.662597 1.990407 1.795637 0
M  V30 46 H -2.425958 4.383209 1.933252 0
M  V30 47 H -5.837714 3.413495 -0.498592 0
M  V30 48 H -5.062945 1.043538 -0.623646 0
M  V30 49 H -3.300018 -3.211577 0.937443 0
M  V30 50 H 0.157510 -2.650590 0.133067 0
M  V30 51 H -0.317808 -4.905460 -0.338056 0
M  V30 52 H -1.677723 -4.435158 0.678383 0
M  V30 53 H -3.091233 -4.007212 -1.318589 0
M  V30 54 H -2.480348 -5.677654 -1.175331 0
M  V30 55 H -2.240465 -4.163133 -3.359615 0
M  V30 56 H -0.176616 -3.527006 -3.749508 0
M  V30 57 H 0.523304 -4.408477 -2.326769 0
M  V30 58 H 0.333071 -1.930791 -2.122193 0
M  V30 59 H -1.480478 -2.097789 -2.378225 0
M  V30 60 H 5.216400 0.598965 1.234770 0
M  V30 END ATOM
M  V30 BEGIN BOND
M  V30 1 1 1 2
M  V30 2 2 2 3
M  V30 3 1 3 4
M  V30 4 1 4 5
M  V30 5 2 4 6
M  V30 6 1 6 7
M  V30 7 1 7 8
M  V30 8 1 8 9
M  V30 9 2 9 10
M  V30 10 1 10 11
M  V30 11 2 11 12
M  V30 12 1 12 13
M  V30 13 1 13 14
M  V30 14 2 14 15
M  V30 15 1 15 16
M  V30 16 2 16 17
M  V30 17 1 17 18
M  V30 18 2 18 19
M  V30 19 1 19 20
M  V30 20 1 19 21
M  V30 21 2 21 22
M  V30 22 1 15 23
M  V30 23 2 23 24
M  V30 24 1 24 25
M  V30 25 1 25 26
M  V30 26 1 26 27
M  V30 27 1 27 28
M  V30 28 1 28 29
M  V30 29 1 29 30
M  V30 30 1 30 31
M  V30 31 2 13 32
M  V30 32 2 7 33
M  V30 33 1 33 2
M  V30 34 1 32 9
M  V30 35 1 25 14
M  V30 36 1 31 26
M  V30 37 1 22 16
M  V30 38 1 1 34
M  V30 39 1 1 35
M  V30 40 1 1 36
M  V30 41 1 3 37
M  V30 42 1 5 38
M  V30 43 1 5 39
M  V30 44 1 5 40
M  V30 45 1 6 41
M  V30 46 1 8 42
M  V30 47 1 11 43
M  V30 48 1 12 44
M  V30 49 1 17 45
M  V30 50 1 18 46
M  V30 51 1 21 47
M  V30 52 1 22 48
M  V30 53 1 24 49
M  V30 54 1 26 50
M  V30 55 1 27 51
M  V30 56 1 27 52
M  V30 57 1 28 53
M  V30 58 1 28 54
M  V30 59 1 29 55
M  V30 60 1 30 56
M  V30 61 1 30 57
M  V30 62 1 31 58
M  V30 63 1 31 59
M  V30 64 1 33 60
M  V30 END BOND
M  V30 END CTAB
M  END
>  <Dataset>  (343) 
ChEMBL_Kinases

>  <Ligand_Instance>  (343) 
nan

>  <PDB_ID>  (343) 
nan

>  <Standardized_SMILES>  (343) 
Cc1cc(C)cc(Nc2nccc(-c3c(-c4ccc(I)cc4)ncn3C3CCNCC3)n2)c1

>  <Name>  (343) 
nan

>  <Pocket>  (343) 
nan

>  <ATP_Site>  (343) 
nan

>  <Peripheral>  (343) 
nan

>  <Num_H_Atoms_ProtBoundConf>  (343) 
nan

>  <Num_Resolved_Atoms>  (343) 
nan

>  <Num_Not_Resolved_Atoms>  (343) 
nan

$$$$
CHEMBL5085278
     RDKit          3D

  0  0  0  0  0  0  0  0  0  0999 V3000
M  V30 BEGIN CTAB
M  V30 COUNTS 100 106 0 0 0
M  V30 BEGIN ATOM
M  V30 1 C 2.993305 -4.026226 6.292403 0
M  V30 2 C 4.317897 -3.577198 5.713357 0
M  V30 3 C 4.805700 -2.422279 6.546234 0
M  V30 4 C 5.844182 -2.697526 7.442478 0
M  V30 5 C 6.410286 -1.737709 8.283588 0
M  V30 6 C 5.867917 -0.468898 8.173327 0
M  V30 7 C 4.844811 -0.180614 7.296341 0
M  V30 8 C 4.247499 1.170545 7.177741 0
M  V30 9 C 4.670456 1.943500 5.974867 0
M  V30 10 C 4.292573 -1.131803 6.470323 0
M  V30 11 N 3.268261 -1.035079 5.524283 0
M  V30 12 C 3.279738 -0.772048 4.130669 0
M  V30 13 O 4.414653 -0.579793 3.602593 0
M  V30 14 C 2.054493 -0.727361 3.345897 0
M  V30 15 C 0.741253 -0.845844 3.743600 0
M  V30 16 C -0.084078 -0.767418 2.647884 0
M  V30 17 C -1.528729 -0.818667 2.455513 0
M  V30 18 N -2.208129 0.006512 1.604359 0
M  V30 19 C -3.559574 -0.125288 1.495324 0
M  V30 20 N -4.017257 0.830911 0.514587 0
M  V30 21 C -3.992853 0.253441 -0.785525 0
M  V30 22 C -3.619231 -1.038150 -1.091802 0
M  V30 23 C -3.578645 -1.636944 -2.331491 0
M  V30 24 C -3.953788 -0.863273 -3.401927 0
M  V30 25 N -3.953033 -1.380774 -4.726347 0
M  V30 26 C -4.193611 -0.610810 -5.958190 0
M  V30 27 C -3.334224 -1.168114 -7.102345 0
M  V30 28 C -2.023112 -1.719928 -6.584400 0
M  V30 29 C -1.238579 -0.719659 -5.834344 0
M  V30 30 O -0.912550 -0.839849 -4.615432 0
M  V30 31 N -0.719407 0.513789 -6.304845 0
M  V30 32 C -0.023177 1.151841 -5.206871 0
M  V30 33 C 0.344624 2.560242 -5.600542 0
M  V30 34 N 1.265114 2.484379 -6.707788 0
M  V30 35 C 2.483259 1.864224 -6.192343 0
M  V30 36 C 0.731637 1.707312 -7.808352 0
M  V30 37 C -0.699498 1.288477 -7.557731 0
M  V30 38 C -2.344004 -2.930389 -5.734478 0
M  V30 39 C -3.718348 -2.769859 -5.073156 0
M  V30 40 C -4.343004 0.440977 -3.191869 0
M  V30 41 C -4.359514 0.979124 -1.910862 0
M  V30 42 O -4.768623 2.288109 -1.841606 0
M  V30 43 C -5.148348 3.084332 -2.912729 0
M  V30 44 N -4.289465 -1.023562 2.177907 0
M  V30 45 C -3.680788 -1.863351 3.030857 0
M  V30 46 N -4.115734 -2.837775 3.826151 0
M  V30 47 C -3.102156 -3.409439 4.503817 0
M  V30 48 C -1.999018 -2.732889 4.084893 0
M  V30 49 C -2.310547 -1.745410 3.154009 0
M  V30 50 N 0.744449 -0.600667 1.595065 0
M  V30 51 C 0.362256 -0.458013 0.181729 0
M  V30 52 N 2.024276 -0.575191 2.002048 0
M  V30 53 H 3.162286 -5.019779 6.784228 0
M  V30 54 H 2.218553 -4.125866 5.491536 0
M  V30 55 H 2.603120 -3.296194 7.037317 0
M  V30 56 H 4.096205 -3.182150 4.679997 0
M  V30 57 H 5.045297 -4.389652 5.695625 0
M  V30 58 H 6.257089 -3.704748 7.513982 0
M  V30 59 H 7.197288 -2.008076 8.943459 0
M  V30 60 H 6.257813 0.325620 8.793578 0
M  V30 61 H 4.596399 1.739869 8.092432 0
M  V30 62 H 3.145681 1.125460 7.309840 0
M  V30 63 H 4.841390 3.018353 6.260178 0
M  V30 64 H 3.819066 1.956408 5.250375 0
M  V30 65 H 5.611777 1.561460 5.526570 0
M  V30 66 H 2.319123 -1.187029 5.933499 0
M  V30 67 H 0.378590 -0.978212 4.730703 0
M  V30 68 H -4.344372 1.818435 0.588783 0
M  V30 69 H -3.316764 -1.674073 -0.267070 0
M  V30 70 H -3.264104 -2.664026 -2.440014 0
M  V30 71 H -5.237036 -0.800205 -6.242814 0
M  V30 72 H -3.933426 0.443066 -5.875413 0
M  V30 73 H -3.869112 -2.024240 -7.552571 0
M  V30 74 H -3.155178 -0.348159 -7.826682 0
M  V30 75 H -1.449971 -2.051872 -7.448589 0
M  V30 76 H 0.904052 0.623930 -4.911192 0
M  V30 77 H -0.738733 1.252241 -4.345471 0
M  V30 78 H 0.911562 2.992041 -4.733185 0
M  V30 79 H -0.531990 3.184417 -5.770944 0
M  V30 80 H 3.378876 2.228706 -6.748738 0
M  V30 81 H 2.428155 0.763816 -6.371947 0
M  V30 82 H 2.623516 2.025657 -5.114430 0
M  V30 83 H 1.360458 0.833603 -7.981398 0
M  V30 84 H 0.767862 2.375723 -8.698002 0
M  V30 85 H -0.996775 0.646715 -8.406528 0
M  V30 86 H -1.352275 2.152938 -7.388824 0
M  V30 87 H -2.381432 -3.854908 -6.341783 0
M  V30 88 H -1.615128 -3.093742 -4.925522 0
M  V30 89 H -3.723518 -3.463166 -4.232841 0
M  V30 90 H -4.539395 -3.112139 -5.753089 0
M  V30 91 H -4.637193 1.033518 -4.066157 0
M  V30 92 H -5.972888 2.520325 -3.442598 0
M  V30 93 H -5.583989 4.045831 -2.617956 0
M  V30 94 H -4.338388 3.153982 -3.663456 0
M  V30 95 H -5.125878 -3.090536 3.884131 0
M  V30 96 H -3.134690 -4.220094 5.220375 0
M  V30 97 H -0.989224 -2.958339 4.452285 0
M  V30 98 H -0.184936 -1.356086 -0.166761 0
M  V30 99 H -0.345029 0.391462 0.106079 0
M  V30 100 H 1.233861 -0.327902 -0.457116 0
M  V30 END ATOM
M  V30 BEGIN BOND
M  V30 1 1 1 2
M  V30 2 1 2 3
M  V30 3 2 3 4
M  V30 4 1 4 5
M  V30 5 2 5 6
M  V30 6 1 6 7
M  V30 7 1 7 8
M  V30 8 1 8 9
M  V30 9 2 7 10
M  V30 10 1 10 11
M  V30 11 1 11 12
M  V30 12 2 12 13
M  V30 13 1 12 14
M  V30 14 1 14 15
M  V30 15 2 15 16
M  V30 16 1 16 17
M  V30 17 2 17 18
M  V30 18 1 18 19
M  V30 19 1 19 20
M  V30 20 1 20 21
M  V30 21 2 21 22
M  V30 22 1 22 23
M  V30 23 2 23 24
M  V30 24 1 24 25
M  V30 25 1 25 26
M  V30 26 1 26 27
M  V30 27 1 27 28
M  V30 28 1 28 29
M  V30 29 2 29 30
M  V30 30 1 29 31
M  V30 31 1 31 32
M  V30 32 1 32 33
M  V30 33 1 33 34
M  V30 34 1 34 35
M  V30 35 1 34 36
M  V30 36 1 36 37
M  V30 37 1 28 38
M  V30 38 1 38 39
M  V30 39 1 24 40
M  V30 40 2 40 41
M  V30 41 1 41 42
M  V30 42 1 42 43
M  V30 43 2 19 44
M  V30 44 1 44 45
M  V30 45 1 45 46
M  V30 46 1 46 47
M  V30 47 2 47 48
M  V30 48 1 48 49
M  V30 49 1 16 50
M  V30 50 1 50 51
M  V30 51 1 50 52
M  V30 52 1 10 3
M  V30 53 2 52 14
M  V30 54 1 49 17
M  V30 55 1 41 21
M  V30 56 2 49 45
M  V30 57 1 39 25
M  V30 58 1 37 31
M  V30 59 1 1 53
M  V30 60 1 1 54
M  V30 61 1 1 55
M  V30 62 1 2 56
M  V30 63 1 2 57
M  V30 64 1 4 58
M  V30 65 1 5 59
M  V30 66 1 6 60
M  V30 67 1 8 61
M  V30 68 1 8 62
M  V30 69 1 9 63
M  V30 70 1 9 64
M  V30 71 1 9 65
M  V30 72 1 11 66
M  V30 73 1 15 67
M  V30 74 1 20 68
M  V30 75 1 22 69
M  V30 76 1 23 70
M  V30 77 1 26 71
M  V30 78 1 26 72
M  V30 79 1 27 73
M  V30 80 1 27 74
M  V30 81 1 28 75
M  V30 82 1 32 76
M  V30 83 1 32 77
M  V30 84 1 33 78
M  V30 85 1 33 79
M  V30 86 1 35 80
M  V30 87 1 35 81
M  V30 88 1 35 82
M  V30 89 1 36 83
M  V30 90 1 36 84
M  V30 91 1 37 85
M  V30 92 1 37 86
M  V30 93 1 38 87
M  V30 94 1 38 88
M  V30 95 1 39 89
M  V30 96 1 39 90
M  V30 97 1 40 91
M  V30 98 1 43 92
M  V30 99 1 43 93
M  V30 100 1 43 94
M  V30 101 1 46 95
M  V30 102 1 47 96
M  V30 103 1 48 97
M  V30 104 1 51 98
M  V30 105 1 51 99
M  V30 106 1 51 100
M  V30 END BOND
M  V30 END CTAB
M  END
>  <Dataset>  (344) 
ChEMBL_Kinases

>  <Ligand_Instance>  (344) 
nan

>  <PDB_ID>  (344) 
nan

>  <Standardized_SMILES>  (344) 
CCc1cccc(CC)c1NC(=O)c1cc(-c2nc(Nc3ccc(N4CCC(C(=O)N5CCN(C)CC5)CC4)cc3OC)nc3[nH]ccc23)n(C)n1

>  <Name>  (344) 
nan

>  <Pocket>  (344) 
nan

>  <ATP_Site>  (344) 
nan

>  <Peripheral>  (344) 
nan

>  <Num_H_Atoms_ProtBoundConf>  (344) 
nan

>  <Num_Resolved_Atoms>  (344) 
nan

>  <Num_Not_Resolved_Atoms>  (344) 
nan

$$$$
CHEMBL5085280
     RDKit          3D

  0  0  0  0  0  0  0  0  0  0999 V3000
M  V30 BEGIN CTAB
M  V30 COUNTS 57 60 0 0 0
M  V30 BEGIN ATOM
M  V30 1 C 6.485863 -3.344006 3.248602 0
M  V30 2 C 6.589278 -3.763336 1.817261 0
M  V30 3 O 5.468718 -3.477974 1.029279 0
M  V30 4 C 4.955164 -2.234553 0.795713 0
M  V30 5 C 5.458137 -1.052822 1.298666 0
M  V30 6 C 4.854003 0.152489 0.994387 0
M  V30 7 N 5.333095 1.326919 1.479219 0
M  V30 8 C 4.764917 2.501319 1.197813 0
M  V30 9 N 3.689779 2.509220 0.412059 0
M  V30 10 C 3.112148 1.432784 -0.133646 0
M  V30 11 N 1.962948 1.525011 -0.964702 0
M  V30 12 C 1.430182 2.842575 -1.202885 0
M  V30 13 C 0.224422 2.850032 -2.076661 0
M  V30 14 C -0.909575 2.077755 -1.530588 0
M  V30 15 C -1.250481 0.766647 -1.737661 0
M  V30 16 C -2.356430 0.227278 -1.119931 0
M  V30 17 C -3.181357 0.911681 -0.282300 0
M  V30 18 N -4.327210 0.407085 0.376783 0
M  V30 19 C -4.882321 -0.888483 0.331104 0
M  V30 20 O -4.342716 -1.774958 -0.370146 0
M  V30 21 N -6.033312 -1.314509 1.021892 0
M  V30 22 C -6.462799 -2.665405 0.865345 0
M  V30 23 C -5.954429 -3.609631 1.755071 0
M  V30 24 C -6.310777 -4.939630 1.682941 0
M  V30 25 C -7.198252 -5.370631 0.705488 0
M  V30 26 C -7.712015 -4.441137 -0.186742 0
M  V30 27 C -7.351988 -3.110843 -0.110132 0
M  V30 28 C -2.847162 2.227288 -0.069223 0
M  V30 29 C -1.747457 2.798537 -0.671078 0
M  V30 30 C 3.738606 0.250040 0.189470 0
M  V30 31 C 3.245675 -0.937301 -0.306822 0
M  V30 32 C 3.822906 -2.161894 -0.024420 0
M  V30 33 F 3.294276 -3.304832 -0.541719 0
M  V30 34 H 6.371639 -4.256330 3.905559 0
M  V30 35 H 7.410141 -2.856382 3.633941 0
M  V30 36 H 5.565700 -2.749118 3.487314 0
M  V30 37 H 6.847493 -4.837839 1.767581 0
M  V30 38 H 7.451080 -3.230035 1.346078 0
M  V30 39 H 6.326190 -1.094710 1.928253 0
M  V30 40 H 5.135347 3.451100 1.577396 0
M  V30 41 H 1.471791 0.754363 -1.414865 0
M  V30 42 H 1.259756 3.328289 -0.213067 0
M  V30 43 H 2.246394 3.397522 -1.746719 0
M  V30 44 H 0.520532 2.320407 -3.031241 0
M  V30 45 H -0.109746 3.860495 -2.354218 0
M  V30 46 H -0.606095 0.221382 -2.403139 0
M  V30 47 H -2.541209 -0.798037 -1.341281 0
M  V30 48 H -4.892289 1.021825 1.001733 0
M  V30 49 H -6.533657 -0.602895 1.633866 0
M  V30 50 H -5.259169 -3.331734 2.537265 0
M  V30 51 H -5.895445 -5.665333 2.396843 0
M  V30 52 H -7.475391 -6.419045 0.652999 0
M  V30 53 H -8.404152 -4.772502 -0.950347 0
M  V30 54 H -7.739976 -2.374115 -0.793283 0
M  V30 55 H -3.462910 2.829360 0.587194 0
M  V30 56 H -1.563462 3.839767 -0.444094 0
M  V30 57 H 2.377618 -0.964901 -0.945114 0
M  V30 END ATOM
M  V30 BEGIN BOND
M  V30 1 1 1 2
M  V30 2 1 2 3
M  V30 3 1 3 4
M  V30 4 2 4 5
M  V30 5 1 5 6
M  V30 6 2 6 7
M  V30 7 1 7 8
M  V30 8 2 8 9
M  V30 9 1 9 10
M  V30 10 1 10 11
M  V30 11 1 11 12
M  V30 12 1 12 13
M  V30 13 1 13 14
M  V30 14 2 14 15
M  V30 15 1 15 16
M  V30 16 2 16 17
M  V30 17 1 17 18
M  V30 18 1 18 19
M  V30 19 2 19 20
M  V30 20 1 19 21
M  V30 21 1 21 22
M  V30 22 2 22 23
M  V30 23 1 23 24
M  V30 24 2 24 25
M  V30 25 1 25 26
M  V30 26 2 26 27
M  V30 27 1 17 28
M  V30 28 2 28 29
M  V30 29 2 10 30
M  V30 30 1 30 31
M  V30 31 2 31 32
M  V30 32 1 32 33
M  V30 33 1 32 4
M  V30 34 1 30 6
M  V30 35 1 29 14
M  V30 36 1 27 22
M  V30 37 1 1 34
M  V30 38 1 1 35
M  V30 39 1 1 36
M  V30 40 1 2 37
M  V30 41 1 2 38
M  V30 42 1 5 39
M  V30 43 1 8 40
M  V30 44 1 11 41
M  V30 45 1 12 42
M  V30 46 1 12 43
M  V30 47 1 13 44
M  V30 48 1 13 45
M  V30 49 1 15 46
M  V30 50 1 16 47
M  V30 51 1 18 48
M  V30 52 1 21 49
M  V30 53 1 23 50
M  V30 54 1 24 51
M  V30 55 1 25 52
M  V30 56 1 26 53
M  V30 57 1 27 54
M  V30 58 1 28 55
M  V30 59 1 29 56
M  V30 60 1 31 57
M  V30 END BOND
M  V30 END CTAB
M  END
>  <Dataset>  (345) 
ChEMBL_Kinases

>  <Ligand_Instance>  (345) 
nan

>  <PDB_ID>  (345) 
nan

>  <Standardized_SMILES>  (345) 
CCOc1cc2ncnc(NCCc3ccc(NC(=O)Nc4ccccc4)cc3)c2cc1F

>  <Name>  (345) 
nan

>  <Pocket>  (345) 
nan

>  <ATP_Site>  (345) 
nan

>  <Peripheral>  (345) 
nan

>  <Num_H_Atoms_ProtBoundConf>  (345) 
nan

>  <Num_Resolved_Atoms>  (345) 
nan

>  <Num_Not_Resolved_Atoms>  (345) 
nan

$$$$
CHEMBL5085315
     RDKit          3D

  0  0  0  0  0  0  0  0  0  0999 V3000
M  V30 BEGIN CTAB
M  V30 COUNTS 56 60 0 0 0
M  V30 BEGIN ATOM
M  V30 1 C -0.773942 -6.270626 2.365827 0
M  V30 2 C 0.094826 -5.162526 2.874545 0
M  V30 3 N 0.809924 -5.050690 4.015819 0
M  V30 4 N 1.432241 -3.877424 4.037667 0
M  V30 5 C 1.140358 -3.187894 2.908113 0
M  V30 6 N 1.489672 -1.979679 2.424178 0
M  V30 7 C 1.047450 -1.517795 1.239018 0
M  V30 8 C 1.453717 -0.200558 0.755767 0
M  V30 9 C 0.980003 0.237724 -0.464358 0
M  V30 10 C 1.388342 1.498696 -0.893476 0
M  V30 11 C 2.227227 2.271493 -0.132437 0
M  V30 12 N 2.531408 3.524358 -0.735198 0
M  V30 13 S 2.489248 4.977238 0.200220 0
M  V30 14 O 3.434722 4.792717 1.352046 0
M  V30 15 O 2.975909 6.121797 -0.619210 0
M  V30 16 C 0.889572 5.235188 0.811056 0
M  V30 17 C 0.595893 5.310998 2.151277 0
M  V30 18 C -0.678899 5.516199 2.617065 0
M  V30 19 Cl -0.993583 5.603924 4.329306 0
M  V30 20 C -1.749581 5.658971 1.731170 0
M  V30 21 C -1.458788 5.583277 0.376822 0
M  V30 22 C -0.176369 5.377792 -0.051193 0
M  V30 23 F 0.008869 5.318611 -1.387530 0
M  V30 24 C 2.675803 1.787689 1.085092 0
M  V30 25 C 2.299088 0.559400 1.539667 0
M  V30 26 N 0.224322 -2.297608 0.513152 0
M  V30 27 C -0.163966 -3.522025 0.943992 0
M  V30 28 O -1.020214 -4.298682 0.157760 0
M  V30 29 C -1.493304 -3.841045 -1.076827 0
M  V30 30 C -1.027854 -4.748813 -2.196032 0
M  V30 31 C -1.967478 -5.882971 -2.441249 0
M  V30 32 O -3.297601 -5.551220 -2.486992 0
M  V30 33 C -3.502344 -4.188660 -2.422167 0
M  V30 34 C -3.006999 -3.754829 -1.037852 0
M  V30 35 C 0.283932 -4.000120 2.153640 0
M  V30 36 H -0.970827 -7.018868 3.180912 0
M  V30 37 H -1.798285 -5.844636 2.153555 0
M  V30 38 H -0.412161 -6.718776 1.441014 0
M  V30 39 H 2.043346 -3.555658 4.808784 0
M  V30 40 H 0.322095 -0.396721 -1.035560 0
M  V30 41 H 0.978648 1.777996 -1.858554 0
M  V30 42 H 2.786871 3.575529 -1.765527 0
M  V30 43 H 1.383736 5.207782 2.884421 0
M  V30 44 H -2.732136 5.817996 2.128494 0
M  V30 45 H -2.298347 5.695115 -0.322986 0
M  V30 46 H 3.330826 2.470224 1.607852 0
M  V30 47 H 2.680452 0.215721 2.513736 0
M  V30 48 H -1.069671 -2.830253 -1.253075 0
M  V30 49 H -0.058800 -5.201254 -1.873468 0
M  V30 50 H -0.930042 -4.141079 -3.104787 0
M  V30 51 H -1.781439 -6.722009 -1.718892 0
M  V30 52 H -1.720710 -6.333888 -3.436756 0
M  V30 53 H -2.939309 -3.650334 -3.203269 0
M  V30 54 H -4.588143 -3.968549 -2.457079 0
M  V30 55 H -3.417040 -4.498388 -0.341828 0
M  V30 56 H -3.347164 -2.728721 -0.862822 0
M  V30 END ATOM
M  V30 BEGIN BOND
M  V30 1 1 1 2
M  V30 2 2 2 3
M  V30 3 1 3 4
M  V30 4 1 4 5
M  V30 5 2 5 6
M  V30 6 1 6 7
M  V30 7 1 7 8
M  V30 8 2 8 9
M  V30 9 1 9 10
M  V30 10 2 10 11
M  V30 11 1 11 12
M  V30 12 1 12 13
M  V30 13 2 13 14
M  V30 14 2 13 15
M  V30 15 1 13 16
M  V30 16 2 16 17
M  V30 17 1 17 18
M  V30 18 1 18 19
M  V30 19 2 18 20
M  V30 20 1 20 21
M  V30 21 2 21 22
M  V30 22 1 22 23
M  V30 23 1 11 24
M  V30 24 2 24 25
M  V30 25 2 7 26
M  V30 26 1 26 27
M  V30 27 1 27 28
M  V30 28 1 28 29
M  V30 29 1 29 30
M  V30 30 1 30 31
M  V30 31 1 31 32
M  V30 32 1 32 33
M  V30 33 1 33 34
M  V30 34 2 27 35
M  V30 35 1 35 2
M  V30 36 1 35 5
M  V30 37 1 25 8
M  V30 38 1 34 29
M  V30 39 1 22 16
M  V30 40 1 1 36
M  V30 41 1 1 37
M  V30 42 1 1 38
M  V30 43 1 4 39
M  V30 44 1 9 40
M  V30 45 1 10 41
M  V30 46 1 12 42
M  V30 47 1 17 43
M  V30 48 1 20 44
M  V30 49 1 21 45
M  V30 50 1 24 46
M  V30 51 1 25 47
M  V30 52 1 29 48
M  V30 53 1 30 49
M  V30 54 1 30 50
M  V30 55 1 31 51
M  V30 56 1 31 52
M  V30 57 1 33 53
M  V30 58 1 33 54
M  V30 59 1 34 55
M  V30 60 1 34 56
M  V30 END BOND
M  V30 END CTAB
M  END
>  <Dataset>  (346) 
ChEMBL_Kinases

>  <Ligand_Instance>  (346) 
nan

>  <PDB_ID>  (346) 
nan

>  <Standardized_SMILES>  (346) 
Cc1n[nH]c2nc(-c3ccc(NS(=O)(=O)c4cc(Cl)ccc4F)cc3)nc(OC3CCOCC3)c12

>  <Name>  (346) 
nan

>  <Pocket>  (346) 
nan

>  <ATP_Site>  (346) 
nan

>  <Peripheral>  (346) 
nan

>  <Num_H_Atoms_ProtBoundConf>  (346) 
nan

>  <Num_Resolved_Atoms>  (346) 
nan

>  <Num_Not_Resolved_Atoms>  (346) 
nan

$$$$
CHEMBL376118
     RDKit          3D

  0  0  0  0  0  0  0  0  0  0999 V3000
M  V30 BEGIN CTAB
M  V30 COUNTS 49 52 0 0 0
M  V30 BEGIN ATOM
M  V30 1 C 0.546077 -2.637491 4.116945 0
M  V30 2 C 2.002902 -2.797360 3.934287 0
M  V30 3 N 2.915566 -3.397962 4.703335 0
M  V30 4 N 4.124624 -3.298935 4.144379 0
M  V30 5 C 4.041204 -2.625263 2.982961 0
M  V30 6 C 4.964697 -2.242130 2.013219 0
M  V30 7 C 4.505423 -1.536751 0.914226 0
M  V30 8 C 3.174698 -1.192409 0.729788 0
M  V30 9 C 2.749150 -0.446341 -0.449998 0
M  V30 10 C 3.324224 -0.531301 -1.697798 0
M  V30 11 N 2.810781 0.233851 -2.704716 0
M  V30 12 C 1.745618 1.059864 -2.453215 0
M  V30 13 C 1.128386 1.174659 -1.188160 0
M  V30 14 O 0.140976 2.085317 -1.397024 0
M  V30 15 C -0.753229 2.501588 -0.414726 0
M  V30 16 C -1.653582 1.426955 0.138499 0 CFG=1
M  V30 17 N -2.524995 2.015202 1.143794 0
M  V30 18 C -2.554958 0.951096 -0.984472 0
M  V30 19 C -3.491927 -0.113672 -0.559451 0
M  V30 20 C -4.759792 0.043278 -0.052982 0
M  V30 21 C -5.536698 -1.037609 0.307914 0
M  V30 22 Cl -7.139604 -0.675092 0.941501 0
M  V30 23 C -5.023424 -2.328269 0.155651 0
M  V30 24 C -3.751506 -2.485237 -0.352443 0
M  V30 25 Cl -3.257959 -4.163693 -0.481082 0
M  V30 26 C -2.996299 -1.393594 -0.704984 0
M  V30 27 C 1.681967 0.386028 -0.210922 0
M  V30 28 C 2.296948 -1.592100 1.714409 0
M  V30 29 C 2.690910 -2.303231 2.844172 0
M  V30 30 H -0.002197 -3.203051 3.335418 0
M  V30 31 H 0.232640 -1.562418 4.022875 0
M  V30 32 H 0.190202 -3.003584 5.091045 0
M  V30 33 H 5.004600 -3.694883 4.563489 0
M  V30 34 H 6.003130 -2.499133 2.137316 0
M  V30 35 H 5.179427 -1.217911 0.136839 0
M  V30 36 H 4.155290 -1.211259 -1.782146 0
M  V30 37 H 1.564734 1.533806 -3.435266 0
M  V30 38 H -1.409789 3.338655 -0.758624 0
M  V30 39 H -0.208200 2.907499 0.497230 0
M  V30 40 H -1.113807 0.629665 0.622111 0
M  V30 41 H -2.211889 1.787031 2.120870 0
M  V30 42 H -2.655593 3.040394 0.992539 0
M  V30 43 H -1.968988 0.629984 -1.879659 0
M  V30 44 H -3.166512 1.849066 -1.281479 0
M  V30 45 H -5.072523 1.078491 0.028791 0
M  V30 46 H -5.732022 -3.086227 0.474956 0
M  V30 47 H -2.019264 -1.701776 -1.087045 0
M  V30 48 H 1.169726 0.545379 0.698934 0
M  V30 49 H 1.253757 -1.346582 1.614301 0
M  V30 END ATOM
M  V30 BEGIN BOND
M  V30 1 1 1 2
M  V30 2 2 2 3
M  V30 3 1 3 4
M  V30 4 1 4 5
M  V30 5 2 5 6
M  V30 6 1 6 7
M  V30 7 2 7 8
M  V30 8 1 8 9
M  V30 9 2 9 10
M  V30 10 1 10 11
M  V30 11 2 11 12
M  V30 12 1 12 13
M  V30 13 1 13 14
M  V30 14 1 14 15
M  V30 15 1 15 16
M  V30 16 1 16 17
M  V30 17 1 16 18
M  V30 18 1 18 19
M  V30 19 2 19 20
M  V30 20 1 20 21
M  V30 21 1 21 22
M  V30 22 2 21 23
M  V30 23 1 23 24
M  V30 24 1 24 25
M  V30 25 2 24 26
M  V30 26 2 13 27
M  V30 27 1 8 28
M  V30 28 2 28 29
M  V30 29 1 29 2
M  V30 30 1 29 5
M  V30 31 1 27 9
M  V30 32 1 26 19
M  V30 33 1 1 30
M  V30 34 1 1 31
M  V30 35 1 1 32
M  V30 36 1 4 33
M  V30 37 1 6 34
M  V30 38 1 7 35
M  V30 39 1 10 36
M  V30 40 1 12 37
M  V30 41 1 15 38
M  V30 42 1 15 39
M  V30 43 1 16 40 CFG=1
M  V30 44 1 17 41
M  V30 45 1 17 42
M  V30 46 1 18 43
M  V30 47 1 18 44
M  V30 48 1 20 45
M  V30 49 1 23 46
M  V30 50 1 26 47
M  V30 51 1 27 48
M  V30 52 1 28 49
M  V30 END BOND
M  V30 END CTAB
M  END
>  <Dataset>  (347) 
ChEMBL_Kinases

>  <Ligand_Instance>  (347) 
nan

>  <PDB_ID>  (347) 
nan

>  <Standardized_SMILES>  (347) 
Cc1n[nH]c2ccc(-c3cncc(OC[C@@H](N)Cc4cc(Cl)cc(Cl)c4)c3)cc12

>  <Name>  (347) 
nan

>  <Pocket>  (347) 
nan

>  <ATP_Site>  (347) 
nan

>  <Peripheral>  (347) 
nan

>  <Num_H_Atoms_ProtBoundConf>  (347) 
nan

>  <Num_Resolved_Atoms>  (347) 
nan

>  <Num_Not_Resolved_Atoms>  (347) 
nan

$$$$
CHEMBL3754608
     RDKit          3D

  0  0  0  0  0  0  0  0  0  0999 V3000
M  V30 BEGIN CTAB
M  V30 COUNTS 34 36 0 0 0
M  V30 BEGIN ATOM
M  V30 1 C 2.353261 -2.486344 5.489894 0
M  V30 2 O 1.597600 -2.085242 4.370538 0
M  V30 3 C 2.136006 -1.489415 3.270065 0
M  V30 4 C 3.429293 -1.135492 2.956717 0
M  V30 5 C 3.815818 -0.530579 1.780462 0
M  V30 6 C 2.814011 -0.264581 0.849856 0
M  V30 7 N 2.881889 0.305678 -0.364437 0
M  V30 8 C 1.659806 0.362005 -0.919189 0
M  V30 9 C 0.797180 -0.200215 -0.003012 0
M  V30 10 C -0.621838 -0.317804 -0.237225 0
M  V30 11 C -1.598561 -0.901337 0.667154 0
M  V30 12 N -2.388823 -1.367476 1.403825 0
M  V30 13 C -1.210287 0.118862 -1.338694 0
M  V30 14 C -2.593402 0.105735 -1.782474 0
M  V30 15 C -3.114959 1.257179 -2.349153 0
M  V30 16 C -4.435521 1.305523 -2.814708 0
M  V30 17 C -5.118783 0.123712 -2.647258 0
M  V30 18 N -4.620553 -0.990918 -2.101030 0
M  V30 19 C -3.334044 -1.050325 -1.643652 0
M  V30 20 C 1.497624 -0.597117 1.107434 0
M  V30 21 C 1.169815 -1.198604 2.298583 0
M  V30 22 H 2.545452 -3.588507 5.321544 0
M  V30 23 H 3.275448 -1.918540 5.627152 0
M  V30 24 H 1.682396 -2.483401 6.394265 0
M  V30 25 H 4.107186 -1.400050 3.773041 0
M  V30 26 H 4.861443 -0.301646 1.657784 0
M  V30 27 H 3.756611 0.666648 -0.839228 0
M  V30 28 H 1.445735 0.780093 -1.905367 0
M  V30 29 H -0.549619 0.590399 -2.085213 0
M  V30 30 H -2.462828 2.140475 -2.425523 0
M  V30 31 H -4.765605 2.235737 -3.240138 0
M  V30 32 H -6.156383 0.168549 -3.015867 0
M  V30 33 H -2.989334 -1.971450 -1.221732 0
M  V30 34 H 0.132359 -1.425038 2.423831 0
M  V30 END ATOM
M  V30 BEGIN BOND
M  V30 1 1 1 2
M  V30 2 1 2 3
M  V30 3 2 3 4
M  V30 4 1 4 5
M  V30 5 2 5 6
M  V30 6 1 6 7
M  V30 7 1 7 8
M  V30 8 2 8 9
M  V30 9 1 9 10
M  V30 10 1 10 11
M  V30 11 3 11 12
M  V30 12 2 10 13
M  V30 13 1 13 14
M  V30 14 2 14 15
M  V30 15 1 15 16
M  V30 16 2 16 17
M  V30 17 1 17 18
M  V30 18 2 18 19
M  V30 19 1 9 20
M  V30 20 2 20 21
M  V30 21 1 21 3
M  V30 22 1 20 6
M  V30 23 1 19 14
M  V30 24 1 1 22
M  V30 25 1 1 23
M  V30 26 1 1 24
M  V30 27 1 4 25
M  V30 28 1 5 26
M  V30 29 1 7 27
M  V30 30 1 8 28
M  V30 31 1 13 29
M  V30 32 1 15 30
M  V30 33 1 16 31
M  V30 34 1 17 32
M  V30 35 1 19 33
M  V30 36 1 21 34
M  V30 END BOND
M  V30 END CTAB
M  END
>  <Dataset>  (348) 
ChEMBL_Kinases

>  <Ligand_Instance>  (348) 
nan

>  <PDB_ID>  (348) 
nan

>  <Standardized_SMILES>  (348) 
COc1ccc2[nH]cc(/C(C#N)=C/c3cccnc3)c2c1

>  <Name>  (348) 
nan

>  <Pocket>  (348) 
nan

>  <ATP_Site>  (348) 
nan

>  <Peripheral>  (348) 
nan

>  <Num_H_Atoms_ProtBoundConf>  (348) 
nan

>  <Num_Resolved_Atoms>  (348) 
nan

>  <Num_Not_Resolved_Atoms>  (348) 
nan

$$$$
CHEMBL3754588
     RDKit          3D

  0  0  0  0  0  0  0  0  0  0999 V3000
M  V30 BEGIN CTAB
M  V30 COUNTS 35 37 0 0 0
M  V30 BEGIN ATOM
M  V30 1 N 3.157643 -0.680656 3.649900 0
M  V30 2 C 3.167373 0.640897 2.990446 0
M  V30 3 O 4.330519 0.993944 3.284646 0
M  V30 4 C 1.890031 0.928999 2.324066 0
M  V30 5 C 0.706619 0.691406 3.022048 0
M  V30 6 C -0.467352 0.799771 2.289774 0
M  V30 7 C -0.268825 1.134085 0.975895 0
M  V30 8 C -1.597179 1.151655 0.378324 0
M  V30 9 C -2.892085 1.454163 0.382393 0
M  V30 10 N -3.907189 0.850501 -0.280944 0
M  V30 11 C -3.676255 -0.214379 -1.081169 0
M  V30 12 C -2.384213 -0.685939 -1.229170 0
M  V30 13 C -2.013041 -1.937402 -1.940702 0
M  V30 14 C -0.675213 -2.205396 -2.169827 0
M  V30 15 C -0.260744 -3.429074 -2.656323 0
M  V30 16 C -1.161014 -4.432121 -2.929255 0
M  V30 17 Cl -0.694056 -6.022670 -3.508566 0
M  V30 18 C -2.508166 -4.154181 -2.701993 0
M  V30 19 C -2.991829 -2.891573 -2.197194 0
M  V30 20 C -1.434285 0.008296 -0.508248 0
M  V30 21 C 0.870927 1.385495 0.251132 0
M  V30 22 C 2.053783 1.275316 0.967820 0
M  V30 23 H 3.134915 -1.544546 2.966837 0
M  V30 24 H 3.132347 -1.357298 2.836247 0
M  V30 25 H 0.828765 0.427692 4.074473 0
M  V30 26 H -1.338785 0.620640 2.882797 0
M  V30 27 H -2.955240 2.314316 1.071384 0
M  V30 28 H -4.464322 -0.659924 -1.618399 0
M  V30 29 H 0.127098 -1.533527 -2.036963 0
M  V30 30 H 0.785423 -3.714408 -2.824062 0
M  V30 31 H -3.218788 -4.964431 -2.918514 0
M  V30 32 H -4.038791 -2.726377 -2.042693 0
M  V30 33 H -0.443357 -0.438448 -0.697593 0
M  V30 34 H 0.668376 1.669195 -0.803010 0
M  V30 35 H 2.924517 1.483110 0.385658 0
M  V30 END ATOM
M  V30 BEGIN BOND
M  V30 1 1 1 2
M  V30 2 2 2 3
M  V30 3 1 2 4
M  V30 4 2 4 5
M  V30 5 1 5 6
M  V30 6 2 6 7
M  V30 7 1 7 8
M  V30 8 2 8 9
M  V30 9 1 9 10
M  V30 10 2 10 11
M  V30 11 1 11 12
M  V30 12 1 12 13
M  V30 13 2 13 14
M  V30 14 1 14 15
M  V30 15 2 15 16
M  V30 16 1 16 17
M  V30 17 1 16 18
M  V30 18 2 18 19
M  V30 19 2 12 20
M  V30 20 1 7 21
M  V30 21 2 21 22
M  V30 22 1 22 4
M  V30 23 1 20 8
M  V30 24 1 19 13
M  V30 25 1 1 23
M  V30 26 1 1 24
M  V30 27 1 5 25
M  V30 28 1 6 26
M  V30 29 1 9 27
M  V30 30 1 11 28
M  V30 31 1 14 29
M  V30 32 1 15 30
M  V30 33 1 18 31
M  V30 34 1 19 32
M  V30 35 1 20 33
M  V30 36 1 21 34
M  V30 37 1 22 35
M  V30 END BOND
M  V30 END CTAB
M  END
>  <Dataset>  (349) 
ChEMBL_Kinases

>  <Ligand_Instance>  (349) 
nan

>  <PDB_ID>  (349) 
nan

>  <Standardized_SMILES>  (349) 
NC(=O)c1ccc(-c2cncc(-c3ccc(Cl)cc3)c2)cc1

>  <Name>  (349) 
nan

>  <Pocket>  (349) 
nan

>  <ATP_Site>  (349) 
nan

>  <Peripheral>  (349) 
nan

>  <Num_H_Atoms_ProtBoundConf>  (349) 
nan

>  <Num_Resolved_Atoms>  (349) 
nan

>  <Num_Not_Resolved_Atoms>  (349) 
nan

$$$$
CHEMBL3754522
     RDKit          3D

  0  0  0  0  0  0  0  0  0  0999 V3000
M  V30 BEGIN CTAB
M  V30 COUNTS 34 36 0 0 0
M  V30 BEGIN ATOM
M  V30 1 N 0.649282 -5.937922 3.435035 0
M  V30 2 C -0.304795 -5.858318 2.354397 0
M  V30 3 O -1.023759 -6.805068 1.942812 0
M  V30 4 C -0.444764 -4.565288 1.683066 0
M  V30 5 C -1.346146 -4.449610 0.642984 0
M  V30 6 C -1.497954 -3.237386 -0.011138 0
M  V30 7 C -0.733748 -2.134307 0.388342 0
M  V30 8 C -0.949458 -0.875385 -0.356834 0
M  V30 9 N -1.836772 -0.789985 -1.369959 0
M  V30 10 C -2.024822 0.365783 -2.044672 0
M  V30 11 C -1.265229 1.442414 -1.642233 0
M  V30 12 C -0.348272 1.398144 -0.613007 0
M  V30 13 C 0.450345 2.545305 -0.195753 0
M  V30 14 C 0.378329 3.793135 -0.780167 0
M  V30 15 C 1.198465 4.780850 -0.274176 0
M  V30 16 C 2.089582 4.636678 0.768237 0
M  V30 17 Cl 3.022371 6.014480 1.240742 0
M  V30 18 C 2.142604 3.362430 1.342375 0
M  V30 19 C 1.330561 2.361488 0.850623 0
M  V30 20 N -0.248122 0.195357 -0.016220 0
M  V30 21 C 0.186122 -2.220126 1.436939 0
M  V30 22 C 0.294870 -3.460384 2.054841 0
M  V30 23 H 0.082323 -6.189781 4.252055 0
M  V30 24 H 1.641274 -5.733435 3.157740 0
M  V30 25 H -1.944045 -5.300827 0.325770 0
M  V30 26 H -2.203357 -3.128803 -0.832354 0
M  V30 27 H -2.741836 0.409808 -2.853191 0
M  V30 28 H -1.419274 2.356788 -2.182059 0
M  V30 29 H -0.301433 3.951253 -1.594864 0
M  V30 30 H 1.084798 5.741779 -0.788528 0
M  V30 31 H 2.841888 3.254073 2.158532 0
M  V30 32 H 1.485228 1.423865 1.400581 0
M  V30 33 H 0.749217 -1.364412 1.714183 0
M  V30 34 H 1.004920 -3.526080 2.864146 0
M  V30 END ATOM
M  V30 BEGIN BOND
M  V30 1 1 1 2
M  V30 2 2 2 3
M  V30 3 1 2 4
M  V30 4 2 4 5
M  V30 5 1 5 6
M  V30 6 2 6 7
M  V30 7 1 7 8
M  V30 8 2 8 9
M  V30 9 1 9 10
M  V30 10 2 10 11
M  V30 11 1 11 12
M  V30 12 1 12 13
M  V30 13 2 13 14
M  V30 14 1 14 15
M  V30 15 2 15 16
M  V30 16 1 16 17
M  V30 17 1 16 18
M  V30 18 2 18 19
M  V30 19 2 12 20
M  V30 20 1 7 21
M  V30 21 2 21 22
M  V30 22 1 22 4
M  V30 23 1 20 8
M  V30 24 1 19 13
M  V30 25 1 1 23
M  V30 26 1 1 24
M  V30 27 1 5 25
M  V30 28 1 6 26
M  V30 29 1 10 27
M  V30 30 1 11 28
M  V30 31 1 14 29
M  V30 32 1 15 30
M  V30 33 1 18 31
M  V30 34 1 19 32
M  V30 35 1 21 33
M  V30 36 1 22 34
M  V30 END BOND
M  V30 END CTAB
M  END
>  <Dataset>  (350) 
ChEMBL_Kinases

>  <Ligand_Instance>  (350) 
nan

>  <PDB_ID>  (350) 
nan

>  <Standardized_SMILES>  (350) 
NC(=O)c1ccc(-c2nccc(-c3ccc(Cl)cc3)n2)cc1

>  <Name>  (350) 
nan

>  <Pocket>  (350) 
nan

>  <ATP_Site>  (350) 
nan

>  <Peripheral>  (350) 
nan

>  <Num_H_Atoms_ProtBoundConf>  (350) 
nan

>  <Num_Resolved_Atoms>  (350) 
nan

>  <Num_Not_Resolved_Atoms>  (350) 
nan

$$$$
CHEMBL589339
     RDKit          3D

  0  0  0  0  0  0  0  0  0  0999 V3000
M  V30 BEGIN CTAB
M  V30 COUNTS 66 70 0 0 0
M  V30 BEGIN ATOM
M  V30 1 C 2.687212 -2.710785 4.894769 0
M  V30 2 N 1.876490 -3.146681 3.798432 0
M  V30 3 C 0.590276 -2.464814 3.936646 0
M  V30 4 C 2.397617 -2.849635 2.500827 0
M  V30 5 C 3.636657 -3.650474 2.212425 0
M  V30 6 N 4.156284 -3.344851 0.887754 0
M  V30 7 C 4.591084 -2.074950 0.422996 0
M  V30 8 C 3.619061 -1.237669 -0.135682 0
M  V30 9 C 3.929034 0.036645 -0.629406 0
M  V30 10 C 2.773485 0.782694 -1.176116 0
M  V30 11 O 2.587887 1.218118 -2.354107 0
M  V30 12 N 1.809712 0.976964 -0.152800 0
M  V30 13 C 0.517980 1.602355 -0.040664 0
M  V30 14 C 0.364485 2.923779 0.326701 0
M  V30 15 C -0.878829 3.517763 0.429992 0
M  V30 16 C -2.000275 2.752309 0.153408 0
M  V30 17 C -1.868304 1.431691 -0.215138 0
M  V30 18 C -0.630109 0.844901 -0.316551 0
M  V30 19 C -3.060228 0.690430 -0.497338 0
M  V30 20 C -4.272620 1.304746 -0.395403 0
M  V30 21 C -5.196160 0.342673 -0.718687 0
M  V30 22 C -6.636684 0.503619 -0.758746 0
M  V30 23 N -7.511686 -0.563829 -1.097435 0
M  V30 24 O -7.151991 1.635303 -0.483813 0
M  V30 25 N -4.522823 -0.787420 -0.996710 0
M  V30 26 N -3.216837 -0.573745 -0.861022 0
M  V30 27 C -2.348411 -1.663011 -1.115274 0
M  V30 28 C -1.912951 -2.582766 -0.152502 0
M  V30 29 C -1.062559 -3.621547 -0.556259 0
M  V30 30 C -0.661400 -3.738035 -1.872210 0
M  V30 31 F 0.172698 -4.776171 -2.212434 0
M  V30 32 C -1.075522 -2.845527 -2.841256 0
M  V30 33 C -1.921548 -1.814979 -2.430677 0
M  V30 34 C -4.496455 2.714623 -0.016281 0
M  V30 35 C -3.273844 3.488656 0.303089 0
M  V30 36 C 5.228307 0.471749 -0.560678 0
M  V30 37 Cl 5.527009 2.065203 -1.197833 0
M  V30 38 C 6.167331 -0.373987 -0.004952 0
M  V30 39 N 5.853044 -1.592402 0.463898 0
M  V30 40 H 3.055924 -1.682541 4.787825 0
M  V30 41 H 2.045103 -2.739103 5.816974 0
M  V30 42 H 3.498637 -3.463182 5.093032 0
M  V30 43 H 0.645801 -1.590621 4.620825 0
M  V30 44 H 0.261653 -2.058279 2.950811 0
M  V30 45 H -0.196454 -3.128440 4.342226 0
M  V30 46 H 1.632033 -3.151711 1.758130 0
M  V30 47 H 2.601266 -1.771373 2.342756 0
M  V30 48 H 4.465747 -3.442269 2.928892 0
M  V30 49 H 3.427111 -4.739992 2.231157 0
M  V30 50 H 4.266570 -4.054192 0.117898 0
M  V30 51 H 2.584327 -1.607751 -0.180052 0
M  V30 52 H 1.847569 0.669024 0.843307 0
M  V30 53 H 1.253293 3.498250 0.537396 0
M  V30 54 H -0.898939 4.556503 0.723745 0
M  V30 55 H -0.445985 -0.174941 -0.598039 0
M  V30 56 H -7.481385 -1.118239 -0.197382 0
M  V30 57 H -8.106311 -0.910847 -1.896330 0
M  V30 58 H -2.269192 -2.424919 0.853470 0
M  V30 59 H -0.762752 -4.298642 0.238170 0
M  V30 60 H -0.765262 -2.932817 -3.868777 0
M  V30 61 H -2.238783 -1.121763 -3.201537 0
M  V30 62 H -5.155405 2.673673 0.891368 0
M  V30 63 H -5.148865 3.219193 -0.782102 0
M  V30 64 H -3.165726 4.398338 -0.349248 0
M  V30 65 H -3.350212 3.936188 1.338937 0
M  V30 66 H 7.170603 -0.004790 0.032818 0
M  V30 END ATOM
M  V30 BEGIN BOND
M  V30 1 1 1 2
M  V30 2 1 2 3
M  V30 3 1 2 4
M  V30 4 1 4 5
M  V30 5 1 5 6
M  V30 6 1 6 7
M  V30 7 2 7 8
M  V30 8 1 8 9
M  V30 9 1 9 10
M  V30 10 2 10 11
M  V30 11 1 10 12
M  V30 12 1 12 13
M  V30 13 2 13 14
M  V30 14 1 14 15
M  V30 15 2 15 16
M  V30 16 1 16 17
M  V30 17 2 17 18
M  V30 18 1 17 19
M  V30 19 2 19 20
M  V30 20 1 20 21
M  V30 21 1 21 22
M  V30 22 1 22 23
M  V30 23 2 22 24
M  V30 24 2 21 25
M  V30 25 1 25 26
M  V30 26 1 26 27
M  V30 27 2 27 28
M  V30 28 1 28 29
M  V30 29 2 29 30
M  V30 30 1 30 31
M  V30 31 1 30 32
M  V30 32 2 32 33
M  V30 33 1 20 34
M  V30 34 1 34 35
M  V30 35 2 9 36
M  V30 36 1 36 37
M  V30 37 1 36 38
M  V30 38 2 38 39
M  V30 39 1 39 7
M  V30 40 1 18 13
M  V30 41 1 26 19
M  V30 42 1 33 27
M  V30 43 1 35 16
M  V30 44 1 1 40
M  V30 45 1 1 41
M  V30 46 1 1 42
M  V30 47 1 3 43
M  V30 48 1 3 44
M  V30 49 1 3 45
M  V30 50 1 4 46
M  V30 51 1 4 47
M  V30 52 1 5 48
M  V30 53 1 5 49
M  V30 54 1 6 50
M  V30 55 1 8 51
M  V30 56 1 12 52
M  V30 57 1 14 53
M  V30 58 1 15 54
M  V30 59 1 18 55
M  V30 60 1 23 56
M  V30 61 1 23 57
M  V30 62 1 28 58
M  V30 63 1 29 59
M  V30 64 1 32 60
M  V30 65 1 33 61
M  V30 66 1 34 62
M  V30 67 1 34 63
M  V30 68 1 35 64
M  V30 69 1 35 65
M  V30 70 1 38 66
M  V30 END BOND
M  V30 END CTAB
M  END
>  <Dataset>  (351) 
ChEMBL_Kinases

>  <Ligand_Instance>  (351) 
nan

>  <PDB_ID>  (351) 
nan

>  <Standardized_SMILES>  (351) 
CN(C)CCNc1cc(C(=O)Nc2ccc3c(c2)-c2c(c(C(N)=O)nn2-c2ccc(F)cc2)CC3)c(Cl)cn1

>  <Name>  (351) 
nan

>  <Pocket>  (351) 
nan

>  <ATP_Site>  (351) 
nan

>  <Peripheral>  (351) 
nan

>  <Num_H_Atoms_ProtBoundConf>  (351) 
nan

>  <Num_Resolved_Atoms>  (351) 
nan

>  <Num_Not_Resolved_Atoms>  (351) 
nan

$$$$
CHEMBL5085987
     RDKit          3D

  0  0  0  0  0  0  0  0  0  0999 V3000
M  V30 BEGIN CTAB
M  V30 COUNTS 72 77 0 0 0
M  V30 BEGIN ATOM
M  V30 1 C 5.478929 -4.798855 0.552723 0
M  V30 2 C 4.728408 -3.602816 0.149407 0
M  V30 3 C 4.861346 -3.190975 -1.156852 0
M  V30 4 C 4.206860 -2.082788 -1.641595 0
M  V30 5 C 3.380156 -1.350309 -0.780975 0
M  V30 6 C 2.754618 -0.200660 -1.402281 0
M  V30 7 O 2.942226 0.088961 -2.635744 0
M  V30 8 N 1.873536 0.773664 -0.826659 0
M  V30 9 C 1.321621 1.872787 -1.575448 0 CFG=1
M  V30 10 C -0.115439 2.125842 -1.298786 0
M  V30 11 O -0.517558 3.071762 -2.029363 0
M  V30 12 N -0.845470 1.391010 -0.359976 0
M  V30 13 C -2.180271 1.387590 0.119037 0
M  V30 14 C -2.353540 2.189772 1.234637 0
M  V30 15 C -3.608757 2.315355 1.849023 0
M  V30 16 C -4.700731 1.643774 1.356930 0
M  V30 17 C -4.475194 0.862136 0.247490 0
M  V30 18 C -3.263345 0.703786 -0.393957 0
M  V30 19 C -5.730753 0.227196 -0.140704 0
M  V30 20 C -6.082931 -0.614270 -1.086762 0
M  V30 21 C -7.383100 -1.191527 -1.392767 0
M  V30 22 C -8.671353 -0.805487 -1.534769 0
M  V30 23 N -9.471783 -1.881416 -1.814417 0
M  V30 24 C -8.643093 -2.962047 -1.846180 0
M  V30 25 N -7.388208 -2.530324 -1.590224 0
M  V30 26 C -6.713400 0.700660 0.835331 0
M  V30 27 O -7.928131 0.455923 0.952538 0
M  V30 28 N -6.062104 1.579277 1.759341 0
M  V30 29 C 2.000745 3.158435 -1.125648 0
M  V30 30 C 2.437382 4.134891 -2.008536 0
M  V30 31 C 3.043584 5.255927 -1.417086 0
M  V30 32 C 3.195729 5.380678 -0.049297 0
M  V30 33 C 2.741163 4.374405 0.798567 0
M  V30 34 C 2.136805 3.251658 0.245092 0
M  V30 35 C 3.301059 -1.826920 0.508644 0
M  V30 36 O 2.565170 -1.158437 1.240591 0
M  V30 37 N 3.939069 -2.909044 0.983438 0
M  V30 38 C 3.724474 -3.280918 2.366667 0
M  V30 39 C 2.594260 -4.241665 2.539056 0
M  V30 40 C 2.772171 -5.606560 2.561072 0
M  V30 41 C 1.796012 -6.565822 2.705064 0
M  V30 42 C 0.491148 -6.120113 2.843527 0
M  V30 43 F -0.540243 -6.981524 2.987332 0
M  V30 44 C 0.233796 -4.767967 2.832308 0
M  V30 45 F -1.050778 -4.334187 2.968625 0
M  V30 46 C 1.265953 -3.867935 2.683365 0
M  V30 47 H 4.979432 -5.748069 0.262849 0
M  V30 48 H 5.655673 -4.837730 1.645362 0
M  V30 49 H 6.450409 -4.821567 -0.012893 0
M  V30 50 H 5.506292 -3.754505 -1.849194 0
M  V30 51 H 4.364360 -1.826161 -2.688962 0
M  V30 52 H 1.650192 0.639468 0.175233 0
M  V30 53 H 1.575535 1.785699 -2.632841 0
M  V30 54 H -0.409249 0.621122 0.193438 0
M  V30 55 H -1.567053 2.761071 1.707371 0
M  V30 56 H -3.726863 2.953185 2.734893 0
M  V30 57 H -3.094158 0.093428 -1.255258 0
M  V30 58 H -5.196918 -0.867547 -1.701611 0
M  V30 59 H -8.978250 0.205986 -1.450249 0
M  V30 60 H -9.098375 -3.919877 -2.055497 0
M  V30 61 H -6.649782 -3.278799 -1.584794 0
M  V30 62 H -6.505877 2.085859 2.581383 0
M  V30 63 H 2.292048 3.980350 -3.048904 0
M  V30 64 H 3.389369 6.028079 -2.092404 0
M  V30 65 H 3.680048 6.291836 0.275765 0
M  V30 66 H 2.917291 4.584857 1.847010 0
M  V30 67 H 1.804628 2.507552 0.951317 0
M  V30 68 H 3.420210 -2.350208 2.923789 0
M  V30 69 H 4.645109 -3.613466 2.864644 0
M  V30 70 H 3.753039 -6.046672 2.466102 0
M  V30 71 H 1.967158 -7.624895 2.716893 0
M  V30 72 H 0.997967 -2.840051 2.685410 0
M  V30 END ATOM
M  V30 BEGIN BOND
M  V30 1 1 1 2
M  V30 2 2 2 3
M  V30 3 1 3 4
M  V30 4 2 4 5
M  V30 5 1 5 6
M  V30 6 2 6 7
M  V30 7 1 6 8
M  V30 8 1 8 9
M  V30 9 1 9 10
M  V30 10 2 10 11
M  V30 11 1 10 12
M  V30 12 1 12 13
M  V30 13 2 13 14
M  V30 14 1 14 15
M  V30 15 2 15 16
M  V30 16 1 16 17
M  V30 17 2 17 18
M  V30 18 1 17 19
M  V30 19 2 19 20
M  V30 20 1 20 21
M  V30 21 2 21 22
M  V30 22 1 22 23
M  V30 23 2 23 24
M  V30 24 1 24 25
M  V30 25 1 19 26
M  V30 26 2 26 27
M  V30 27 1 26 28
M  V30 28 1 9 29
M  V30 29 2 29 30
M  V30 30 1 30 31
M  V30 31 2 31 32
M  V30 32 1 32 33
M  V30 33 2 33 34
M  V30 34 1 5 35
M  V30 35 2 35 36
M  V30 36 1 35 37
M  V30 37 1 37 38
M  V30 38 1 38 39
M  V30 39 2 39 40
M  V30 40 1 40 41
M  V30 41 2 41 42
M  V30 42 1 42 43
M  V30 43 1 42 44
M  V30 44 1 44 45
M  V30 45 2 44 46
M  V30 46 1 37 2
M  V30 47 1 46 39
M  V30 48 1 18 13
M  V30 49 1 25 21
M  V30 50 1 34 29
M  V30 51 1 28 16
M  V30 52 1 1 47
M  V30 53 1 1 48
M  V30 54 1 1 49
M  V30 55 1 3 50
M  V30 56 1 4 51
M  V30 57 1 8 52
M  V30 58 1 9 53 CFG=3
M  V30 59 1 12 54
M  V30 60 1 14 55
M  V30 61 1 15 56
M  V30 62 1 18 57
M  V30 63 1 20 58
M  V30 64 1 22 59
M  V30 65 1 24 60
M  V30 66 1 25 61
M  V30 67 1 28 62
M  V30 68 1 30 63
M  V30 69 1 31 64
M  V30 70 1 32 65
M  V30 71 1 33 66
M  V30 72 1 34 67
M  V30 73 1 38 68
M  V30 74 1 38 69
M  V30 75 1 40 70
M  V30 76 1 41 71
M  V30 77 1 46 72
M  V30 END BOND
M  V30 END CTAB
M  END
>  <Dataset>  (352) 
ChEMBL_Kinases

>  <Ligand_Instance>  (352) 
nan

>  <PDB_ID>  (352) 
nan

>  <Standardized_SMILES>  (352) 
Cc1ccc(C(=O)N[C@@H](C(=O)Nc2ccc3c(c2)/C(=C/c2cnc[nH]2)C(=O)N3)c2ccccc2)c(=O)n1Cc1ccc(F)c(F)c1

>  <Name>  (352) 
nan

>  <Pocket>  (352) 
nan

>  <ATP_Site>  (352) 
nan

>  <Peripheral>  (352) 
nan

>  <Num_H_Atoms_ProtBoundConf>  (352) 
nan

>  <Num_Resolved_Atoms>  (352) 
nan

>  <Num_Not_Resolved_Atoms>  (352) 
nan

$$$$
CHEMBL3754483
     RDKit          3D

  0  0  0  0  0  0  0  0  0  0999 V3000
M  V30 BEGIN CTAB
M  V30 COUNTS 25 26 0 0 0
M  V30 BEGIN ATOM
M  V30 1 C -1.036499 -0.029757 3.514326 0
M  V30 2 C -0.157780 0.086431 2.316987 0
M  V30 3 N 1.120989 0.397919 2.581486 0
M  V30 4 C 1.799680 0.472326 1.423994 0
M  V30 5 C 3.086295 0.748076 1.006331 0
M  V30 6 Br 4.380299 1.135596 2.358550 0
M  V30 7 C 3.411654 0.740436 -0.343766 0
M  V30 8 Br 5.203889 1.130133 -0.821580 0
M  V30 9 C 2.428795 0.451259 -1.298105 0
M  V30 10 Br 3.003029 0.473835 -3.123547 0
M  V30 11 C 1.158038 0.178580 -0.884477 0
M  V30 12 Br -0.058863 -0.141436 -2.316809 0
M  V30 13 C 0.857355 0.189435 0.461195 0
M  V30 14 N -0.356758 -0.054450 0.973467 0
M  V30 15 C -1.664457 -0.451411 0.538087 0
M  V30 16 C -1.799831 -1.946660 0.738869 0
M  V30 17 C -0.775160 -2.633445 -0.017716 0
M  V30 18 N 0.041158 -3.203849 -0.625217 0
M  V30 19 H -0.579805 -0.696536 4.290040 0
M  V30 20 H -1.163932 0.954552 4.031056 0
M  V30 21 H -2.060319 -0.354100 3.236145 0
M  V30 22 H -2.467130 0.004262 1.171384 0
M  V30 23 H -1.853317 -0.311684 -0.526152 0
M  V30 24 H -2.776286 -2.308681 0.344176 0
M  V30 25 H -1.655596 -2.235465 1.801241 0
M  V30 END ATOM
M  V30 BEGIN BOND
M  V30 1 1 1 2
M  V30 2 2 2 3
M  V30 3 1 3 4
M  V30 4 2 4 5
M  V30 5 1 5 6
M  V30 6 1 5 7
M  V30 7 1 7 8
M  V30 8 2 7 9
M  V30 9 1 9 10
M  V30 10 1 9 11
M  V30 11 1 11 12
M  V30 12 2 11 13
M  V30 13 1 13 14
M  V30 14 1 14 15
M  V30 15 1 15 16
M  V30 16 1 16 17
M  V30 17 3 17 18
M  V30 18 1 14 2
M  V30 19 1 13 4
M  V30 20 1 1 19
M  V30 21 1 1 20
M  V30 22 1 1 21
M  V30 23 1 15 22
M  V30 24 1 15 23
M  V30 25 1 16 24
M  V30 26 1 16 25
M  V30 END BOND
M  V30 END CTAB
M  END
>  <Dataset>  (353) 
ChEMBL_Kinases

>  <Ligand_Instance>  (353) 
nan

>  <PDB_ID>  (353) 
nan

>  <Standardized_SMILES>  (353) 
Cc1nc2c(Br)c(Br)c(Br)c(Br)c2n1CCC#N

>  <Name>  (353) 
nan

>  <Pocket>  (353) 
nan

>  <ATP_Site>  (353) 
nan

>  <Peripheral>  (353) 
nan

>  <Num_H_Atoms_ProtBoundConf>  (353) 
nan

>  <Num_Resolved_Atoms>  (353) 
nan

>  <Num_Not_Resolved_Atoms>  (353) 
nan

$$$$
CHEMBL3754324
     RDKit          3D

  0  0  0  0  0  0  0  0  0  0999 V3000
M  V30 BEGIN CTAB
M  V30 COUNTS 50 53 0 0 0
M  V30 BEGIN ATOM
M  V30 1 C -5.326012 1.643735 -3.509058 0
M  V30 2 N -6.375632 0.809356 -3.015804 0
M  V30 3 C -6.694209 0.970591 -1.621927 0
M  V30 4 C -5.731173 0.268217 -0.690624 0
M  V30 5 N -4.889654 -0.698165 -1.348305 0
M  V30 6 C -3.520446 -0.906202 -1.031341 0
M  V30 7 C -2.945652 -0.332141 0.081124 0
M  V30 8 C -1.610537 -0.517716 0.403380 0
M  V30 9 C -0.810380 -1.304674 -0.409355 0
M  V30 10 N 0.550263 -1.473684 -0.043597 0
M  V30 11 C 1.291216 -2.389758 0.736597 0
M  V30 12 O 0.762330 -3.363515 1.328561 0
M  V30 13 C 2.735788 -2.164477 0.838313 0
M  V30 14 C 3.559014 -2.986507 1.577244 0
M  V30 15 C 4.795607 -2.408950 1.388382 0
M  V30 16 C 4.722772 -1.304159 0.583357 0
M  V30 17 C 5.658730 -0.329001 0.054710 0
M  V30 18 C 5.199206 0.681943 -0.759090 0
M  V30 19 C 6.043138 1.643539 -1.295607 0
M  V30 20 Cl 5.408281 2.907540 -2.325126 0
M  V30 21 C 7.386606 1.631580 -1.037929 0
M  V30 22 C 7.856983 0.625651 -0.225791 0
M  V30 23 C 7.004619 -0.318285 0.296371 0
M  V30 24 Cl 7.748420 -1.512339 1.295346 0
M  V30 25 O 3.453445 -1.219539 0.291728 0
M  V30 26 C -1.348158 -1.896048 -1.531047 0
M  V30 27 C -2.683594 -1.678177 -1.805557 0
M  V30 28 C -5.625226 -1.431700 -2.356748 0
M  V30 29 C -6.257061 -0.571477 -3.410071 0
M  V30 30 H -5.656043 2.649489 -3.842629 0
M  V30 31 H -4.451013 1.749193 -2.870558 0
M  V30 32 H -4.950173 1.150958 -4.452984 0
M  V30 33 H -7.705308 0.548436 -1.451645 0
M  V30 34 H -6.727222 2.055207 -1.396979 0
M  V30 35 H -5.101818 1.022336 -0.148997 0
M  V30 36 H -6.301224 -0.271798 0.106967 0
M  V30 37 H -3.479611 0.291228 0.774354 0
M  V30 38 H -1.165026 -0.062463 1.280934 0
M  V30 39 H 0.938148 -0.640442 -0.561367 0
M  V30 40 H 3.280347 -3.844278 2.141051 0
M  V30 41 H 5.717057 -2.767191 1.812004 0
M  V30 42 H 4.140045 0.797656 -1.037978 0
M  V30 43 H 8.014728 2.385051 -1.464580 0
M  V30 44 H 8.916244 0.629428 -0.032055 0
M  V30 45 H -0.705467 -2.506451 -2.152274 0
M  V30 46 H -3.027541 -2.173832 -2.701278 0
M  V30 47 H -5.035041 -2.268317 -2.784824 0
M  V30 48 H -6.489753 -1.901250 -1.794204 0
M  V30 49 H -7.262109 -0.956601 -3.712273 0
M  V30 50 H -5.623218 -0.608252 -4.317333 0
M  V30 END ATOM
M  V30 BEGIN BOND
M  V30 1 1 1 2
M  V30 2 1 2 3
M  V30 3 1 3 4
M  V30 4 1 4 5
M  V30 5 1 5 6
M  V30 6 2 6 7
M  V30 7 1 7 8
M  V30 8 2 8 9
M  V30 9 1 9 10
M  V30 10 1 10 11
M  V30 11 2 11 12
M  V30 12 1 11 13
M  V30 13 2 13 14
M  V30 14 1 14 15
M  V30 15 2 15 16
M  V30 16 1 16 17
M  V30 17 2 17 18
M  V30 18 1 18 19
M  V30 19 1 19 20
M  V30 20 2 19 21
M  V30 21 1 21 22
M  V30 22 2 22 23
M  V30 23 1 23 24
M  V30 24 1 16 25
M  V30 25 1 9 26
M  V30 26 2 26 27
M  V30 27 1 5 28
M  V30 28 1 28 29
M  V30 29 1 29 2
M  V30 30 1 27 6
M  V30 31 1 25 13
M  V30 32 1 23 17
M  V30 33 1 1 30
M  V30 34 1 1 31
M  V30 35 1 1 32
M  V30 36 1 3 33
M  V30 37 1 3 34
M  V30 38 1 4 35
M  V30 39 1 4 36
M  V30 40 1 7 37
M  V30 41 1 8 38
M  V30 42 1 10 39
M  V30 43 1 14 40
M  V30 44 1 15 41
M  V30 45 1 18 42
M  V30 46 1 21 43
M  V30 47 1 22 44
M  V30 48 1 26 45
M  V30 49 1 27 46
M  V30 50 1 28 47
M  V30 51 1 28 48
M  V30 52 1 29 49
M  V30 53 1 29 50
M  V30 END BOND
M  V30 END CTAB
M  END
>  <Dataset>  (354) 
ChEMBL_Kinases

>  <Ligand_Instance>  (354) 
nan

>  <PDB_ID>  (354) 
nan

>  <Standardized_SMILES>  (354) 
CN1CCN(c2ccc(NC(=O)c3ccc(-c4cc(Cl)ccc4Cl)o3)cc2)CC1

>  <Name>  (354) 
nan

>  <Pocket>  (354) 
nan

>  <ATP_Site>  (354) 
nan

>  <Peripheral>  (354) 
nan

>  <Num_H_Atoms_ProtBoundConf>  (354) 
nan

>  <Num_Resolved_Atoms>  (354) 
nan

>  <Num_Not_Resolved_Atoms>  (354) 
nan

$$$$
CHEMBL3754304
     RDKit          3D

  0  0  0  0  0  0  0  0  0  0999 V3000
M  V30 BEGIN CTAB
M  V30 COUNTS 43 45 0 0 0
M  V30 BEGIN ATOM
M  V30 1 C 0.930883 -6.615716 3.146840 0
M  V30 2 S 0.301020 -6.561426 1.474296 0
M  V30 3 O 1.039907 -7.591464 0.685120 0
M  V30 4 O -1.172155 -6.798424 1.543969 0
M  V30 5 C 0.554819 -4.977813 0.772967 0
M  V30 6 C 1.721725 -4.667834 0.069217 0
M  V30 7 C 1.891954 -3.404195 -0.473967 0
M  V30 8 C 0.901344 -2.462623 -0.312126 0
M  V30 9 C 0.934925 -1.095880 -0.822892 0
M  V30 10 C 0.547662 -0.039875 0.003656 0
M  V30 11 C 0.532532 1.292508 -0.351982 0
M  V30 12 C 0.104578 2.307731 0.606300 0
M  V30 13 C 0.666968 3.565466 0.529875 0
M  V30 14 C 0.284485 4.550930 1.421741 0
M  V30 15 C -0.656950 4.290607 2.391470 0
M  V30 16 C -1.119182 5.269392 3.372534 0
M  V30 17 N -0.674752 6.602716 3.467212 0
M  V30 18 O -1.970004 5.069748 4.265055 0
M  V30 19 C -1.218383 3.032411 2.466534 0
M  V30 20 C -0.840313 2.032936 1.573418 0
M  V30 21 C 0.942858 1.564339 -1.645613 0
M  V30 22 N 1.321231 0.562926 -2.462282 0
M  V30 23 C 1.334277 -0.736554 -2.110485 0
M  V30 24 N 1.736636 -1.785223 -2.984729 0
M  V30 25 C -0.262702 -2.738994 0.378024 0
M  V30 26 C -0.442599 -4.008686 0.928279 0
M  V30 27 H 1.987336 -6.308382 3.205408 0
M  V30 28 H 0.879053 -7.676750 3.467789 0
M  V30 29 H 0.283372 -6.041578 3.839330 0
M  V30 30 H 2.497408 -5.410558 -0.055676 0
M  V30 31 H 2.771225 -3.104275 -1.028113 0
M  V30 32 H 0.229424 -0.282549 1.016495 0
M  V30 33 H 1.411090 3.785210 -0.230125 0
M  V30 34 H 0.718647 5.547968 1.374487 0
M  V30 35 H -1.115656 7.549396 3.304273 0
M  V30 36 H 0.191048 7.164403 3.713414 0
M  V30 37 H -1.964669 2.778692 3.213676 0
M  V30 38 H -1.298352 1.055122 1.656930 0
M  V30 39 H 0.943945 2.601731 -1.960657 0
M  V30 40 H 2.641622 -2.093137 -3.361599 0
M  V30 41 H 0.844017 -2.277133 -3.229660 0
M  V30 42 H -1.089113 -2.061899 0.552311 0
M  V30 43 H -1.346194 -4.262646 1.478076 0
M  V30 END ATOM
M  V30 BEGIN BOND
M  V30 1 1 1 2
M  V30 2 2 2 3
M  V30 3 2 2 4
M  V30 4 1 2 5
M  V30 5 2 5 6
M  V30 6 1 6 7
M  V30 7 2 7 8
M  V30 8 1 8 9
M  V30 9 2 9 10
M  V30 10 1 10 11
M  V30 11 1 11 12
M  V30 12 2 12 13
M  V30 13 1 13 14
M  V30 14 2 14 15
M  V30 15 1 15 16
M  V30 16 1 16 17
M  V30 17 2 16 18
M  V30 18 1 15 19
M  V30 19 2 19 20
M  V30 20 2 11 21
M  V30 21 1 21 22
M  V30 22 2 22 23
M  V30 23 1 23 24
M  V30 24 1 8 25
M  V30 25 2 25 26
M  V30 26 1 26 5
M  V30 27 1 23 9
M  V30 28 1 20 12
M  V30 29 1 1 27
M  V30 30 1 1 28
M  V30 31 1 1 29
M  V30 32 1 6 30
M  V30 33 1 7 31
M  V30 34 1 10 32
M  V30 35 1 13 33
M  V30 36 1 14 34
M  V30 37 1 17 35
M  V30 38 1 17 36
M  V30 39 1 19 37
M  V30 40 1 20 38
M  V30 41 1 21 39
M  V30 42 1 24 40
M  V30 43 1 24 41
M  V30 44 1 25 42
M  V30 45 1 26 43
M  V30 END BOND
M  V30 END CTAB
M  END
>  <Dataset>  (355) 
ChEMBL_Kinases

>  <Ligand_Instance>  (355) 
nan

>  <PDB_ID>  (355) 
nan

>  <Standardized_SMILES>  (355) 
CS(=O)(=O)c1ccc(-c2cc(-c3ccc(C(N)=O)cc3)cnc2N)cc1

>  <Name>  (355) 
nan

>  <Pocket>  (355) 
nan

>  <ATP_Site>  (355) 
nan

>  <Peripheral>  (355) 
nan

>  <Num_H_Atoms_ProtBoundConf>  (355) 
nan

>  <Num_Resolved_Atoms>  (355) 
nan

>  <Num_Not_Resolved_Atoms>  (355) 
nan

$$$$
CHEMBL3754300
     RDKit          3D

  0  0  0  0  0  0  0  0  0  0999 V3000
M  V30 BEGIN CTAB
M  V30 COUNTS 50 53 0 0 0
M  V30 BEGIN ATOM
M  V30 1 C -4.611592 -6.517433 -0.071061 0
M  V30 2 O -3.412957 -6.395161 -0.814048 0
M  V30 3 C -2.617203 -5.269096 -0.658499 0
M  V30 4 C -2.956223 -4.231664 0.217170 0
M  V30 5 C -2.149671 -3.116036 0.358984 0
M  V30 6 C -0.987393 -3.016770 -0.373197 0
M  V30 7 C -0.142455 -1.837723 -0.216818 0
M  V30 8 C -0.831534 -0.680926 0.071085 0
M  V30 9 N -0.138365 0.452317 0.232287 0
M  V30 10 C 1.174572 0.581057 0.141619 0
M  V30 11 C 2.146720 1.571898 0.250473 0
M  V30 12 N 1.834946 2.940371 0.547271 0
M  V30 13 C 2.855428 3.963149 0.658658 0
M  V30 14 C 2.624759 4.719630 1.941586 0
M  V30 15 N 1.744272 4.034186 2.862381 0
M  V30 16 C 2.237869 3.625595 4.131317 0
M  V30 17 C 1.348809 2.920617 5.089789 0
M  V30 18 O 3.437151 4.004855 4.124942 0
M  V30 19 C 0.469442 3.915922 2.228436 0
M  V30 20 C 0.527554 3.515537 0.775686 0
M  V30 21 S 3.736536 1.029348 0.003643 0
M  V30 22 N 3.318558 -0.751889 -0.309249 0
M  V30 23 C 1.887597 -0.541151 -0.141651 0
M  V30 24 C 1.251745 -1.778241 -0.328308 0
M  V30 25 C -0.680778 -4.051354 -1.225053 0
M  V30 26 C -1.455305 -5.180523 -1.397173 0
M  V30 27 O -1.136289 -6.218698 -2.259569 0
M  V30 28 C 0.019704 -6.241738 -3.062933 0
M  V30 29 H -5.408017 -5.811634 -0.421108 0
M  V30 30 H -5.052475 -7.530074 -0.187912 0
M  V30 31 H -4.453365 -6.322141 1.023478 0
M  V30 32 H -3.871534 -4.387546 0.745536 0
M  V30 33 H -2.482061 -2.356015 1.057802 0
M  V30 34 H -1.898441 -0.535529 0.193738 0
M  V30 35 H 2.721850 4.670121 -0.177450 0
M  V30 36 H 3.876531 3.532271 0.600399 0
M  V30 37 H 3.629452 4.882423 2.421295 0
M  V30 38 H 2.239680 5.749740 1.761274 0
M  V30 39 H 0.970646 2.009785 4.581590 0
M  V30 40 H 0.454328 3.591810 5.237567 0
M  V30 41 H 1.867765 2.711914 6.030613 0
M  V30 42 H -0.104759 4.860211 2.361822 0
M  V30 43 H -0.075362 3.078290 2.745113 0
M  V30 44 H 0.395774 4.450572 0.182414 0
M  V30 45 H -0.276030 2.806893 0.492922 0
M  V30 46 H 1.584079 -2.782318 -0.555110 0
M  V30 47 H 0.233343 -3.952886 -1.788221 0
M  V30 48 H -0.175593 -6.764782 -4.040552 0
M  V30 49 H 0.843614 -6.747906 -2.513921 0
M  V30 50 H 0.386197 -5.240720 -3.359791 0
M  V30 END ATOM
M  V30 BEGIN BOND
M  V30 1 1 1 2
M  V30 2 1 2 3
M  V30 3 2 3 4
M  V30 4 1 4 5
M  V30 5 2 5 6
M  V30 6 1 6 7
M  V30 7 1 7 8
M  V30 8 2 8 9
M  V30 9 1 9 10
M  V30 10 2 10 11
M  V30 11 1 11 12
M  V30 12 1 12 13
M  V30 13 1 13 14
M  V30 14 1 14 15
M  V30 15 1 15 16
M  V30 16 1 16 17
M  V30 17 2 16 18
M  V30 18 1 15 19
M  V30 19 1 19 20
M  V30 20 1 11 21
M  V30 21 1 21 22
M  V30 22 2 22 23
M  V30 23 1 23 24
M  V30 24 1 6 25
M  V30 25 2 25 26
M  V30 26 1 26 27
M  V30 27 1 27 28
M  V30 28 1 26 3
M  V30 29 2 24 7
M  V30 30 1 23 10
M  V30 31 1 20 12
M  V30 32 1 1 29
M  V30 33 1 1 30
M  V30 34 1 1 31
M  V30 35 1 4 32
M  V30 36 1 5 33
M  V30 37 1 8 34
M  V30 38 1 13 35
M  V30 39 1 13 36
M  V30 40 1 14 37
M  V30 41 1 14 38
M  V30 42 1 17 39
M  V30 43 1 17 40
M  V30 44 1 17 41
M  V30 45 1 19 42
M  V30 46 1 19 43
M  V30 47 1 20 44
M  V30 48 1 20 45
M  V30 49 1 24 46
M  V30 50 1 25 47
M  V30 51 1 28 48
M  V30 52 1 28 49
M  V30 53 1 28 50
M  V30 END BOND
M  V30 END CTAB
M  END
>  <Dataset>  (356) 
ChEMBL_Kinases

>  <Ligand_Instance>  (356) 
nan

>  <PDB_ID>  (356) 
nan

>  <Standardized_SMILES>  (356) 
COc1ccc(-c2cnc3c(N4CCN(C(C)=O)CC4)snc3c2)cc1OC

>  <Name>  (356) 
nan

>  <Pocket>  (356) 
nan

>  <ATP_Site>  (356) 
nan

>  <Peripheral>  (356) 
nan

>  <Num_H_Atoms_ProtBoundConf>  (356) 
nan

>  <Num_Resolved_Atoms>  (356) 
nan

>  <Num_Not_Resolved_Atoms>  (356) 
nan

$$$$
CHEMBL5086022
     RDKit          3D

  0  0  0  0  0  0  0  0  0  0999 V3000
M  V30 BEGIN CTAB
M  V30 COUNTS 100 107 0 0 0
M  V30 BEGIN ATOM
M  V30 1 C 4.687394 -1.363147 1.065948 0
M  V30 2 C 5.502850 -0.118366 0.842839 0
M  V30 3 C 5.792814 0.594225 2.098697 0
M  V30 4 C 7.065213 0.502345 2.681068 0
M  V30 5 C 7.459308 1.123177 3.840950 0
M  V30 6 C 6.517545 1.882830 4.453227 0
M  V30 7 C 5.213957 2.050443 3.967742 0
M  V30 8 C 4.281928 2.902983 4.724670 0
M  V30 9 C 3.271464 2.130288 5.544915 0
M  V30 10 C 4.896427 1.388663 2.789918 0
M  V30 11 N 3.572446 1.583974 2.310304 0
M  V30 12 C 3.277766 2.644724 1.380185 0
M  V30 13 C 1.872215 3.139353 1.391261 0
M  V30 14 N 0.913547 2.192338 1.869638 0
M  V30 15 C -0.441828 2.324596 1.725392 0
M  V30 16 C -1.002293 1.219776 2.330119 0
M  V30 17 C -2.418670 0.803785 2.481955 0
M  V30 18 N -2.790641 -0.487015 2.261110 0
M  V30 19 C -4.082118 -0.912541 2.375024 0
M  V30 20 N -4.052253 -2.302902 2.077814 0
M  V30 21 C -3.959701 -2.627123 0.699808 0
M  V30 22 C -3.939288 -1.725806 -0.315039 0
M  V30 23 C -3.829857 -2.013185 -1.659875 0
M  V30 24 C -3.731916 -3.368718 -1.973617 0
M  V30 25 N -3.604791 -3.670724 -3.351414 0
M  V30 26 C -3.000610 -4.900309 -3.830246 0
M  V30 27 C -1.608365 -4.455481 -4.321119 0
M  V30 28 C -1.743268 -3.460310 -5.447676 0
M  V30 29 N -0.850453 -2.365144 -5.323872 0
M  V30 30 C -0.779093 -1.495817 -6.471723 0
M  V30 31 C 0.065170 -0.279332 -6.104202 0
M  V30 32 N -0.675772 0.549567 -5.151444 0
M  V30 33 C 0.214831 1.556306 -4.643848 0
M  V30 34 C -1.296616 -0.238108 -4.134197 0
M  V30 35 C -0.809737 -1.674814 -4.081772 0
M  V30 36 C -3.186062 -3.113627 -5.711013 0
M  V30 37 C -4.020881 -2.874593 -4.491473 0
M  V30 38 C -3.743987 -4.368512 -1.023517 0
M  V30 39 C -3.859623 -3.946840 0.294825 0
M  V30 40 O -3.879309 -4.915644 1.310986 0
M  V30 41 C -3.788701 -6.291877 1.105647 0
M  V30 42 N -4.996224 0.010601 2.721563 0
M  V30 43 C -4.648291 1.294311 2.945242 0
M  V30 44 N -5.437517 2.312207 3.295258 0
M  V30 45 C -4.684559 3.419945 3.417507 0
M  V30 46 C -3.347662 3.108585 3.134645 0
M  V30 47 C -3.360390 1.763462 2.841480 0
M  V30 48 C -0.031638 0.390804 2.853795 0
M  V30 49 C 1.160073 1.051423 2.534523 0
M  V30 50 C 2.563277 0.679313 2.798129 0
M  V30 51 O 2.752541 -0.379628 3.417880 0
M  V30 52 H 5.075125 -2.224805 0.472163 0
M  V30 53 H 4.785911 -1.680748 2.125061 0
M  V30 54 H 3.610121 -1.210893 0.876344 0
M  V30 55 H 5.084914 0.542566 0.045995 0
M  V30 56 H 6.488413 -0.470944 0.432034 0
M  V30 57 H 7.801913 -0.125383 2.154470 0
M  V30 58 H 8.466558 0.976975 4.191381 0
M  V30 59 H 6.807463 2.392660 5.384460 0
M  V30 60 H 3.779607 3.661856 4.077552 0
M  V30 61 H 4.874734 3.525034 5.437896 0
M  V30 62 H 3.278582 2.496034 6.611109 0
M  V30 63 H 3.599259 1.086426 5.566625 0
M  V30 64 H 2.223056 2.279919 5.177127 0
M  V30 65 H 3.474264 2.244978 0.361477 0
M  V30 66 H 3.988823 3.495673 1.481626 0
M  V30 67 H 1.578092 3.420521 0.336885 0
M  V30 68 H 1.758895 4.109816 1.942217 0
M  V30 69 H -1.058465 3.082209 1.259044 0
M  V30 70 H -4.092254 -3.065409 2.787693 0
M  V30 71 H -4.017203 -0.670669 -0.034932 0
M  V30 72 H -3.826230 -1.198426 -2.363670 0
M  V30 73 H -3.517032 -5.329602 -4.689656 0
M  V30 74 H -2.839478 -5.666747 -3.080053 0
M  V30 75 H -1.128943 -5.422533 -4.655819 0
M  V30 76 H -1.003278 -4.114002 -3.487388 0
M  V30 77 H -1.415702 -4.015392 -6.378423 0
M  V30 78 H -1.715274 -1.127076 -6.868179 0
M  V30 79 H -0.239704 -1.993096 -7.311447 0
M  V30 80 H 0.964170 -0.640166 -5.580737 0
M  V30 81 H 0.263683 0.333399 -7.004061 0
M  V30 82 H 0.205338 1.568180 -3.518240 0
M  V30 83 H -0.038622 2.570854 -5.042182 0
M  V30 84 H 1.287748 1.387870 -4.898743 0
M  V30 85 H -2.408538 -0.193085 -4.139852 0
M  V30 86 H -0.982107 0.220526 -3.150462 0
M  V30 87 H -1.289570 -2.141004 -3.225652 0
M  V30 88 H 0.280211 -1.583395 -3.784399 0
M  V30 89 H -3.649696 -3.965499 -6.295157 0
M  V30 90 H -3.278393 -2.246114 -6.378412 0
M  V30 91 H -5.064992 -3.240948 -4.728974 0
M  V30 92 H -4.172356 -1.805206 -4.259079 0
M  V30 93 H -3.672862 -5.416561 -1.264105 0
M  V30 94 H -4.072570 -6.786963 2.052824 0
M  V30 95 H -4.368170 -6.641534 0.247458 0
M  V30 96 H -2.700700 -6.553132 0.939789 0
M  V30 97 H -6.465746 2.282823 3.452392 0
M  V30 98 H -4.984924 4.421450 3.685723 0
M  V30 99 H -2.451998 3.718316 3.124478 0
M  V30 100 H -0.114512 -0.546906 3.388534 0
M  V30 END ATOM
M  V30 BEGIN BOND
M  V30 1 1 1 2
M  V30 2 1 2 3
M  V30 3 2 3 4
M  V30 4 1 4 5
M  V30 5 2 5 6
M  V30 6 1 6 7
M  V30 7 1 7 8
M  V30 8 1 8 9
M  V30 9 2 7 10
M  V30 10 1 10 11
M  V30 11 1 11 12
M  V30 12 1 12 13
M  V30 13 1 13 14
M  V30 14 1 14 15
M  V30 15 2 15 16
M  V30 16 1 16 17
M  V30 17 2 17 18
M  V30 18 1 18 19
M  V30 19 1 19 20
M  V30 20 1 20 21
M  V30 21 2 21 22
M  V30 22 1 22 23
M  V30 23 2 23 24
M  V30 24 1 24 25
M  V30 25 1 25 26
M  V30 26 1 26 27
M  V30 27 1 27 28
M  V30 28 1 28 29
M  V30 29 1 29 30
M  V30 30 1 30 31
M  V30 31 1 31 32
M  V30 32 1 32 33
M  V30 33 1 32 34
M  V30 34 1 34 35
M  V30 35 1 28 36
M  V30 36 1 36 37
M  V30 37 1 24 38
M  V30 38 2 38 39
M  V30 39 1 39 40
M  V30 40 1 40 41
M  V30 41 2 19 42
M  V30 42 1 42 43
M  V30 43 1 43 44
M  V30 44 1 44 45
M  V30 45 2 45 46
M  V30 46 1 46 47
M  V30 47 1 16 48
M  V30 48 2 48 49
M  V30 49 1 49 50
M  V30 50 2 50 51
M  V30 51 1 10 3
M  V30 52 1 50 11
M  V30 53 1 49 14
M  V30 54 1 47 17
M  V30 55 1 39 21
M  V30 56 2 47 43
M  V30 57 1 37 25
M  V30 58 1 35 29
M  V30 59 1 1 52
M  V30 60 1 1 53
M  V30 61 1 1 54
M  V30 62 1 2 55
M  V30 63 1 2 56
M  V30 64 1 4 57
M  V30 65 1 5 58
M  V30 66 1 6 59
M  V30 67 1 8 60
M  V30 68 1 8 61
M  V30 69 1 9 62
M  V30 70 1 9 63
M  V30 71 1 9 64
M  V30 72 1 12 65
M  V30 73 1 12 66
M  V30 74 1 13 67
M  V30 75 1 13 68
M  V30 76 1 15 69
M  V30 77 1 20 70
M  V30 78 1 22 71
M  V30 79 1 23 72
M  V30 80 1 26 73
M  V30 81 1 26 74
M  V30 82 1 27 75
M  V30 83 1 27 76
M  V30 84 1 28 77
M  V30 85 1 30 78
M  V30 86 1 30 79
M  V30 87 1 31 80
M  V30 88 1 31 81
M  V30 89 1 33 82
M  V30 90 1 33 83
M  V30 91 1 33 84
M  V30 92 1 34 85
M  V30 93 1 34 86
M  V30 94 1 35 87
M  V30 95 1 35 88
M  V30 96 1 36 89
M  V30 97 1 36 90
M  V30 98 1 37 91
M  V30 99 1 37 92
M  V30 100 1 38 93
M  V30 101 1 41 94
M  V30 102 1 41 95
M  V30 103 1 41 96
M  V30 104 1 44 97
M  V30 105 1 45 98
M  V30 106 1 46 99
M  V30 107 1 48 100
M  V30 END BOND
M  V30 END CTAB
M  END
>  <Dataset>  (357) 
ChEMBL_Kinases

>  <Ligand_Instance>  (357) 
nan

>  <PDB_ID>  (357) 
nan

>  <Standardized_SMILES>  (357) 
CCc1cccc(CC)c1N1CCn2cc(-c3nc(Nc4ccc(N5CCC(N6CCN(C)CC6)CC5)cc4OC)nc4[nH]ccc34)cc2C1=O

>  <Name>  (357) 
nan

>  <Pocket>  (357) 
nan

>  <ATP_Site>  (357) 
nan

>  <Peripheral>  (357) 
nan

>  <Num_H_Atoms_ProtBoundConf>  (357) 
nan

>  <Num_Resolved_Atoms>  (357) 
nan

>  <Num_Not_Resolved_Atoms>  (357) 
nan

$$$$
CHEMBL375717
     RDKit          3D

  0  0  0  0  0  0  0  0  0  0999 V3000
M  V30 BEGIN CTAB
M  V30 COUNTS 52 55 0 0 0
M  V30 BEGIN ATOM
M  V30 1 C 5.519813 -1.885744 -2.977358 0
M  V30 2 C 4.994510 -2.468240 -1.708220 0
M  V30 3 N 5.261375 -3.682874 -1.196531 0
M  V30 4 N 4.608574 -3.844827 -0.049538 0
M  V30 5 C 3.904738 -2.703579 0.179671 0
M  V30 6 C 3.048952 -2.284305 1.199244 0
M  V30 7 C 2.471365 -1.029610 1.143275 0
M  V30 8 C 2.720583 -0.156741 0.084316 0
M  V30 9 C 2.099158 1.172746 0.039444 0
M  V30 10 C 2.665074 2.297812 -0.533399 0
M  V30 11 N 1.960358 3.467754 -0.496206 0
M  V30 12 C 0.760833 3.508522 0.080092 0
M  V30 13 C 0.120427 2.432800 0.676326 0
M  V30 14 O -1.137872 2.531686 1.265814 0
M  V30 15 C -1.657042 1.344426 1.832502 0
M  V30 16 C -3.024399 1.573418 2.439619 0 CFG=1
M  V30 17 N -3.906811 2.021725 1.408468 0
M  V30 18 C -3.494059 0.354609 3.174323 0
M  V30 19 C -3.603598 -0.836961 2.307712 0
M  V30 20 C -4.726702 -1.215869 1.601530 0
M  V30 21 C -4.663804 -2.363580 0.833587 0
M  V30 22 C -3.540155 -3.154335 0.731814 0
M  V30 23 C -3.435017 -4.382833 -0.075513 0
M  V30 24 F -3.133912 -5.447335 0.751586 0
M  V30 25 F -4.640284 -4.695726 -0.687568 0
M  V30 26 F -2.430063 -4.316121 -1.028777 0
M  V30 27 C -2.416367 -2.777050 1.437066 0
M  V30 28 F -1.278282 -3.514450 1.377880 0
M  V30 29 C -2.466261 -1.619274 2.217097 0
M  V30 30 C 0.852571 1.247064 0.629913 0
M  V30 31 C 3.564776 -0.551285 -0.935916 0
M  V30 32 C 4.129541 -1.802363 -0.862563 0
M  V30 33 H 6.303188 -2.507064 -3.425494 0
M  V30 34 H 4.690699 -1.761676 -3.728703 0
M  V30 35 H 5.898103 -0.876164 -2.791650 0
M  V30 36 H 4.554159 -4.628293 0.635521 0
M  V30 37 H 2.837185 -2.940025 2.033208 0
M  V30 38 H 1.822325 -0.756283 1.950966 0
M  V30 39 H 3.637340 2.157587 -0.972529 0
M  V30 40 H 0.268075 4.471218 0.068709 0
M  V30 41 H -1.760958 0.544117 1.060427 0
M  V30 42 H -0.930694 0.940513 2.586499 0
M  V30 43 H -2.925701 2.408264 3.168258 0
M  V30 44 H -3.502390 2.928421 1.050515 0
M  V30 45 H -4.851773 2.312232 1.790276 0
M  V30 46 H -4.481914 0.594903 3.649401 0
M  V30 47 H -2.798434 0.178191 4.019502 0
M  V30 48 H -5.590923 -0.600387 1.685151 0
M  V30 49 H -5.538493 -2.682370 0.266939 0
M  V30 50 H -1.537854 -1.379589 2.749585 0
M  V30 51 H 0.364585 0.384873 1.095333 0
M  V30 52 H 3.779796 0.095528 -1.767913 0
M  V30 END ATOM
M  V30 BEGIN BOND
M  V30 1 1 1 2
M  V30 2 2 2 3
M  V30 3 1 3 4
M  V30 4 1 4 5
M  V30 5 2 5 6
M  V30 6 1 6 7
M  V30 7 2 7 8
M  V30 8 1 8 9
M  V30 9 2 9 10
M  V30 10 1 10 11
M  V30 11 2 11 12
M  V30 12 1 12 13
M  V30 13 1 13 14
M  V30 14 1 14 15
M  V30 15 1 15 16
M  V30 16 1 16 17
M  V30 17 1 16 18
M  V30 18 1 18 19
M  V30 19 2 19 20
M  V30 20 1 20 21
M  V30 21 2 21 22
M  V30 22 1 22 23
M  V30 23 1 23 24
M  V30 24 1 23 25
M  V30 25 1 23 26
M  V30 26 1 22 27
M  V30 27 1 27 28
M  V30 28 2 27 29
M  V30 29 2 13 30
M  V30 30 1 8 31
M  V30 31 2 31 32
M  V30 32 1 32 2
M  V30 33 1 32 5
M  V30 34 1 30 9
M  V30 35 1 29 19
M  V30 36 1 1 33
M  V30 37 1 1 34
M  V30 38 1 1 35
M  V30 39 1 4 36
M  V30 40 1 6 37
M  V30 41 1 7 38
M  V30 42 1 10 39
M  V30 43 1 12 40
M  V30 44 1 15 41
M  V30 45 1 15 42
M  V30 46 1 16 43 CFG=1
M  V30 47 1 17 44
M  V30 48 1 17 45
M  V30 49 1 18 46
M  V30 50 1 18 47
M  V30 51 1 20 48
M  V30 52 1 21 49
M  V30 53 1 29 50
M  V30 54 1 30 51
M  V30 55 1 31 52
M  V30 END BOND
M  V30 END CTAB
M  END
>  <Dataset>  (358) 
ChEMBL_Kinases

>  <Ligand_Instance>  (358) 
nan

>  <PDB_ID>  (358) 
nan

>  <Standardized_SMILES>  (358) 
Cc1n[nH]c2ccc(-c3cncc(OC[C@@H](N)Cc4ccc(C(F)(F)F)c(F)c4)c3)cc12

>  <Name>  (358) 
nan

>  <Pocket>  (358) 
nan

>  <ATP_Site>  (358) 
nan

>  <Peripheral>  (358) 
nan

>  <Num_H_Atoms_ProtBoundConf>  (358) 
nan

>  <Num_Resolved_Atoms>  (358) 
nan

>  <Num_Not_Resolved_Atoms>  (358) 
nan

$$$$
CHEMBL3754235
     RDKit          3D

  0  0  0  0  0  0  0  0  0  0999 V3000
M  V30 BEGIN CTAB
M  V30 COUNTS 44 46 0 0 0
M  V30 BEGIN ATOM
M  V30 1 C -5.114115 -3.627690 -1.900272 0
M  V30 2 C -4.376477 -2.825933 -0.852733 0
M  V30 3 C -3.517950 -1.746236 -1.497704 0
M  V30 4 C -4.387966 -0.793909 -2.301746 0
M  V30 5 O -2.492685 -2.282384 -2.272454 0
M  V30 6 C -1.164453 -2.075893 -2.004782 0
M  V30 7 S -0.092989 -2.839141 -3.098573 0
M  V30 8 N 1.480808 -2.246260 -2.291099 0
M  V30 9 C 0.955607 -1.517250 -1.254982 0
M  V30 10 C 1.766412 -0.864365 -0.350595 0
M  V30 11 C 1.239731 -0.130490 0.691562 0
M  V30 12 C 2.045246 0.588057 1.689067 0
M  V30 13 C 1.641336 1.734115 2.297598 0
M  V30 14 C 2.386243 2.419214 3.235994 0
M  V30 15 C 3.603094 1.829338 3.510756 0
M  V30 16 O 4.436086 2.446708 4.450667 0
M  V30 17 C 3.997751 3.641616 5.074017 0
M  V30 18 C 4.082077 0.668638 2.935181 0
M  V30 19 O 5.325890 0.169542 3.292670 0
M  V30 20 C 5.781858 -1.032952 2.673636 0
M  V30 21 C 3.272427 0.047759 2.006253 0
M  V30 22 C -0.127536 -0.036011 0.848693 0
M  V30 23 N -0.887523 -0.683309 -0.048947 0
M  V30 24 C -0.396648 -1.398978 -1.064764 0
M  V30 25 H -6.181998 -3.353990 -1.880716 0
M  V30 26 H -4.670707 -3.487169 -2.909322 0
M  V30 27 H -5.054827 -4.703333 -1.585563 0
M  V30 28 H -3.768377 -3.487814 -0.212380 0
M  V30 29 H -5.127800 -2.365128 -0.180355 0
M  V30 30 H -3.120549 -1.147211 -0.656052 0
M  V30 31 H -4.914531 -0.134999 -1.575441 0
M  V30 32 H -5.115625 -1.331580 -2.941842 0
M  V30 33 H -3.715587 -0.156559 -2.913696 0
M  V30 34 H 2.829286 -0.861460 -0.365393 0
M  V30 35 H 0.666478 2.117944 2.011645 0
M  V30 36 H 2.065689 3.330051 3.719863 0
M  V30 37 H 3.895497 4.494172 4.381468 0
M  V30 38 H 2.981910 3.493832 5.537136 0
M  V30 39 H 4.670875 3.902370 5.911145 0
M  V30 40 H 5.701983 -0.914060 1.584526 0
M  V30 41 H 6.765596 -1.334451 3.028096 0
M  V30 42 H 5.029477 -1.821452 2.963874 0
M  V30 43 H 3.662760 -0.871551 1.556717 0
M  V30 44 H -0.657886 0.517384 1.636437 0
M  V30 END ATOM
M  V30 BEGIN BOND
M  V30 1 1 1 2
M  V30 2 1 2 3
M  V30 3 1 3 4
M  V30 4 1 3 5
M  V30 5 1 5 6
M  V30 6 1 6 7
M  V30 7 1 7 8
M  V30 8 2 8 9
M  V30 9 1 9 10
M  V30 10 2 10 11
M  V30 11 1 11 12
M  V30 12 2 12 13
M  V30 13 1 13 14
M  V30 14 2 14 15
M  V30 15 1 15 16
M  V30 16 1 16 17
M  V30 17 1 15 18
M  V30 18 1 18 19
M  V30 19 1 19 20
M  V30 20 2 18 21
M  V30 21 1 11 22
M  V30 22 2 22 23
M  V30 23 1 23 24
M  V30 24 2 24 6
M  V30 25 1 24 9
M  V30 26 1 21 12
M  V30 27 1 1 25
M  V30 28 1 1 26
M  V30 29 1 1 27
M  V30 30 1 2 28
M  V30 31 1 2 29
M  V30 32 1 3 30
M  V30 33 1 4 31
M  V30 34 1 4 32
M  V30 35 1 4 33
M  V30 36 1 10 34
M  V30 37 1 13 35
M  V30 38 1 14 36
M  V30 39 1 17 37
M  V30 40 1 17 38
M  V30 41 1 17 39
M  V30 42 1 20 40
M  V30 43 1 20 41
M  V30 44 1 20 42
M  V30 45 1 21 43
M  V30 46 1 22 44
M  V30 END BOND
M  V30 END CTAB
M  END
>  <Dataset>  (359) 
ChEMBL_Kinases

>  <Ligand_Instance>  (359) 
nan

>  <PDB_ID>  (359) 
nan

>  <Standardized_SMILES>  (359) 
CCC(C)Oc1snc2cc(-c3ccc(OC)c(OC)c3)cnc12

>  <Name>  (359) 
nan

>  <Pocket>  (359) 
nan

>  <ATP_Site>  (359) 
nan

>  <Peripheral>  (359) 
nan

>  <Num_H_Atoms_ProtBoundConf>  (359) 
nan

>  <Num_Resolved_Atoms>  (359) 
nan

>  <Num_Not_Resolved_Atoms>  (359) 
nan

$$$$
CHEMBL589338
     RDKit          3D

  0  0  0  0  0  0  0  0  0  0999 V3000
M  V30 BEGIN CTAB
M  V30 COUNTS 69 73 0 0 0
M  V30 BEGIN ATOM
M  V30 1 C 2.947008 -0.249892 6.708323 0
M  V30 2 N 3.538629 -1.228100 5.837074 0
M  V30 3 C 3.298153 -2.588037 6.200179 0
M  V30 4 C 4.916622 -0.895384 5.601207 0
M  V30 5 C 5.016804 0.387362 4.755878 0
M  V30 6 N 4.343195 0.111654 3.498047 0
M  V30 7 C 5.041086 -0.866762 2.655217 0
M  V30 8 C 3.125039 0.651568 2.992378 0
M  V30 9 C 2.605614 0.245420 1.767900 0
M  V30 10 C 1.420637 0.819863 1.360778 0
M  V30 11 C 0.876721 0.387034 0.076533 0
M  V30 12 O 0.611307 -0.845251 0.154016 0
M  V30 13 N 0.627709 1.096836 -1.137073 0
M  V30 14 C 0.083694 0.138932 -2.050527 0
M  V30 15 C 0.966436 -0.547856 -2.858830 0
M  V30 16 C 0.449214 -1.492518 -3.757286 0
M  V30 17 C -0.902967 -1.692877 -3.794534 0
M  V30 18 C -1.768329 -1.004435 -2.986278 0
M  V30 19 C -1.275511 -0.075759 -2.101358 0
M  V30 20 C -3.184284 -1.272903 -3.070822 0
M  V30 21 C -3.622104 -2.220370 -3.967676 0
M  V30 22 C -4.983764 -2.242449 -3.818081 0
M  V30 23 C -5.997494 -3.027272 -4.477719 0
M  V30 24 N -5.607163 -3.956193 -5.460418 0
M  V30 25 O -7.257895 -3.070699 -4.361393 0
M  V30 26 N -5.288121 -1.324137 -2.856355 0
M  V30 27 N -4.207928 -0.732837 -2.398287 0
M  V30 28 C -4.308190 0.259788 -1.388171 0
M  V30 29 C -4.260204 -0.214800 -0.083448 0
M  V30 30 C -4.351239 0.586229 1.033608 0
M  V30 31 C -4.498643 1.938813 0.808841 0
M  V30 32 F -4.593035 2.774839 1.870989 0
M  V30 33 C -4.552144 2.462234 -0.471030 0
M  V30 34 C -4.459024 1.642799 -1.566597 0
M  V30 35 C -2.757954 -3.001929 -4.855901 0
M  V30 36 C -1.307415 -2.704755 -4.785558 0
M  V30 37 C 0.729358 1.769385 2.098976 0
M  V30 38 Cl -0.753186 2.398448 1.451136 0
M  V30 39 C 1.304525 2.124154 3.303253 0
M  V30 40 N 2.458022 1.570631 3.709412 0
M  V30 41 H 2.560938 -0.728532 7.653511 0
M  V30 42 H 2.167550 0.325493 6.197261 0
M  V30 43 H 3.731568 0.463746 7.059872 0
M  V30 44 H 2.953224 -2.611283 7.268172 0
M  V30 45 H 2.439771 -2.992398 5.593513 0
M  V30 46 H 4.163945 -3.265718 6.033643 0
M  V30 47 H 5.476472 -0.756904 6.565884 0
M  V30 48 H 5.379382 -1.743978 5.063902 0
M  V30 49 H 4.638780 1.249718 5.298374 0
M  V30 50 H 6.089795 0.537347 4.515395 0
M  V30 51 H 4.451463 -1.802900 2.573045 0
M  V30 52 H 5.094852 -0.417989 1.636580 0
M  V30 53 H 6.025207 -1.145621 3.018741 0
M  V30 54 H 3.114272 -0.491853 1.162485 0
M  V30 55 H 0.903918 2.097867 -1.039807 0
M  V30 56 H 2.025432 -0.344295 -2.782399 0
M  V30 57 H 1.184567 -2.000375 -4.365386 0
M  V30 58 H -1.847283 0.505336 -1.437822 0
M  V30 59 H -5.817099 -4.367850 -6.383393 0
M  V30 60 H -4.933067 -4.682839 -5.760145 0
M  V30 61 H -4.144063 -1.282751 0.139105 0
M  V30 62 H -4.316786 0.245063 2.047644 0
M  V30 63 H -4.667615 3.523267 -0.685337 0
M  V30 64 H -4.487495 1.929356 -2.625898 0
M  V30 65 H -2.914092 -4.078098 -4.536365 0
M  V30 66 H -3.116320 -3.016310 -5.923182 0
M  V30 67 H -0.710230 -3.652383 -4.689026 0
M  V30 68 H -0.997517 -2.283290 -5.788294 0
M  V30 69 H 0.736090 2.871621 3.857846 0
M  V30 END ATOM
M  V30 BEGIN BOND
M  V30 1 1 1 2
M  V30 2 1 2 3
M  V30 3 1 2 4
M  V30 4 1 4 5
M  V30 5 1 5 6
M  V30 6 1 6 7
M  V30 7 1 6 8
M  V30 8 2 8 9
M  V30 9 1 9 10
M  V30 10 1 10 11
M  V30 11 2 11 12
M  V30 12 1 11 13
M  V30 13 1 13 14
M  V30 14 2 14 15
M  V30 15 1 15 16
M  V30 16 2 16 17
M  V30 17 1 17 18
M  V30 18 2 18 19
M  V30 19 1 18 20
M  V30 20 2 20 21
M  V30 21 1 21 22
M  V30 22 1 22 23
M  V30 23 1 23 24
M  V30 24 2 23 25
M  V30 25 2 22 26
M  V30 26 1 26 27
M  V30 27 1 27 28
M  V30 28 2 28 29
M  V30 29 1 29 30
M  V30 30 2 30 31
M  V30 31 1 31 32
M  V30 32 1 31 33
M  V30 33 2 33 34
M  V30 34 1 21 35
M  V30 35 1 35 36
M  V30 36 2 10 37
M  V30 37 1 37 38
M  V30 38 1 37 39
M  V30 39 2 39 40
M  V30 40 1 40 8
M  V30 41 1 19 14
M  V30 42 1 27 20
M  V30 43 1 34 28
M  V30 44 1 36 17
M  V30 45 1 1 41
M  V30 46 1 1 42
M  V30 47 1 1 43
M  V30 48 1 3 44
M  V30 49 1 3 45
M  V30 50 1 3 46
M  V30 51 1 4 47
M  V30 52 1 4 48
M  V30 53 1 5 49
M  V30 54 1 5 50
M  V30 55 1 7 51
M  V30 56 1 7 52
M  V30 57 1 7 53
M  V30 58 1 9 54
M  V30 59 1 13 55
M  V30 60 1 15 56
M  V30 61 1 16 57
M  V30 62 1 19 58
M  V30 63 1 24 59
M  V30 64 1 24 60
M  V30 65 1 29 61
M  V30 66 1 30 62
M  V30 67 1 33 63
M  V30 68 1 34 64
M  V30 69 1 35 65
M  V30 70 1 35 66
M  V30 71 1 36 67
M  V30 72 1 36 68
M  V30 73 1 39 69
M  V30 END BOND
M  V30 END CTAB
M  END
>  <Dataset>  (360) 
ChEMBL_Kinases

>  <Ligand_Instance>  (360) 
nan

>  <PDB_ID>  (360) 
nan

>  <Standardized_SMILES>  (360) 
CN(C)CCN(C)c1cc(C(=O)Nc2ccc3c(c2)-c2c(c(C(N)=O)nn2-c2ccc(F)cc2)CC3)c(Cl)cn1

>  <Name>  (360) 
nan

>  <Pocket>  (360) 
nan

>  <ATP_Site>  (360) 
nan

>  <Peripheral>  (360) 
nan

>  <Num_H_Atoms_ProtBoundConf>  (360) 
nan

>  <Num_Resolved_Atoms>  (360) 
nan

>  <Num_Not_Resolved_Atoms>  (360) 
nan

$$$$
CHEMBL375416
     RDKit          3D

  0  0  0  0  0  0  0  0  0  0999 V3000
M  V30 BEGIN CTAB
M  V30 COUNTS 51 55 0 0 0
M  V30 BEGIN ATOM
M  V30 1 C 2.261785 -4.262487 4.047277 0
M  V30 2 C 3.578233 -3.607605 3.729495 0
M  V30 3 O 4.411779 -3.438704 4.654181 0
M  V30 4 N 3.888295 -3.180543 2.404786 0
M  V30 5 C 5.153888 -2.564370 2.160826 0
M  V30 6 C 5.235292 -1.813652 0.867526 0
M  V30 7 N 3.983245 -1.382333 0.332315 0
M  V30 8 C 3.456370 -0.294333 1.095698 0
M  V30 9 C 2.151115 0.198854 0.585076 0
M  V30 10 C 2.122888 1.207013 -0.366306 0
M  V30 11 C 0.934635 1.696834 -0.869640 0
M  V30 12 C -0.262204 1.181030 -0.425267 0
M  V30 13 N -1.548442 1.430514 -0.705464 0
M  V30 14 C -2.424999 0.683668 -0.032070 0
M  V30 15 C -3.867152 0.563087 0.031069 0
M  V30 16 N -4.543118 -0.300248 0.821359 0
M  V30 17 N -5.843535 -0.178283 0.660737 0
M  V30 18 C -6.126987 0.773455 -0.246566 0
M  V30 19 C -7.287449 1.297727 -0.781633 0
M  V30 20 C -7.236448 2.302084 -1.726859 0
M  V30 21 Cl -8.737574 2.939139 -2.380251 0
M  V30 22 C -5.992600 2.758428 -2.113488 0
M  V30 23 C -4.861516 2.216834 -1.563121 0
M  V30 24 C -4.869494 1.228403 -0.631404 0
M  V30 25 C -1.584651 -0.108264 0.743890 0
M  V30 26 C -0.257605 0.179076 0.519441 0
M  V30 27 C 0.938479 -0.302606 1.015374 0
M  V30 28 C 3.117515 -2.501156 0.159563 0
M  V30 29 C 2.931734 -3.375878 1.350442 0
M  V30 30 H 2.375081 -4.991649 4.881342 0
M  V30 31 H 1.856874 -4.823521 3.177306 0
M  V30 32 H 1.517600 -3.469879 4.287128 0
M  V30 33 H 5.972873 -3.318838 2.213854 0
M  V30 34 H 5.350820 -1.872700 3.024688 0
M  V30 35 H 5.711650 -2.471029 0.083373 0
M  V30 36 H 5.912732 -0.945125 1.019083 0
M  V30 37 H 3.419429 -0.592397 2.167192 0
M  V30 38 H 4.211333 0.527874 1.037228 0
M  V30 39 H 3.057595 1.619503 -0.722467 0
M  V30 40 H 0.912885 2.483139 -1.611643 0
M  V30 41 H -1.795926 2.150446 -1.392804 0
M  V30 42 H -6.529863 -0.761580 1.186626 0
M  V30 43 H -8.211837 0.871579 -0.412251 0
M  V30 44 H -5.940905 3.552864 -2.860765 0
M  V30 45 H -3.947642 2.615046 -1.906522 0
M  V30 46 H -1.846055 -0.876997 1.459435 0
M  V30 47 H 0.911522 -1.087154 1.754029 0
M  V30 48 H 2.111168 -2.239308 -0.222503 0
M  V30 49 H 3.570865 -3.121516 -0.658592 0
M  V30 50 H 1.921843 -3.265616 1.822597 0
M  V30 51 H 2.984188 -4.455534 1.061339 0
M  V30 END ATOM
M  V30 BEGIN BOND
M  V30 1 1 1 2
M  V30 2 2 2 3
M  V30 3 1 2 4
M  V30 4 1 4 5
M  V30 5 1 5 6
M  V30 6 1 6 7
M  V30 7 1 7 8
M  V30 8 1 8 9
M  V30 9 2 9 10
M  V30 10 1 10 11
M  V30 11 2 11 12
M  V30 12 1 12 13
M  V30 13 1 13 14
M  V30 14 1 14 15
M  V30 15 2 15 16
M  V30 16 1 16 17
M  V30 17 1 17 18
M  V30 18 2 18 19
M  V30 19 1 19 20
M  V30 20 1 20 21
M  V30 21 2 20 22
M  V30 22 1 22 23
M  V30 23 2 23 24
M  V30 24 2 14 25
M  V30 25 1 25 26
M  V30 26 2 26 27
M  V30 27 1 7 28
M  V30 28 1 28 29
M  V30 29 1 29 4
M  V30 30 1 27 9
M  V30 31 1 26 12
M  V30 32 1 24 15
M  V30 33 1 24 18
M  V30 34 1 1 30
M  V30 35 1 1 31
M  V30 36 1 1 32
M  V30 37 1 5 33
M  V30 38 1 5 34
M  V30 39 1 6 35
M  V30 40 1 6 36
M  V30 41 1 8 37
M  V30 42 1 8 38
M  V30 43 1 10 39
M  V30 44 1 11 40
M  V30 45 1 13 41
M  V30 46 1 17 42
M  V30 47 1 19 43
M  V30 48 1 22 44
M  V30 49 1 23 45
M  V30 50 1 25 46
M  V30 51 1 27 47
M  V30 52 1 28 48
M  V30 53 1 28 49
M  V30 54 1 29 50
M  V30 55 1 29 51
M  V30 END BOND
M  V30 END CTAB
M  END
>  <Dataset>  (361) 
ChEMBL_Kinases

>  <Ligand_Instance>  (361) 
nan

>  <PDB_ID>  (361) 
nan

>  <Standardized_SMILES>  (361) 
CC(=O)N1CCN(Cc2ccc3[nH]c(-c4n[nH]c5cc(Cl)ccc45)cc3c2)CC1

>  <Name>  (361) 
nan

>  <Pocket>  (361) 
nan

>  <ATP_Site>  (361) 
nan

>  <Peripheral>  (361) 
nan

>  <Num_H_Atoms_ProtBoundConf>  (361) 
nan

>  <Num_Resolved_Atoms>  (361) 
nan

>  <Num_Not_Resolved_Atoms>  (361) 
nan

$$$$
CHEMBL589337
     RDKit          3D

  0  0  0  0  0  0  0  0  0  0999 V3000
M  V30 BEGIN CTAB
M  V30 COUNTS 48 50 0 0 0
M  V30 BEGIN ATOM
M  V30 1 C -0.469434 -4.308373 2.795068 0
M  V30 2 N 0.243341 -4.113156 1.571064 0
M  V30 3 C 1.113647 -2.949989 1.565970 0
M  V30 4 C 1.834511 -2.881717 0.250529 0
M  V30 5 C 1.006455 -2.248138 -0.835212 0
M  V30 6 N -0.262852 -1.804048 -0.218044 0
M  V30 7 C -0.323765 -0.417595 0.014657 0
M  V30 8 N 0.878812 0.217383 0.137274 0
M  V30 9 C 1.035167 1.501342 0.404023 0
M  V30 10 C 2.378708 2.052731 0.507585 0
M  V30 11 C 2.666276 3.370279 0.780421 0
M  V30 12 C 3.936023 3.885186 0.876939 0
M  V30 13 N 4.975953 3.052531 0.693857 0
M  V30 14 C 4.770011 1.755589 0.424613 0
M  V30 15 C 3.492997 1.248604 0.329823 0
M  V30 16 C -0.057089 2.305160 0.580834 0
M  V30 17 N -1.250721 1.712618 0.466054 0
M  V30 18 C -1.380922 0.417695 0.196046 0
M  V30 19 N -2.685339 -0.122874 0.037617 0
M  V30 20 C -3.838703 0.727109 0.237440 0
M  V30 21 C -3.944432 1.221821 1.656928 0
M  V30 22 O -5.087352 2.026633 1.731381 0
M  V30 23 C -1.223011 -2.811934 0.090062 0
M  V30 24 C -0.568151 -4.180734 0.396084 0
M  V30 25 H 0.010048 -3.809505 3.663743 0
M  V30 26 H -0.584947 -5.410838 3.008452 0
M  V30 27 H -1.508453 -3.914964 2.685321 0
M  V30 28 H 1.853443 -3.098109 2.381107 0
M  V30 29 H 0.495977 -2.050496 1.733351 0
M  V30 30 H 2.754424 -2.269002 0.390448 0
M  V30 31 H 2.093608 -3.907459 -0.097843 0
M  V30 32 H 0.780061 -2.894567 -1.686805 0
M  V30 33 H 1.521884 -1.335338 -1.244691 0
M  V30 34 H 1.864193 4.058149 0.931253 0
M  V30 35 H 4.162655 4.902551 1.087562 0
M  V30 36 H 5.630399 1.114389 0.283180 0
M  V30 37 H 3.378198 0.181657 0.107767 0
M  V30 38 H -0.024064 3.346044 0.798474 0
M  V30 39 H -2.974459 -1.084570 -0.225789 0
M  V30 40 H -3.723738 1.574971 -0.481514 0
M  V30 41 H -4.784810 0.191252 0.027984 0
M  V30 42 H -3.046343 1.757718 1.961686 0
M  V30 43 H -4.175117 0.339111 2.299447 0
M  V30 44 H -5.239580 2.545978 0.905181 0
M  V30 45 H -1.823578 -2.629125 1.011205 0
M  V30 46 H -1.826010 -3.032734 -0.810749 0
M  V30 47 H -1.395315 -4.893802 0.528454 0
M  V30 48 H 0.065420 -4.504646 -0.453507 0
M  V30 END ATOM
M  V30 BEGIN BOND
M  V30 1 1 1 2
M  V30 2 1 2 3
M  V30 3 1 3 4
M  V30 4 1 4 5
M  V30 5 1 5 6
M  V30 6 1 6 7
M  V30 7 2 7 8
M  V30 8 1 8 9
M  V30 9 1 9 10
M  V30 10 2 10 11
M  V30 11 1 11 12
M  V30 12 2 12 13
M  V30 13 1 13 14
M  V30 14 2 14 15
M  V30 15 2 9 16
M  V30 16 1 16 17
M  V30 17 2 17 18
M  V30 18 1 18 19
M  V30 19 1 19 20
M  V30 20 1 20 21
M  V30 21 1 21 22
M  V30 22 1 6 23
M  V30 23 1 23 24
M  V30 24 1 24 2
M  V30 25 1 18 7
M  V30 26 1 15 10
M  V30 27 1 1 25
M  V30 28 1 1 26
M  V30 29 1 1 27
M  V30 30 1 3 28
M  V30 31 1 3 29
M  V30 32 1 4 30
M  V30 33 1 4 31
M  V30 34 1 5 32
M  V30 35 1 5 33
M  V30 36 1 11 34
M  V30 37 1 12 35
M  V30 38 1 14 36
M  V30 39 1 15 37
M  V30 40 1 16 38
M  V30 41 1 19 39
M  V30 42 1 20 40
M  V30 43 1 20 41
M  V30 44 1 21 42
M  V30 45 1 21 43
M  V30 46 1 22 44
M  V30 47 1 23 45
M  V30 48 1 23 46
M  V30 49 1 24 47
M  V30 50 1 24 48
M  V30 END BOND
M  V30 END CTAB
M  END
>  <Dataset>  (362) 
ChEMBL_Kinases

>  <Ligand_Instance>  (362) 
nan

>  <PDB_ID>  (362) 
nan

>  <Standardized_SMILES>  (362) 
CN1CCCN(c2nc(-c3ccncc3)cnc2NCCO)CC1

>  <Name>  (362) 
nan

>  <Pocket>  (362) 
nan

>  <ATP_Site>  (362) 
nan

>  <Peripheral>  (362) 
nan

>  <Num_H_Atoms_ProtBoundConf>  (362) 
nan

>  <Num_Resolved_Atoms>  (362) 
nan

>  <Num_Not_Resolved_Atoms>  (362) 
nan

$$$$
CHEMBL3754123
     RDKit          3D

  0  0  0  0  0  0  0  0  0  0999 V3000
M  V30 BEGIN CTAB
M  V30 COUNTS 33 35 0 0 0
M  V30 BEGIN ATOM
M  V30 1 N -0.319708 -4.622234 5.547912 0
M  V30 2 C -0.281870 -3.914602 4.314245 0
M  V30 3 N 0.578313 -2.908453 4.062975 0
M  V30 4 C 0.633228 -2.225992 2.907700 0
M  V30 5 C -0.292816 -2.643348 1.951301 0
M  V30 6 C -0.335112 -1.970612 0.633682 0
M  V30 7 C -0.716349 -2.735220 -0.447713 0
M  V30 8 N -0.761812 -2.138770 -1.662427 0
M  V30 9 C -0.443499 -0.854351 -1.780023 0
M  V30 10 N -0.509509 -0.281725 -3.080366 0
M  V30 11 C -0.055336 -0.038780 -0.737512 0
M  V30 12 C 0.294333 1.373045 -0.865896 0
M  V30 13 C 1.416000 1.880645 -0.232561 0
M  V30 14 C 1.713020 3.239589 -0.382700 0
M  V30 15 C 0.920090 4.076209 -1.140822 0
M  V30 16 Cl 1.383173 5.780076 -1.266644 0
M  V30 17 C -0.204906 3.561873 -1.774822 0
M  V30 18 C -0.497976 2.223365 -1.627262 0
M  V30 19 C -0.004597 -0.633519 0.506409 0
M  V30 20 C -1.178390 -3.671966 2.196682 0
M  V30 21 N -1.186831 -4.324869 3.384033 0
M  V30 22 H -0.923444 -4.062367 6.193519 0
M  V30 23 H 0.146027 -5.532880 5.819003 0
M  V30 24 H 1.328416 -1.424711 2.725968 0
M  V30 25 H -0.979318 -3.788806 -0.362783 0
M  V30 26 H -1.083425 0.186294 -3.814548 0
M  V30 27 H 0.462302 -0.386973 -3.447518 0
M  V30 28 H 2.033714 1.221856 0.359767 0
M  V30 29 H 2.601967 3.544803 0.144036 0
M  V30 30 H -0.791708 4.259325 -2.356207 0
M  V30 31 H -1.385738 1.883879 -2.144992 0
M  V30 32 H 0.292337 -0.046950 1.362755 0
M  V30 33 H -1.909595 -4.005903 1.449916 0
M  V30 END ATOM
M  V30 BEGIN BOND
M  V30 1 1 1 2
M  V30 2 2 2 3
M  V30 3 1 3 4
M  V30 4 2 4 5
M  V30 5 1 5 6
M  V30 6 2 6 7
M  V30 7 1 7 8
M  V30 8 2 8 9
M  V30 9 1 9 10
M  V30 10 1 9 11
M  V30 11 1 11 12
M  V30 12 2 12 13
M  V30 13 1 13 14
M  V30 14 2 14 15
M  V30 15 1 15 16
M  V30 16 1 15 17
M  V30 17 2 17 18
M  V30 18 2 11 19
M  V30 19 1 5 20
M  V30 20 2 20 21
M  V30 21 1 21 2
M  V30 22 1 19 6
M  V30 23 1 18 12
M  V30 24 1 1 22
M  V30 25 1 1 23
M  V30 26 1 4 24
M  V30 27 1 7 25
M  V30 28 1 10 26
M  V30 29 1 10 27
M  V30 30 1 13 28
M  V30 31 1 14 29
M  V30 32 1 17 30
M  V30 33 1 18 31
M  V30 34 1 19 32
M  V30 35 1 20 33
M  V30 END BOND
M  V30 END CTAB
M  END
>  <Dataset>  (363) 
ChEMBL_Kinases

>  <Ligand_Instance>  (363) 
nan

>  <PDB_ID>  (363) 
nan

>  <Standardized_SMILES>  (363) 
Nc1ncc(-c2cnc(N)c(-c3ccc(Cl)cc3)c2)cn1

>  <Name>  (363) 
nan

>  <Pocket>  (363) 
nan

>  <ATP_Site>  (363) 
nan

>  <Peripheral>  (363) 
nan

>  <Num_H_Atoms_ProtBoundConf>  (363) 
nan

>  <Num_Resolved_Atoms>  (363) 
nan

>  <Num_Not_Resolved_Atoms>  (363) 
nan

$$$$
CHEMBL375410
     RDKit          3D

  0  0  0  0  0  0  0  0  0  0999 V3000
M  V30 BEGIN CTAB
M  V30 COUNTS 36 37 0 0 0
M  V30 BEGIN ATOM
M  V30 1 C 0.504334 -1.924186 3.112602 0
M  V30 2 C 0.705394 -2.203009 1.615664 0
M  V30 3 C 1.573366 -3.391574 1.510279 0
M  V30 4 O 2.904933 -3.186726 1.871410 0
M  V30 5 N 0.979553 -1.045835 0.877784 0
M  V30 6 C 1.734210 -0.856678 -0.115153 0
M  V30 7 N 2.472778 -1.910579 -0.657500 0
M  V30 8 C 1.749878 0.493986 -0.603935 0
M  V30 9 C 2.532063 0.788674 -1.663196 0
M  V30 10 O 3.383946 0.030775 -2.442584 0
M  V30 11 N 2.605048 2.123432 -2.215637 0
M  V30 12 S 1.436130 3.020439 -1.096611 0
M  V30 13 C 1.035014 1.647025 -0.129611 0
M  V30 14 N 0.153268 1.553587 0.977015 0
M  V30 15 C -1.217990 1.261589 0.704401 0
M  V30 16 C -2.171750 1.146052 1.707370 0
M  V30 17 C -3.492584 0.865712 1.435866 0
M  V30 18 C -3.925811 0.686331 0.139120 0
M  V30 19 I -5.906047 0.255028 -0.429987 0
M  V30 20 C -3.009762 0.792587 -0.889336 0
M  V30 21 C -1.690488 1.075077 -0.582837 0
M  V30 22 H 1.464711 -1.723753 3.620484 0
M  V30 23 H -0.020824 -2.822957 3.510831 0
M  V30 24 H -0.208511 -1.076085 3.197075 0
M  V30 25 H -0.325874 -2.544669 1.295732 0
M  V30 26 H 1.448565 -4.014485 0.596110 0
M  V30 27 H 1.204890 -4.099537 2.321028 0
M  V30 28 H 3.433476 -3.904816 1.403691 0
M  V30 29 H 3.419129 -1.600494 -0.302357 0
M  V30 30 H 2.349485 -2.771982 -1.225112 0
M  V30 31 H 3.068895 -0.338455 -3.332095 0
M  V30 32 H 0.409247 1.677487 1.972068 0
M  V30 33 H -1.877743 1.278358 2.731702 0
M  V30 34 H -4.252788 0.771156 2.199964 0
M  V30 35 H -3.283784 0.663350 -1.928621 0
M  V30 36 H -0.970689 1.158305 -1.390642 0
M  V30 END ATOM
M  V30 BEGIN BOND
M  V30 1 1 1 2
M  V30 2 1 2 3
M  V30 3 1 3 4
M  V30 4 1 2 5
M  V30 5 2 5 6
M  V30 6 1 6 7
M  V30 7 1 6 8
M  V30 8 1 8 9
M  V30 9 1 9 10
M  V30 10 2 9 11
M  V30 11 1 11 12
M  V30 12 1 12 13
M  V30 13 1 13 14
M  V30 14 1 14 15
M  V30 15 2 15 16
M  V30 16 1 16 17
M  V30 17 2 17 18
M  V30 18 1 18 19
M  V30 19 1 18 20
M  V30 20 2 20 21
M  V30 21 2 13 8
M  V30 22 1 21 15
M  V30 23 1 1 22
M  V30 24 1 1 23
M  V30 25 1 1 24
M  V30 26 1 2 25
M  V30 27 1 3 26
M  V30 28 1 3 27
M  V30 29 1 4 28
M  V30 30 1 7 29
M  V30 31 1 7 30
M  V30 32 1 10 31
M  V30 33 1 14 32
M  V30 34 1 16 33
M  V30 35 1 17 34
M  V30 36 1 20 35
M  V30 37 1 21 36
M  V30 END BOND
M  V30 END CTAB
M  END
>  <Dataset>  (364) 
ChEMBL_Kinases

>  <Ligand_Instance>  (364) 
nan

>  <PDB_ID>  (364) 
nan

>  <Standardized_SMILES>  (364) 
CC(CO)/N=C(\N)c1c(O)nsc1Nc1ccc(I)cc1

>  <Name>  (364) 
nan

>  <Pocket>  (364) 
nan

>  <ATP_Site>  (364) 
nan

>  <Peripheral>  (364) 
nan

>  <Num_H_Atoms_ProtBoundConf>  (364) 
nan

>  <Num_Resolved_Atoms>  (364) 
nan

>  <Num_Not_Resolved_Atoms>  (364) 
nan

$$$$
CHEMBL5086200
     RDKit          3D

  0  0  0  0  0  0  0  0  0  0999 V3000
M  V30 BEGIN CTAB
M  V30 COUNTS 57 61 0 0 0
M  V30 BEGIN ATOM
M  V30 1 O 2.983383 3.202898 3.008832 0
M  V30 2 C 2.064452 2.378934 3.129256 0
M  V30 3 N 1.764121 1.944460 4.449981 0
M  V30 4 C 2.451614 2.397340 5.623961 0
M  V30 5 C 3.937423 2.098012 5.620656 0
M  V30 6 C 4.255385 0.711011 5.534543 0
M  V30 7 C 5.333144 -0.121760 5.492098 0
M  V30 8 C 5.185267 -1.473177 5.403526 0
M  V30 9 C 3.832803 -1.973291 5.357250 0
M  V30 10 S 2.826405 -0.420090 5.446816 0
M  V30 11 C 1.374836 1.927469 1.924499 0
M  V30 12 C 1.807560 2.461878 0.727443 0
M  V30 13 C 1.207511 2.089149 -0.481752 0
M  V30 14 C 0.172294 1.174920 -0.455833 0
M  V30 15 C -0.280361 0.624144 0.732202 0
M  V30 16 C 0.338655 1.016895 1.915561 0
M  V30 17 C -1.337296 -0.344524 1.033466 0
M  V30 18 O -1.717591 -0.501339 2.220605 0
M  V30 19 C -1.953964 -1.130320 -0.033061 0
M  V30 20 C -3.067810 -1.789571 0.445700 0
M  V30 21 C -3.865853 -2.613494 -0.324850 0
M  V30 22 C -3.520334 -2.780815 -1.650713 0
M  V30 23 N -4.243598 -3.594715 -2.568029 0
M  V30 24 C -3.971162 -3.874261 -3.935882 0
M  V30 25 C -4.761467 -3.607384 -5.031278 0
M  V30 26 C -4.343638 -3.949167 -6.300116 0
M  V30 27 C -3.111628 -4.574674 -6.521352 0
M  V30 28 F -2.744506 -4.892287 -7.795073 0
M  V30 29 C -2.328331 -4.835592 -5.402183 0
M  V30 30 C -2.737184 -4.497681 -4.128566 0
M  V30 31 F -1.805145 -4.854511 -3.210489 0
M  V30 32 C -2.412316 -2.137440 -2.166490 0
M  V30 33 C -1.639972 -1.322167 -1.364299 0
M  V30 34 C -0.462859 -0.670830 -2.014407 0
M  V30 35 C -0.433394 0.808432 -1.759341 0
M  V30 36 H 0.970950 1.238267 4.520519 0
M  V30 37 H 2.039001 1.888714 6.501307 0
M  V30 38 H 2.354015 3.475392 5.749618 0
M  V30 39 H 4.310183 2.508388 6.602899 0
M  V30 40 H 4.386027 2.683127 4.800486 0
M  V30 41 H 6.247007 0.442669 5.537987 0
M  V30 42 H 6.060078 -2.106343 5.371752 0
M  V30 43 H 3.699921 -3.099058 5.283502 0
M  V30 44 H 2.605058 3.178586 0.610003 0
M  V30 45 H 1.494270 2.465455 -1.447199 0
M  V30 46 H 0.006651 0.605797 2.842330 0
M  V30 47 H -3.355399 -1.675061 1.470758 0
M  V30 48 H -4.737110 -3.131551 0.042513 0
M  V30 49 H -5.114772 -4.085391 -2.241006 0
M  V30 50 H -5.690290 -3.127998 -4.792918 0
M  V30 51 H -4.995152 -3.721450 -7.130654 0
M  V30 52 H -1.394900 -5.321339 -5.678748 0
M  V30 53 H -2.019334 -2.168273 -3.172684 0
M  V30 54 H 0.493930 -1.104222 -1.699711 0
M  V30 55 H -0.584754 -0.793073 -3.111007 0
M  V30 56 H -1.509702 1.111781 -1.679436 0
M  V30 57 H -0.000109 1.345379 -2.611904 0
M  V30 END ATOM
M  V30 BEGIN BOND
M  V30 1 2 1 2
M  V30 2 1 2 3
M  V30 3 1 3 4
M  V30 4 1 4 5
M  V30 5 1 5 6
M  V30 6 2 6 7
M  V30 7 1 7 8
M  V30 8 2 8 9
M  V30 9 1 9 10
M  V30 10 1 2 11
M  V30 11 2 11 12
M  V30 12 1 12 13
M  V30 13 2 13 14
M  V30 14 1 14 15
M  V30 15 2 15 16
M  V30 16 1 15 17
M  V30 17 2 17 18
M  V30 18 1 17 19
M  V30 19 2 19 20
M  V30 20 1 20 21
M  V30 21 2 21 22
M  V30 22 1 22 23
M  V30 23 1 23 24
M  V30 24 2 24 25
M  V30 25 1 25 26
M  V30 26 2 26 27
M  V30 27 1 27 28
M  V30 28 1 27 29
M  V30 29 2 29 30
M  V30 30 1 30 31
M  V30 31 1 22 32
M  V30 32 2 32 33
M  V30 33 1 33 34
M  V30 34 1 34 35
M  V30 35 1 10 6
M  V30 36 1 16 11
M  V30 37 1 33 19
M  V30 38 1 35 14
M  V30 39 1 30 24
M  V30 40 1 3 36
M  V30 41 1 4 37
M  V30 42 1 4 38
M  V30 43 1 5 39
M  V30 44 1 5 40
M  V30 45 1 7 41
M  V30 46 1 8 42
M  V30 47 1 9 43
M  V30 48 1 12 44
M  V30 49 1 13 45
M  V30 50 1 16 46
M  V30 51 1 20 47
M  V30 52 1 21 48
M  V30 53 1 23 49
M  V30 54 1 25 50
M  V30 55 1 26 51
M  V30 56 1 29 52
M  V30 57 1 32 53
M  V30 58 1 34 54
M  V30 59 1 34 55
M  V30 60 1 35 56
M  V30 61 1 35 57
M  V30 END BOND
M  V30 END CTAB
M  END
>  <Dataset>  (365) 
ChEMBL_Kinases

>  <Ligand_Instance>  (365) 
nan

>  <PDB_ID>  (365) 
nan

>  <Standardized_SMILES>  (365) 
O=C(NCCc1cccs1)c1ccc2c(c1)C(=O)c1ccc(Nc3ccc(F)cc3F)cc1CC2

>  <Name>  (365) 
nan

>  <Pocket>  (365) 
nan

>  <ATP_Site>  (365) 
nan

>  <Peripheral>  (365) 
nan

>  <Num_H_Atoms_ProtBoundConf>  (365) 
nan

>  <Num_Resolved_Atoms>  (365) 
nan

>  <Num_Not_Resolved_Atoms>  (365) 
nan

$$$$
CHEMBL3753955
     RDKit          3D

  0  0  0  0  0  0  0  0  0  0999 V3000
M  V30 BEGIN CTAB
M  V30 COUNTS 30 32 0 0 0
M  V30 BEGIN ATOM
M  V30 1 N 2.054342 -1.345380 2.672711 0
M  V30 2 C 1.372943 -1.097835 1.756767 0
M  V30 3 C 0.560515 -0.790950 0.635408 0
M  V30 4 C 1.098751 -1.033188 -0.541359 0
M  V30 5 C 2.414777 -1.576716 -0.833175 0
M  V30 6 C 2.910471 -2.689295 -0.148589 0
M  V30 7 C 4.177255 -3.124136 -0.473706 0
M  V30 8 C 4.935625 -2.472445 -1.453577 0
M  V30 9 N 4.419116 -1.409937 -2.083931 0
M  V30 10 C 3.188429 -0.935638 -1.812749 0
M  V30 11 C -0.781916 -0.250741 0.684442 0
M  V30 12 C -1.611344 0.029883 -0.390314 0
M  V30 13 N -2.788712 0.536619 0.008426 0
M  V30 14 C -2.756281 0.599310 1.358611 0
M  V30 15 C -3.659475 1.027416 2.305719 0
M  V30 16 C -3.426091 1.009719 3.662594 0
M  V30 17 C -2.196998 0.526087 4.099128 0
M  V30 18 C -1.310355 0.105061 3.139723 0
M  V30 19 C -1.520235 0.114207 1.781697 0
M  V30 20 H 0.521166 -0.820899 -1.453259 0
M  V30 21 H 2.314014 -3.199712 0.609928 0
M  V30 22 H 4.540779 -4.002331 0.079540 0
M  V30 23 H 5.938522 -2.832492 -1.693473 0
M  V30 24 H 2.849927 -0.073588 -2.370973 0
M  V30 25 H -1.403722 -0.115593 -1.449187 0
M  V30 26 H -3.595527 0.832693 -0.604820 0
M  V30 27 H -4.640818 1.417029 2.046185 0
M  V30 28 H -4.133007 1.347799 4.412973 0
M  V30 29 H -1.916741 0.469256 5.147962 0
M  V30 30 H -0.352538 -0.261344 3.490202 0
M  V30 END ATOM
M  V30 BEGIN BOND
M  V30 1 3 1 2
M  V30 2 1 2 3
M  V30 3 2 3 4
M  V30 4 1 4 5
M  V30 5 2 5 6
M  V30 6 1 6 7
M  V30 7 2 7 8
M  V30 8 1 8 9
M  V30 9 2 9 10
M  V30 10 1 3 11
M  V30 11 2 11 12
M  V30 12 1 12 13
M  V30 13 1 13 14
M  V30 14 2 14 15
M  V30 15 1 15 16
M  V30 16 2 16 17
M  V30 17 1 17 18
M  V30 18 2 18 19
M  V30 19 1 10 5
M  V30 20 1 19 11
M  V30 21 1 19 14
M  V30 22 1 4 20
M  V30 23 1 6 21
M  V30 24 1 7 22
M  V30 25 1 8 23
M  V30 26 1 10 24
M  V30 27 1 12 25
M  V30 28 1 13 26
M  V30 29 1 15 27
M  V30 30 1 16 28
M  V30 31 1 17 29
M  V30 32 1 18 30
M  V30 END BOND
M  V30 END CTAB
M  END
>  <Dataset>  (366) 
ChEMBL_Kinases

>  <Ligand_Instance>  (366) 
nan

>  <PDB_ID>  (366) 
nan

>  <Standardized_SMILES>  (366) 
N#C/C(=C\c1cccnc1)c1c[nH]c2ccccc12

>  <Name>  (366) 
nan

>  <Pocket>  (366) 
nan

>  <ATP_Site>  (366) 
nan

>  <Peripheral>  (366) 
nan

>  <Num_H_Atoms_ProtBoundConf>  (366) 
nan

>  <Num_Resolved_Atoms>  (366) 
nan

>  <Num_Not_Resolved_Atoms>  (366) 
nan

$$$$
CHEMBL3753916
     RDKit          3D

  0  0  0  0  0  0  0  0  0  0999 V3000
M  V30 BEGIN CTAB
M  V30 COUNTS 44 46 0 0 0
M  V30 BEGIN ATOM
M  V30 1 C -1.803961 -3.449760 1.070334 0
M  V30 2 C -2.370736 -2.266311 0.256819 0
M  V30 3 C -1.892890 -2.374895 -1.197491 0
M  V30 4 C -2.446599 -1.216703 -2.037616 0
M  V30 5 O -1.816240 -1.313942 -3.383873 0
M  V30 6 C -0.366964 -1.008049 -3.330402 0
M  V30 7 S 0.915254 -1.526330 -4.307499 0
M  V30 8 N 2.277588 -0.663969 -3.401189 0
M  V30 9 C 1.552424 -0.035825 -2.415944 0
M  V30 10 C 2.257053 0.752324 -1.534755 0
M  V30 11 C 1.593308 1.465227 -0.576016 0
M  V30 12 C 1.842650 1.936612 0.792806 0
M  V30 13 C 1.742846 2.929743 1.654667 0
M  V30 14 C 1.673178 2.817063 3.037351 0
M  V30 15 C 1.714965 1.586608 3.514493 0
M  V30 16 O 1.650111 1.102642 4.703260 0
M  V30 17 C 1.580983 0.636111 5.950701 0
M  V30 18 C 1.825015 0.416919 2.860418 0
M  V30 19 O 1.898623 -0.956864 3.232139 0
M  V30 20 C 2.070844 -1.934828 2.213949 0
M  V30 21 C 1.899713 0.601680 1.453871 0
M  V30 22 C 0.188541 1.308104 -0.601104 0
M  V30 23 N -0.391787 0.479131 -1.499410 0
M  V30 24 C 0.229720 -0.231622 -2.424884 0
M  V30 25 H -2.582914 -3.913663 1.682978 0
M  V30 26 H -1.291371 -4.159785 0.415687 0
M  V30 27 H -1.024835 -3.047286 1.750845 0
M  V30 28 H -1.934759 -1.384947 0.715761 0
M  V30 29 H -3.430523 -2.266782 0.269417 0
M  V30 30 H -0.817491 -2.552970 -1.299582 0
M  V30 31 H -2.396377 -3.330303 -1.577798 0
M  V30 32 H -3.535485 -1.479206 -2.230011 0
M  V30 33 H -2.391551 -0.327685 -1.579520 0
M  V30 34 H 3.335837 0.946275 -1.430342 0
M  V30 35 H 1.741876 3.811654 0.988663 0
M  V30 36 H 1.557777 3.684444 3.540418 0
M  V30 37 H 1.014585 1.269504 6.673762 0
M  V30 38 H 0.963757 -0.342552 5.953349 0
M  V30 39 H 2.555897 0.201382 6.444580 0
M  V30 40 H 2.955496 -1.621625 1.602264 0
M  V30 41 H 2.184168 -2.930767 2.621843 0
M  V30 42 H 1.184590 -1.835675 1.553593 0
M  V30 43 H 1.998245 -0.248153 0.734406 0
M  V30 44 H -0.512672 1.804254 0.016647 0
M  V30 END ATOM
M  V30 BEGIN BOND
M  V30 1 1 1 2
M  V30 2 1 2 3
M  V30 3 1 3 4
M  V30 4 1 4 5
M  V30 5 1 5 6
M  V30 6 1 6 7
M  V30 7 1 7 8
M  V30 8 2 8 9
M  V30 9 1 9 10
M  V30 10 2 10 11
M  V30 11 1 11 12
M  V30 12 2 12 13
M  V30 13 1 13 14
M  V30 14 2 14 15
M  V30 15 1 15 16
M  V30 16 1 16 17
M  V30 17 1 15 18
M  V30 18 1 18 19
M  V30 19 1 19 20
M  V30 20 2 18 21
M  V30 21 1 11 22
M  V30 22 2 22 23
M  V30 23 1 23 24
M  V30 24 2 24 6
M  V30 25 1 24 9
M  V30 26 1 21 12
M  V30 27 1 1 25
M  V30 28 1 1 26
M  V30 29 1 1 27
M  V30 30 1 2 28
M  V30 31 1 2 29
M  V30 32 1 3 30
M  V30 33 1 3 31
M  V30 34 1 4 32
M  V30 35 1 4 33
M  V30 36 1 10 34
M  V30 37 1 13 35
M  V30 38 1 14 36
M  V30 39 1 17 37
M  V30 40 1 17 38
M  V30 41 1 17 39
M  V30 42 1 20 40
M  V30 43 1 20 41
M  V30 44 1 20 42
M  V30 45 1 21 43
M  V30 46 1 22 44
M  V30 END BOND
M  V30 END CTAB
M  END
>  <Dataset>  (367) 
ChEMBL_Kinases

>  <Ligand_Instance>  (367) 
nan

>  <PDB_ID>  (367) 
nan

>  <Standardized_SMILES>  (367) 
CCCCOc1snc2cc(-c3ccc(OC)c(OC)c3)cnc12

>  <Name>  (367) 
nan

>  <Pocket>  (367) 
nan

>  <ATP_Site>  (367) 
nan

>  <Peripheral>  (367) 
nan

>  <Num_H_Atoms_ProtBoundConf>  (367) 
nan

>  <Num_Resolved_Atoms>  (367) 
nan

>  <Num_Not_Resolved_Atoms>  (367) 
nan

$$$$
CHEMBL589118
     RDKit          3D

  0  0  0  0  0  0  0  0  0  0999 V3000
M  V30 BEGIN CTAB
M  V30 COUNTS 57 59 0 0 0
M  V30 BEGIN ATOM
M  V30 1 N 8.507061 -3.517153 4.527807 0
M  V30 2 C 7.499170 -3.470285 3.943757 0
M  V30 3 C 6.260423 -3.422637 3.220972 0
M  V30 4 C 5.371143 -4.456666 3.336824 0
M  V30 5 C 4.196622 -4.367302 2.625502 0
M  V30 6 C 3.977667 -3.256113 1.842581 0
M  V30 7 C 4.845251 -2.199830 1.701574 0
M  V30 8 N 4.658272 -1.041428 0.909536 0
M  V30 9 C 3.569912 -0.696823 0.098522 0
M  V30 10 O 2.599804 -1.451152 0.006061 0
M  V30 11 N 3.506059 0.497967 -0.647189 0
M  V30 12 C 2.414607 0.915551 -1.498233 0
M  V30 13 C 1.326944 1.419035 -0.625038 0
M  V30 14 C 1.444324 2.778325 -0.305401 0
M  V30 15 C 0.521777 3.420214 0.489649 0
M  V30 16 C -0.573388 2.742049 1.012813 0
M  V30 17 C -0.665850 1.404578 0.683056 0
M  V30 18 C -1.814237 0.691352 1.228567 0
M  V30 19 O -2.635766 1.313093 1.949246 0
M  V30 20 N -2.102697 -0.696713 1.012045 0
M  V30 21 C -3.258417 -1.284409 1.595352 0
M  V30 22 C -4.577236 -0.744220 1.214430 0
M  V30 23 C -4.992327 -0.822376 -0.201989 0
M  V30 24 C -5.078465 -2.195109 -0.771480 0
M  V30 25 C -4.473023 -2.179862 -2.179044 0
M  V30 26 C -4.980199 -1.031026 -2.984665 0
M  V30 27 N -4.646720 0.222465 -2.384830 0
M  V30 28 C -4.069339 0.042047 -1.057339 0
M  V30 29 C 0.240687 0.752860 -0.104443 0
M  V30 30 C 5.995267 -2.337948 2.428129 0
M  V30 31 H 5.633924 -5.286164 3.976985 0
M  V30 32 H 3.469291 -5.164177 2.691145 0
M  V30 33 H 3.040318 -3.245219 1.309872 0
M  V30 34 H 5.417080 -0.322395 0.905800 0
M  V30 35 H 4.332148 1.166909 -0.588357 0
M  V30 36 H 2.058409 0.002402 -2.027873 0
M  V30 37 H 2.737191 1.698825 -2.208239 0
M  V30 38 H 2.265708 3.402190 -0.664298 0
M  V30 39 H 0.624727 4.465932 0.726135 0
M  V30 40 H -1.282989 3.269227 1.634131 0
M  V30 41 H -1.432953 -1.233130 0.417332 0
M  V30 42 H -3.198883 -1.207932 2.723693 0
M  V30 43 H -3.261974 -2.377900 1.412206 0
M  V30 44 H -4.712184 0.299412 1.629299 0
M  V30 45 H -5.341392 -1.327541 1.815212 0
M  V30 46 H -6.007666 -0.344585 -0.352673 0
M  V30 47 H -6.128468 -2.515465 -0.862710 0
M  V30 48 H -4.515279 -2.975672 -0.230762 0
M  V30 49 H -4.697247 -3.133752 -2.700799 0
M  V30 50 H -3.368105 -2.113736 -2.109353 0
M  V30 51 H -6.062204 -1.114310 -3.213972 0
M  V30 52 H -4.479225 -1.092337 -3.986822 0
M  V30 53 H -3.950642 0.733993 -2.965510 0
M  V30 54 H -4.027889 1.042837 -0.589581 0
M  V30 55 H -3.050534 -0.350588 -1.129990 0
M  V30 56 H 0.180574 -0.272020 -0.369358 0
M  V30 57 H 6.752952 -1.547041 2.382803 0
M  V30 END ATOM
M  V30 BEGIN BOND
M  V30 1 3 1 2
M  V30 2 1 2 3
M  V30 3 2 3 4
M  V30 4 1 4 5
M  V30 5 2 5 6
M  V30 6 1 6 7
M  V30 7 1 7 8
M  V30 8 1 8 9
M  V30 9 2 9 10
M  V30 10 1 9 11
M  V30 11 1 11 12
M  V30 12 1 12 13
M  V30 13 2 13 14
M  V30 14 1 14 15
M  V30 15 2 15 16
M  V30 16 1 16 17
M  V30 17 1 17 18
M  V30 18 2 18 19
M  V30 19 1 18 20
M  V30 20 1 20 21
M  V30 21 1 21 22
M  V30 22 1 22 23
M  V30 23 1 23 24
M  V30 24 1 24 25
M  V30 25 1 25 26
M  V30 26 1 26 27
M  V30 27 1 27 28
M  V30 28 2 17 29
M  V30 29 2 7 30
M  V30 30 1 30 3
M  V30 31 1 29 13
M  V30 32 1 28 23
M  V30 33 1 4 31
M  V30 34 1 5 32
M  V30 35 1 6 33
M  V30 36 1 8 34
M  V30 37 1 11 35
M  V30 38 1 12 36
M  V30 39 1 12 37
M  V30 40 1 14 38
M  V30 41 1 15 39
M  V30 42 1 16 40
M  V30 43 1 20 41
M  V30 44 1 21 42
M  V30 45 1 21 43
M  V30 46 1 22 44
M  V30 47 1 22 45
M  V30 48 1 23 46
M  V30 49 1 24 47
M  V30 50 1 24 48
M  V30 51 1 25 49
M  V30 52 1 25 50
M  V30 53 1 26 51
M  V30 54 1 26 52
M  V30 55 1 27 53
M  V30 56 1 28 54
M  V30 57 1 28 55
M  V30 58 1 29 56
M  V30 59 1 30 57
M  V30 END BOND
M  V30 END CTAB
M  END
>  <Dataset>  (368) 
ChEMBL_Kinases

>  <Ligand_Instance>  (368) 
nan

>  <PDB_ID>  (368) 
nan

>  <Standardized_SMILES>  (368) 
N#Cc1cccc(NC(=O)NCc2cccc(C(=O)NCCC3CCCNC3)c2)c1

>  <Name>  (368) 
nan

>  <Pocket>  (368) 
nan

>  <ATP_Site>  (368) 
nan

>  <Peripheral>  (368) 
nan

>  <Num_H_Atoms_ProtBoundConf>  (368) 
nan

>  <Num_Resolved_Atoms>  (368) 
nan

>  <Num_Not_Resolved_Atoms>  (368) 
nan

$$$$
CHEMBL589102
     RDKit          3D

  0  0  0  0  0  0  0  0  0  0999 V3000
M  V30 BEGIN CTAB
M  V30 COUNTS 61 63 0 0 0
M  V30 BEGIN ATOM
M  V30 1 C 5.673374 0.459394 6.073224 0
M  V30 2 O 4.918004 1.609720 5.760963 0
M  V30 3 C 4.169073 1.739515 4.612434 0
M  V30 4 C 4.083945 0.744664 3.644247 0
M  V30 5 C 3.323217 0.905514 2.501487 0
M  V30 6 C 2.613723 2.049974 2.260822 0
M  V30 7 C 1.828745 2.164101 1.038419 0
M  V30 8 O 1.857744 1.179526 0.265776 0
M  V30 9 N 1.066066 3.316728 0.720064 0
M  V30 10 C 0.256724 3.523161 -0.464831 0
M  V30 11 C -1.007974 2.755039 -0.318821 0
M  V30 12 C -1.994450 3.501552 0.306622 0
M  V30 13 C -3.245919 2.911542 0.512826 0
M  V30 14 C -3.507132 1.619085 0.109154 0
M  V30 15 C -2.501932 0.897340 -0.513323 0
M  V30 16 C -2.606624 -0.482086 -1.005458 0
M  V30 17 O -1.669210 -1.135008 -1.578822 0
M  V30 18 N -3.775662 -1.270195 -0.904183 0
M  V30 19 C -3.531734 -2.554930 -1.480793 0
M  V30 20 C -3.755762 -2.856809 -2.825496 0
M  V30 21 C -3.481729 -4.141779 -3.277243 0
M  V30 22 C -2.995824 -5.114144 -2.423255 0
M  V30 23 C -2.692380 -6.492740 -2.867438 0
M  V30 24 N -1.325142 -6.645039 -3.329383 0
M  V30 25 C -0.381913 -6.310944 -2.259629 0
M  V30 26 C -1.124717 -8.015029 -3.720931 0
M  V30 27 C -2.780893 -4.783621 -1.081350 0
M  V30 28 C -3.041513 -3.518544 -0.596914 0
M  V30 29 C -1.265192 1.473500 -0.719761 0
M  V30 30 C 2.709409 3.023490 3.229124 0
M  V30 31 C 3.453367 2.893670 4.369459 0
M  V30 32 C 3.536812 3.968555 5.400969 0
M  V30 33 F 3.070235 3.477986 6.590599 0
M  V30 34 F 4.852417 4.408351 5.488651 0
M  V30 35 F 2.763484 5.021752 4.958827 0
M  V30 36 H 6.476779 0.258505 5.343248 0
M  V30 37 H 4.979031 -0.415991 6.141092 0
M  V30 38 H 6.170223 0.624749 7.055511 0
M  V30 39 H 4.668676 -0.154470 3.879129 0
M  V30 40 H 3.328659 0.072269 1.818968 0
M  V30 41 H 1.073564 4.098388 1.385025 0
M  V30 42 H 0.094927 4.578460 -0.681797 0
M  V30 43 H 0.791876 3.026876 -1.330493 0
M  V30 44 H -1.961928 4.503329 0.677960 0
M  V30 45 H -4.097888 3.397923 0.992595 0
M  V30 46 H -4.445013 1.100103 0.234315 0
M  V30 47 H -4.635257 -0.843065 -0.443659 0
M  V30 48 H -4.137455 -2.064337 -3.459829 0
M  V30 49 H -3.653104 -4.382863 -4.319780 0
M  V30 50 H -3.343139 -6.756217 -3.731639 0
M  V30 51 H -2.829955 -7.240462 -2.066387 0
M  V30 52 H -0.514778 -5.265022 -1.922093 0
M  V30 53 H 0.652619 -6.349280 -2.671391 0
M  V30 54 H -0.417460 -7.024710 -1.421944 0
M  V30 55 H -0.543470 -8.084791 -4.675615 0
M  V30 56 H -2.090930 -8.563652 -3.800847 0
M  V30 57 H -0.535019 -8.584032 -2.951532 0
M  V30 58 H -2.406857 -5.532227 -0.424127 0
M  V30 59 H -2.865326 -3.295884 0.443384 0
M  V30 60 H -0.445451 0.964191 -1.199066 0
M  V30 61 H 2.168224 3.948302 3.088364 0
M  V30 END ATOM
M  V30 BEGIN BOND
M  V30 1 1 1 2
M  V30 2 1 2 3
M  V30 3 2 3 4
M  V30 4 1 4 5
M  V30 5 2 5 6
M  V30 6 1 6 7
M  V30 7 2 7 8
M  V30 8 1 7 9
M  V30 9 1 9 10
M  V30 10 1 10 11
M  V30 11 2 11 12
M  V30 12 1 12 13
M  V30 13 2 13 14
M  V30 14 1 14 15
M  V30 15 1 15 16
M  V30 16 2 16 17
M  V30 17 1 16 18
M  V30 18 1 18 19
M  V30 19 2 19 20
M  V30 20 1 20 21
M  V30 21 2 21 22
M  V30 22 1 22 23
M  V30 23 1 23 24
M  V30 24 1 24 25
M  V30 25 1 24 26
M  V30 26 1 22 27
M  V30 27 2 27 28
M  V30 28 2 15 29
M  V30 29 1 6 30
M  V30 30 2 30 31
M  V30 31 1 31 32
M  V30 32 1 32 33
M  V30 33 1 32 34
M  V30 34 1 32 35
M  V30 35 1 31 3
M  V30 36 1 29 11
M  V30 37 1 28 19
M  V30 38 1 1 36
M  V30 39 1 1 37
M  V30 40 1 1 38
M  V30 41 1 4 39
M  V30 42 1 5 40
M  V30 43 1 9 41
M  V30 44 1 10 42
M  V30 45 1 10 43
M  V30 46 1 12 44
M  V30 47 1 13 45
M  V30 48 1 14 46
M  V30 49 1 18 47
M  V30 50 1 20 48
M  V30 51 1 21 49
M  V30 52 1 23 50
M  V30 53 1 23 51
M  V30 54 1 25 52
M  V30 55 1 25 53
M  V30 56 1 25 54
M  V30 57 1 26 55
M  V30 58 1 26 56
M  V30 59 1 26 57
M  V30 60 1 27 58
M  V30 61 1 28 59
M  V30 62 1 29 60
M  V30 63 1 30 61
M  V30 END BOND
M  V30 END CTAB
M  END
>  <Dataset>  (369) 
ChEMBL_Kinases

>  <Ligand_Instance>  (369) 
nan

>  <PDB_ID>  (369) 
nan

>  <Standardized_SMILES>  (369) 
COc1ccc(C(=O)NCc2cccc(C(=O)Nc3ccc(CN(C)C)cc3)c2)cc1C(F)(F)F

>  <Name>  (369) 
nan

>  <Pocket>  (369) 
nan

>  <ATP_Site>  (369) 
nan

>  <Peripheral>  (369) 
nan

>  <Num_H_Atoms_ProtBoundConf>  (369) 
nan

>  <Num_Resolved_Atoms>  (369) 
nan

>  <Num_Not_Resolved_Atoms>  (369) 
nan

$$$$
CHEMBL5086119
     RDKit          3D

  0  0  0  0  0  0  0  0  0  0999 V3000
M  V30 BEGIN CTAB
M  V30 COUNTS 52 55 0 0 0
M  V30 BEGIN ATOM
M  V30 1 C 0.586422 -0.094401 5.611919 0
M  V30 2 C 1.240372 -1.388242 6.040479 0
M  V30 3 C 0.615956 -2.579083 5.342819 0
M  V30 4 N 2.681925 -1.349141 5.812350 0
M  V30 5 C 3.242978 -1.182016 4.519197 0
M  V30 6 C 2.505913 -1.056599 3.362757 0
M  V30 7 C 3.028390 -0.891860 2.096905 0
M  V30 8 C 2.173358 -0.765718 0.915040 0
M  V30 9 C 2.231798 -1.347174 -0.355251 0
M  V30 10 C 1.145091 -0.853113 -1.070723 0
M  V30 11 N 0.449835 -0.009241 -0.283619 0
M  V30 12 C 1.054288 0.057574 0.920095 0
M  V30 13 C -0.660799 0.488797 -1.031068 0
M  V30 14 O -1.524550 1.300706 -0.611015 0
M  V30 15 N -0.589069 -0.119342 -2.341246 0
M  V30 16 C -1.599008 0.193066 -3.352795 0 CFG=2
M  V30 17 C -1.532443 1.620804 -3.741905 0
M  V30 18 O -2.439164 1.975707 -4.701986 0
M  V30 19 C -2.944522 -0.204847 -2.918297 0
M  V30 20 C -4.179038 0.406709 -2.902994 0
M  V30 21 C -5.294280 -0.241363 -2.424808 0
M  V30 22 C -5.247069 -1.526333 -1.937212 0
M  V30 23 C -4.023916 -2.166312 -1.939003 0
M  V30 24 Cl -4.043008 -3.797677 -1.303800 0
M  V30 25 C -2.880061 -1.516960 -2.423623 0
M  V30 26 C 0.562824 -1.003056 -2.432007 0
M  V30 27 C 4.415315 -0.847371 1.966213 0
M  V30 28 Cl 5.163241 -0.641082 0.396618 0
M  V30 29 C 5.143658 -0.974094 3.131428 0
M  V30 30 N 4.572822 -1.132722 4.339002 0
M  V30 31 H -0.262088 -0.293255 4.911205 0
M  V30 32 H 1.370492 0.550079 5.154604 0
M  V30 33 H 0.213376 0.438035 6.507503 0
M  V30 34 H 1.058073 -1.514591 7.125122 0
M  V30 35 H 1.409316 -3.090528 4.727362 0
M  V30 36 H -0.227077 -2.239780 4.710197 0
M  V30 37 H 0.285633 -3.337813 6.080834 0
M  V30 38 H 3.336823 -1.446178 6.618448 0
M  V30 39 H 1.427090 -1.086387 3.412345 0
M  V30 40 H 3.023407 -2.039722 -0.618621 0
M  V30 41 H 0.690680 0.677022 1.751715 0
M  V30 42 H -1.306481 -0.404879 -4.256297 0
M  V30 43 H -1.649032 2.332658 -2.900430 0
M  V30 44 H -0.514609 1.865057 -4.162184 0
M  V30 45 H -2.643719 1.246024 -5.316904 0
M  V30 46 H -4.134263 1.390135 -3.288756 0
M  V30 47 H -6.204764 0.317178 -2.455199 0
M  V30 48 H -6.176196 -1.949067 -1.584169 0
M  V30 49 H -2.029469 -2.178549 -2.341083 0
M  V30 50 H 1.275204 -0.513875 -3.127942 0
M  V30 51 H 0.338650 -2.031753 -2.697942 0
M  V30 52 H 6.226033 -0.941968 3.050407 0
M  V30 END ATOM
M  V30 BEGIN BOND
M  V30 1 1 1 2
M  V30 2 1 2 3
M  V30 3 1 2 4
M  V30 4 1 4 5
M  V30 5 2 5 6
M  V30 6 1 6 7
M  V30 7 1 7 8
M  V30 8 1 8 9
M  V30 9 2 9 10
M  V30 10 1 10 11
M  V30 11 1 11 12
M  V30 12 1 11 13
M  V30 13 2 13 14
M  V30 14 1 13 15
M  V30 15 1 15 16
M  V30 16 1 16 17
M  V30 17 1 17 18
M  V30 18 1 16 19
M  V30 19 2 19 20
M  V30 20 1 20 21
M  V30 21 2 21 22
M  V30 22 1 22 23
M  V30 23 1 23 24
M  V30 24 2 23 25
M  V30 25 1 15 26
M  V30 26 2 7 27
M  V30 27 1 27 28
M  V30 28 1 27 29
M  V30 29 2 29 30
M  V30 30 1 30 5
M  V30 31 2 12 8
M  V30 32 1 25 19
M  V30 33 1 26 10
M  V30 34 1 1 31
M  V30 35 1 1 32
M  V30 36 1 1 33
M  V30 37 1 2 34
M  V30 38 1 3 35
M  V30 39 1 3 36
M  V30 40 1 3 37
M  V30 41 1 4 38
M  V30 42 1 6 39
M  V30 43 1 9 40
M  V30 44 1 12 41
M  V30 45 1 16 42 CFG=3
M  V30 46 1 17 43
M  V30 47 1 17 44
M  V30 48 1 18 45
M  V30 49 1 20 46
M  V30 50 1 21 47
M  V30 51 1 22 48
M  V30 52 1 25 49
M  V30 53 1 26 50
M  V30 54 1 26 51
M  V30 55 1 29 52
M  V30 END BOND
M  V30 END CTAB
M  END
>  <Dataset>  (370) 
ChEMBL_Kinases

>  <Ligand_Instance>  (370) 
nan

>  <PDB_ID>  (370) 
nan

>  <Standardized_SMILES>  (370) 
CC(C)Nc1cc(-c2cc3n(c2)C(=O)N([C@H](CO)c2cccc(Cl)c2)C3)c(Cl)cn1

>  <Name>  (370) 
nan

>  <Pocket>  (370) 
nan

>  <ATP_Site>  (370) 
nan

>  <Peripheral>  (370) 
nan

>  <Num_H_Atoms_ProtBoundConf>  (370) 
nan

>  <Num_Resolved_Atoms>  (370) 
nan

>  <Num_Not_Resolved_Atoms>  (370) 
nan

$$$$
CHEMBL375716
     RDKit          3D

  0  0  0  0  0  0  0  0  0  0999 V3000
M  V30 BEGIN CTAB
M  V30 COUNTS 52 55 0 0 0
M  V30 BEGIN ATOM
M  V30 1 C 5.054306 -2.592689 -3.117191 0
M  V30 2 C 4.466374 -3.053168 -1.847874 0
M  V30 3 N 4.583158 -4.293526 -1.339835 0
M  V30 4 N 3.920180 -4.322147 -0.189060 0
M  V30 5 C 3.371816 -3.102867 0.053390 0
M  V30 6 C 2.602702 -2.602743 1.083703 0
M  V30 7 C 2.174640 -1.279160 1.060477 0
M  V30 8 C 2.515423 -0.435889 -0.003792 0
M  V30 9 C 2.022595 0.942313 0.051534 0
M  V30 10 C 2.665561 2.045356 -0.477547 0
M  V30 11 N 2.115858 3.278386 -0.367902 0
M  V30 12 C 0.937769 3.469473 0.253123 0
M  V30 13 C 0.227832 2.429204 0.809403 0
M  V30 14 O -0.989557 2.619845 1.452301 0
M  V30 15 C -1.621306 1.472668 1.981542 0
M  V30 16 C -2.926760 1.736150 2.663011 0 CFG=1
M  V30 17 N -3.914433 2.321058 1.813349 0
M  V30 18 C -3.363596 0.422755 3.284148 0
M  V30 19 C -3.533308 -0.638059 2.251419 0
M  V30 20 C -4.736368 -0.862998 1.602418 0
M  V30 21 C -4.882745 -1.847224 0.647068 0
M  V30 22 F -6.078931 -2.048816 0.021934 0
M  V30 23 C -3.813272 -2.658935 0.297320 0
M  V30 24 C -2.595125 -2.467825 0.920854 0
M  V30 25 C -1.399788 -3.318117 0.581464 0
M  V30 26 F -1.792381 -4.429365 -0.139779 0
M  V30 27 F -0.545391 -2.590287 -0.255858 0
M  V30 28 F -0.726002 -3.744690 1.684769 0
M  V30 29 C -2.494103 -1.486347 1.857116 0
M  V30 30 C 0.817082 1.181308 0.680225 0
M  V30 31 C 3.285758 -0.963725 -1.020364 0
M  V30 32 C 3.709031 -2.268794 -0.999587 0
M  V30 33 H 5.566038 -3.412172 -3.652283 0
M  V30 34 H 4.304485 -2.107567 -3.778705 0
M  V30 35 H 5.831178 -1.838919 -2.892474 0
M  V30 36 H 3.831298 -5.145170 0.432683 0
M  V30 37 H 2.355541 -3.283645 1.895527 0
M  V30 38 H 1.579859 -0.999826 1.918491 0
M  V30 39 H 3.610812 1.868257 -0.971990 0
M  V30 40 H 0.555070 4.477728 0.305772 0
M  V30 41 H -1.864717 0.779963 1.123250 0
M  V30 42 H -0.927278 0.942580 2.647405 0
M  V30 43 H -2.716514 2.421357 3.512377 0
M  V30 44 H -3.470092 2.699137 0.945241 0
M  V30 45 H -4.371797 3.144102 2.279452 0
M  V30 46 H -4.280944 0.525493 3.900505 0
M  V30 47 H -2.559882 0.102930 3.982128 0
M  V30 48 H -5.563941 -0.219825 1.886830 0
M  V30 49 H -3.874700 -3.443762 -0.444266 0
M  V30 50 H -1.519136 -1.360541 2.331309 0
M  V30 51 H 0.278413 0.344800 1.109581 0
M  V30 52 H 3.543630 -0.302606 -1.838923 0
M  V30 END ATOM
M  V30 BEGIN BOND
M  V30 1 1 1 2
M  V30 2 2 2 3
M  V30 3 1 3 4
M  V30 4 1 4 5
M  V30 5 2 5 6
M  V30 6 1 6 7
M  V30 7 2 7 8
M  V30 8 1 8 9
M  V30 9 2 9 10
M  V30 10 1 10 11
M  V30 11 2 11 12
M  V30 12 1 12 13
M  V30 13 1 13 14
M  V30 14 1 14 15
M  V30 15 1 15 16
M  V30 16 1 16 17
M  V30 17 1 16 18
M  V30 18 1 18 19
M  V30 19 2 19 20
M  V30 20 1 20 21
M  V30 21 1 21 22
M  V30 22 2 21 23
M  V30 23 1 23 24
M  V30 24 1 24 25
M  V30 25 1 25 26
M  V30 26 1 25 27
M  V30 27 1 25 28
M  V30 28 2 24 29
M  V30 29 2 13 30
M  V30 30 1 8 31
M  V30 31 2 31 32
M  V30 32 1 32 2
M  V30 33 1 32 5
M  V30 34 1 30 9
M  V30 35 1 29 19
M  V30 36 1 1 33
M  V30 37 1 1 34
M  V30 38 1 1 35
M  V30 39 1 4 36
M  V30 40 1 6 37
M  V30 41 1 7 38
M  V30 42 1 10 39
M  V30 43 1 12 40
M  V30 44 1 15 41
M  V30 45 1 15 42
M  V30 46 1 16 43 CFG=1
M  V30 47 1 17 44
M  V30 48 1 17 45
M  V30 49 1 18 46
M  V30 50 1 18 47
M  V30 51 1 20 48
M  V30 52 1 23 49
M  V30 53 1 29 50
M  V30 54 1 30 51
M  V30 55 1 31 52
M  V30 END BOND
M  V30 END CTAB
M  END
>  <Dataset>  (371) 
ChEMBL_Kinases

>  <Ligand_Instance>  (371) 
nan

>  <PDB_ID>  (371) 
nan

>  <Standardized_SMILES>  (371) 
Cc1n[nH]c2ccc(-c3cncc(OC[C@@H](N)Cc4cc(F)cc(C(F)(F)F)c4)c3)cc12

>  <Name>  (371) 
nan

>  <Pocket>  (371) 
nan

>  <ATP_Site>  (371) 
nan

>  <Peripheral>  (371) 
nan

>  <Num_H_Atoms_ProtBoundConf>  (371) 
nan

>  <Num_Resolved_Atoms>  (371) 
nan

>  <Num_Not_Resolved_Atoms>  (371) 
nan

$$$$
CHEMBL375649
     RDKit          3D

  0  0  0  0  0  0  0  0  0  0999 V3000
M  V30 BEGIN CTAB
M  V30 COUNTS 59 63 0 0 0
M  V30 BEGIN ATOM
M  V30 1 C 5.353011 -2.393390 6.274636 0
M  V30 2 C 5.201936 -1.201171 5.401692 0
M  V30 3 O 4.474944 -0.276927 5.846766 0
M  V30 4 N 5.827966 -1.087702 4.140212 0
M  V30 5 C 5.753933 0.015097 3.210768 0
M  V30 6 C 4.439819 -0.004452 2.505252 0
M  V30 7 C 3.289765 0.637417 2.913077 0
M  V30 8 C 2.156219 0.512378 2.138717 0
M  V30 9 N 2.085758 -0.194661 1.004935 0
M  V30 10 C 1.074114 -0.426107 0.126705 0
M  V30 11 C -0.255702 0.137025 0.314347 0
M  V30 12 C -0.284965 1.526673 0.344128 0
M  V30 13 C -1.511640 2.173024 0.519524 0
M  V30 14 N -2.648687 1.440688 0.657333 0
M  V30 15 C -2.594219 0.079522 0.624782 0
M  V30 16 C -3.849524 -0.655279 0.778068 0 CFG=1
M  V30 17 C -4.805920 0.077524 1.700669 0
M  V30 18 C -4.556413 -0.905541 -0.493046 0
M  V30 19 C -4.416720 -1.993360 -1.299355 0
M  V30 20 C -5.153921 -2.088930 -2.472491 0
M  V30 21 C -6.045319 -1.117936 -2.880623 0
M  V30 22 C -6.197636 -0.002048 -2.066765 0
M  V30 23 C -5.454422 0.064825 -0.911322 0
M  V30 24 N -1.407812 -0.541445 0.455194 0
M  V30 25 C 1.592491 -1.234843 -0.863737 0
M  V30 26 C 0.823373 -1.716840 -2.006542 0
M  V30 27 C 1.328091 -1.289432 -3.239641 0
M  V30 28 C 0.696550 -1.672834 -4.423583 0
M  V30 29 C -0.418343 -2.471841 -4.313318 0
M  V30 30 F -1.044713 -2.853065 -5.470541 0
M  V30 31 C -0.937754 -2.906872 -3.130526 0
M  V30 32 C -0.300163 -2.517293 -1.981070 0
M  V30 33 N 2.885835 -1.476375 -0.575951 0
M  V30 34 C 3.213250 -0.838074 0.583246 0
M  V30 35 C 4.390295 -0.743100 1.333168 0
M  V30 36 H 5.611443 -3.266015 5.640911 0
M  V30 37 H 6.140181 -2.255079 7.027636 0
M  V30 38 H 4.352669 -2.605070 6.712577 0
M  V30 39 H 6.412308 -1.940760 3.889429 0
M  V30 40 H 5.829651 1.000182 3.715082 0
M  V30 41 H 6.600549 -0.046970 2.525624 0
M  V30 42 H 3.354333 1.205871 3.827144 0
M  V30 43 H 1.280171 1.036955 2.505004 0
M  V30 44 H 0.611435 2.146078 0.236416 0
M  V30 45 H -1.611480 3.255937 0.552832 0
M  V30 46 H -3.648653 -1.643977 1.246118 0
M  V30 47 H -4.500501 -0.044196 2.760265 0
M  V30 48 H -4.798032 1.183059 1.519044 0
M  V30 49 H -5.855375 -0.241110 1.567417 0
M  V30 50 H -3.724920 -2.754035 -0.989498 0
M  V30 51 H -5.048991 -2.956021 -3.124509 0
M  V30 52 H -6.594241 -1.244923 -3.806203 0
M  V30 53 H -6.890522 0.771968 -2.366318 0
M  V30 54 H -5.633820 0.971746 -0.331890 0
M  V30 55 H 2.200681 -0.660892 -3.383106 0
M  V30 56 H 1.045271 -1.371577 -5.386631 0
M  V30 57 H -1.808069 -3.530728 -3.045516 0
M  V30 58 H -0.633606 -2.809331 -0.994324 0
M  V30 59 H 5.274910 -1.270703 0.967339 0
M  V30 END ATOM
M  V30 BEGIN BOND
M  V30 1 1 1 2
M  V30 2 2 2 3
M  V30 3 1 2 4
M  V30 4 1 4 5
M  V30 5 1 5 6
M  V30 6 1 6 7
M  V30 7 2 7 8
M  V30 8 1 8 9
M  V30 9 1 9 10
M  V30 10 1 10 11
M  V30 11 2 11 12
M  V30 12 1 12 13
M  V30 13 2 13 14
M  V30 14 1 14 15
M  V30 15 1 15 16
M  V30 16 1 16 17
M  V30 17 1 16 18
M  V30 18 2 18 19
M  V30 19 1 19 20
M  V30 20 2 20 21
M  V30 21 1 21 22
M  V30 22 2 22 23
M  V30 23 2 15 24
M  V30 24 2 10 25
M  V30 25 1 25 26
M  V30 26 2 26 27
M  V30 27 1 27 28
M  V30 28 2 28 29
M  V30 29 1 29 30
M  V30 30 1 29 31
M  V30 31 2 31 32
M  V30 32 1 25 33
M  V30 33 2 33 34
M  V30 34 1 34 35
M  V30 35 2 35 6
M  V30 36 1 34 9
M  V30 37 1 24 11
M  V30 38 1 32 26
M  V30 39 1 23 18
M  V30 40 1 1 36
M  V30 41 1 1 37
M  V30 42 1 1 38
M  V30 43 1 4 39
M  V30 44 1 5 40
M  V30 45 1 5 41
M  V30 46 1 7 42
M  V30 47 1 8 43
M  V30 48 1 12 44
M  V30 49 1 13 45
M  V30 50 1 16 46 CFG=1
M  V30 51 1 17 47
M  V30 52 1 17 48
M  V30 53 1 17 49
M  V30 54 1 19 50
M  V30 55 1 20 51
M  V30 56 1 21 52
M  V30 57 1 22 53
M  V30 58 1 23 54
M  V30 59 1 27 55
M  V30 60 1 28 56
M  V30 61 1 31 57
M  V30 62 1 32 58
M  V30 63 1 35 59
M  V30 END BOND
M  V30 END CTAB
M  END
>  <Dataset>  (372) 
ChEMBL_Kinases

>  <Ligand_Instance>  (372) 
nan

>  <PDB_ID>  (372) 
nan

>  <Standardized_SMILES>  (372) 
CC(=O)NCc1ccn2c(-c3ccnc([C@@H](C)c4ccccc4)n3)c(-c3ccc(F)cc3)nc2c1

>  <Name>  (372) 
nan

>  <Pocket>  (372) 
nan

>  <ATP_Site>  (372) 
nan

>  <Peripheral>  (372) 
nan

>  <Num_H_Atoms_ProtBoundConf>  (372) 
nan

>  <Num_Resolved_Atoms>  (372) 
nan

>  <Num_Not_Resolved_Atoms>  (372) 
nan

$$$$
CHEMBL375644
     RDKit          3D

  0  0  0  0  0  0  0  0  0  0999 V3000
M  V30 BEGIN CTAB
M  V30 COUNTS 43 45 0 0 0
M  V30 BEGIN ATOM
M  V30 1 N 6.591930 0.502358 2.044959 0
M  V30 2 C 5.705021 -0.207572 2.245761 0
M  V30 3 C 4.621884 -1.093722 2.513465 0
M  V30 4 N 4.414661 -2.014095 3.463538 0
M  V30 5 C 3.247219 -2.695433 3.423927 0
M  V30 6 C 2.273262 -2.510011 2.487723 0
M  V30 7 N 2.466782 -1.575552 1.510966 0
M  V30 8 C 3.654746 -0.898593 1.571746 0
M  V30 9 O 3.308898 -0.201382 0.487663 0
M  V30 10 C 3.352828 -0.432382 -0.858942 0
M  V30 11 C 2.755943 0.681323 -1.694062 0
M  V30 12 C 1.305456 0.924818 -1.321090 0
M  V30 13 C 1.066899 1.509611 0.010941 0
M  V30 14 C -0.433890 1.517828 0.352471 0
M  V30 15 O -0.914367 0.198314 0.407955 0
M  V30 16 C -2.180640 -0.216287 0.732709 0
M  V30 17 C -3.228014 0.616980 0.426100 0
M  V30 18 C -4.484268 0.170966 0.768948 0
M  V30 19 O -5.532531 1.033512 0.448240 0
M  V30 20 C -4.790147 -1.014852 1.381849 0
M  V30 21 Cl -6.459737 -1.410616 1.742118 0
M  V30 22 C -3.704056 -1.823148 1.671807 0
M  V30 23 C -2.415627 -1.421238 1.347337 0
M  V30 24 N -1.542548 -2.446061 1.755921 0
M  V30 25 C -0.264038 -2.875646 2.103116 0
M  V30 26 O -0.090017 -1.656978 1.849787 0
M  V30 27 N 1.046825 -3.218313 2.436038 0
M  V30 28 H 3.014564 -3.446893 4.155797 0
M  V30 29 H 2.909848 -1.395519 -1.195281 0
M  V30 30 H 4.428781 -0.492020 -1.180747 0
M  V30 31 H 2.744028 0.327187 -2.746285 0
M  V30 32 H 3.389409 1.567524 -1.645555 0
M  V30 33 H 0.890889 1.528588 -2.153129 0
M  V30 34 H 0.794449 -0.069483 -1.419028 0
M  V30 35 H 1.291132 2.625145 -0.080246 0
M  V30 36 H 1.658816 1.185072 0.852247 0
M  V30 37 H -0.608335 2.007243 1.317674 0
M  V30 38 H -0.930651 2.022437 -0.500776 0
M  V30 39 H -3.036962 1.562266 -0.057450 0
M  V30 40 H -5.666891 1.186549 -0.561162 0
M  V30 41 H -4.024998 -2.757444 2.162544 0
M  V30 42 H -1.772648 -3.447615 1.937921 0
M  V30 43 H 1.121062 -4.226251 2.691275 0
M  V30 END ATOM
M  V30 BEGIN BOND
M  V30 1 3 1 2
M  V30 2 1 2 3
M  V30 3 2 3 4
M  V30 4 1 4 5
M  V30 5 2 5 6
M  V30 6 1 6 7
M  V30 7 2 7 8
M  V30 8 1 8 9
M  V30 9 1 9 10
M  V30 10 1 10 11
M  V30 11 1 11 12
M  V30 12 1 12 13
M  V30 13 1 13 14
M  V30 14 1 14 15
M  V30 15 1 15 16
M  V30 16 2 16 17
M  V30 17 1 17 18
M  V30 18 1 18 19
M  V30 19 2 18 20
M  V30 20 1 20 21
M  V30 21 1 20 22
M  V30 22 2 22 23
M  V30 23 1 23 24
M  V30 24 1 24 25
M  V30 25 2 25 26
M  V30 26 1 25 27
M  V30 27 1 8 3
M  V30 28 1 23 16
M  V30 29 1 27 6
M  V30 30 1 5 28
M  V30 31 1 10 29
M  V30 32 1 10 30
M  V30 33 1 11 31
M  V30 34 1 11 32
M  V30 35 1 12 33
M  V30 36 1 12 34
M  V30 37 1 13 35
M  V30 38 1 13 36
M  V30 39 1 14 37
M  V30 40 1 14 38
M  V30 41 1 17 39
M  V30 42 1 19 40
M  V30 43 1 22 41
M  V30 44 1 24 42
M  V30 45 1 27 43
M  V30 END BOND
M  V30 END CTAB
M  END
>  <Dataset>  (373) 
ChEMBL_Kinases

>  <Ligand_Instance>  (373) 
nan

>  <PDB_ID>  (373) 
nan

>  <Standardized_SMILES>  (373) 
N#Cc1ncc2nc1OCCCCCOc1cc(O)c(Cl)cc1NC(=O)N2

>  <Name>  (373) 
nan

>  <Pocket>  (373) 
nan

>  <ATP_Site>  (373) 
nan

>  <Peripheral>  (373) 
nan

>  <Num_H_Atoms_ProtBoundConf>  (373) 
nan

>  <Num_Resolved_Atoms>  (373) 
nan

>  <Num_Not_Resolved_Atoms>  (373) 
nan

$$$$
CHEMBL3702318
     RDKit          3D

  0  0  0  0  0  0  0  0  0  0999 V3000
M  V30 BEGIN CTAB
M  V30 COUNTS 46 49 0 0 0
M  V30 BEGIN ATOM
M  V30 1 C 0.735835 -1.157006 -1.359340 0
M  V30 2 C 1.197572 -0.073878 -2.260537 0
M  V30 3 C 1.822605 -0.429827 -3.501233 0
M  V30 4 C 2.112415 -1.694142 -4.067325 0
M  V30 5 O 2.671659 -1.813545 -5.180059 0
M  V30 6 O 1.874052 -2.956775 -3.581485 0
M  V30 7 S 2.223236 1.098423 -4.298200 0
M  V30 8 C 1.574865 2.163756 -3.011421 0
M  V30 9 N 1.506345 3.506144 -2.864795 0
M  V30 10 C 0.971892 4.063501 -1.789403 0
M  V30 11 N 0.501714 3.230728 -0.852896 0
M  V30 12 C 0.539475 1.896613 -0.938757 0
M  V30 13 N -0.016116 1.240790 0.189644 0
M  V30 14 C 0.822721 0.795869 1.281022 0
M  V30 15 C 2.177307 1.074176 1.059545 0
M  V30 16 C 3.074595 0.694288 2.036442 0
M  V30 17 C 2.697102 0.067240 3.193356 0
M  V30 18 F 3.504394 -0.339682 4.200639 0
M  V30 19 C 1.350426 -0.164375 3.325116 0
M  V30 20 C 0.348950 0.155813 2.439916 0
M  V30 21 O -0.974636 0.036337 2.361332 0
M  V30 22 C -1.991915 -0.476058 3.108731 0
M  V30 23 C -2.075541 -1.938793 3.371541 0
M  V30 24 C -0.974209 -2.653723 4.069736 0
M  V30 25 C -1.353720 -4.087931 4.204771 0
M  V30 26 N -1.628311 -5.202029 4.306914 0
M  V30 27 C -3.517378 -2.500377 3.632224 0
M  V30 28 C -2.880243 -2.758675 2.342666 0
M  V30 29 C 1.077747 1.245844 -2.023222 0
M  V30 30 H -0.201111 -0.889402 -0.829455 0
M  V30 31 H 0.460350 -2.051880 -1.968460 0
M  V30 32 H 1.512449 -1.490559 -0.653994 0
M  V30 33 H 1.490406 -3.698579 -4.123410 0
M  V30 34 H 0.974465 5.136052 -1.793403 0
M  V30 35 H -1.046399 1.079444 0.234351 0
M  V30 36 H 2.587318 1.556183 0.197414 0
M  V30 37 H 4.134370 0.887627 1.910325 0
M  V30 38 H 0.978067 -0.636972 4.208130 0
M  V30 39 H -3.011842 -0.102788 2.768263 0
M  V30 40 H -1.923171 0.003712 4.138153 0
M  V30 41 H -0.754541 -2.266245 5.076752 0
M  V30 42 H -0.042732 -2.635427 3.428855 0
M  V30 43 H -4.252993 -1.712746 3.819080 0
M  V30 44 H -3.536976 -3.275321 4.448689 0
M  V30 45 H -3.306645 -2.175868 1.483495 0
M  V30 46 H -2.545559 -3.796407 2.148197 0
M  V30 END ATOM
M  V30 BEGIN BOND
M  V30 1 1 1 2
M  V30 2 2 2 3
M  V30 3 1 3 4
M  V30 4 2 4 5
M  V30 5 1 4 6
M  V30 6 1 3 7
M  V30 7 1 7 8
M  V30 8 2 8 9
M  V30 9 1 9 10
M  V30 10 2 10 11
M  V30 11 1 11 12
M  V30 12 1 12 13
M  V30 13 1 13 14
M  V30 14 2 14 15
M  V30 15 1 15 16
M  V30 16 2 16 17
M  V30 17 1 17 18
M  V30 18 1 17 19
M  V30 19 2 19 20
M  V30 20 1 20 21
M  V30 21 1 21 22
M  V30 22 1 22 23
M  V30 23 1 23 24
M  V30 24 1 24 25
M  V30 25 3 25 26
M  V30 26 1 23 27
M  V30 27 1 27 28
M  V30 28 2 12 29
M  V30 29 1 29 2
M  V30 30 1 29 8
M  V30 31 1 20 14
M  V30 32 1 28 23
M  V30 33 1 1 30
M  V30 34 1 1 31
M  V30 35 1 1 32
M  V30 36 1 6 33
M  V30 37 1 10 34
M  V30 38 1 13 35
M  V30 39 1 15 36
M  V30 40 1 16 37
M  V30 41 1 19 38
M  V30 42 1 22 39
M  V30 43 1 22 40
M  V30 44 1 24 41
M  V30 45 1 24 42
M  V30 46 1 27 43
M  V30 47 1 27 44
M  V30 48 1 28 45
M  V30 49 1 28 46
M  V30 END BOND
M  V30 END CTAB
M  END
>  <Dataset>  (374) 
ChEMBL_Kinases

>  <Ligand_Instance>  (374) 
nan

>  <PDB_ID>  (374) 
nan

>  <Standardized_SMILES>  (374) 
Cc1c(C(=O)O)sc2ncnc(Nc3ccc(F)cc3OCC3(CC#N)CC3)c12

>  <Name>  (374) 
nan

>  <Pocket>  (374) 
nan

>  <ATP_Site>  (374) 
nan

>  <Peripheral>  (374) 
nan

>  <Num_H_Atoms_ProtBoundConf>  (374) 
nan

>  <Num_Resolved_Atoms>  (374) 
nan

>  <Num_Not_Resolved_Atoms>  (374) 
nan

$$$$
CHEMBL375621
     RDKit          3D

  0  0  0  0  0  0  0  0  0  0999 V3000
M  V30 BEGIN CTAB
M  V30 COUNTS 48 52 0 0 0
M  V30 BEGIN ATOM
M  V30 1 O -0.728302 -4.256209 2.307438 0
M  V30 2 C -0.464464 -3.030433 2.193840 0
M  V30 3 C 0.789681 -2.375320 1.775828 0
M  V30 4 C 1.222516 -2.070992 0.483718 0
M  V30 5 C 2.472122 -1.449828 0.576043 0
M  V30 6 C 3.066299 -1.065973 -0.710141 0
M  V30 7 N 3.457114 -1.946337 -1.660113 0
M  V30 8 N 3.953917 -1.300985 -2.704112 0
M  V30 9 C 3.916586 0.024098 -2.497759 0
M  V30 10 C 3.357046 0.196649 -1.238660 0
M  V30 11 C 3.056662 1.407887 -0.465538 0
M  V30 12 C 2.106600 2.167224 -1.158800 0
M  V30 13 C 1.656245 3.373582 -0.622893 0
M  V30 14 C 2.160503 3.786178 0.576759 0
M  V30 15 C 3.089945 3.039992 1.251513 0
M  V30 16 Cl 3.759243 3.534286 2.792240 0
M  V30 17 C 3.543310 1.845258 0.732913 0
M  V30 18 C 2.772930 -1.388154 1.902003 0
M  V30 19 N 1.761005 -1.943242 2.600377 0
M  V30 20 N -1.400331 -1.976944 2.469523 0
M  V30 21 C -1.294419 -0.509651 2.401392 0
M  V30 22 C -2.341425 0.030869 1.474202 0
M  V30 23 C -3.365256 -0.948350 1.071729 0
M  V30 24 C -4.119564 -0.589412 -0.051167 0
M  V30 25 C -5.094677 -1.486972 -0.459215 0
M  V30 26 C -5.357022 -2.686813 0.165839 0
M  V30 27 C -4.593627 -2.999292 1.263525 0
M  V30 28 C -3.601871 -2.150715 1.727386 0
M  V30 29 C -2.729963 -2.416023 2.907713 0
M  V30 30 H 0.574458 -2.340288 -0.339474 0
M  V30 31 H 3.419636 -2.982667 -1.673196 0
M  V30 32 H 4.211035 0.897574 -3.071101 0
M  V30 33 H 1.633444 1.943849 -2.118564 0
M  V30 34 H 0.934482 4.020781 -1.076715 0
M  V30 35 H 1.876537 4.700289 1.075672 0
M  V30 36 H 4.260483 1.165238 1.146827 0
M  V30 37 H 3.714552 -0.933883 2.168177 0
M  V30 38 H 1.820247 -1.982737 3.627411 0
M  V30 39 H -0.264063 -0.288612 2.056621 0
M  V30 40 H -1.512301 -0.147212 3.416793 0
M  V30 41 H -2.848683 0.920546 1.918953 0
M  V30 42 H -1.806481 0.418923 0.576226 0
M  V30 43 H -3.954482 0.347610 -0.583778 0
M  V30 44 H -5.681860 -1.211197 -1.329816 0
M  V30 45 H -6.129066 -3.366356 -0.180313 0
M  V30 46 H -4.737679 -3.911022 1.801329 0
M  V30 47 H -3.068025 -1.765147 3.732254 0
M  V30 48 H -2.749012 -3.467280 3.241838 0
M  V30 END ATOM
M  V30 BEGIN BOND
M  V30 1 2 1 2
M  V30 2 1 2 3
M  V30 3 2 3 4
M  V30 4 1 4 5
M  V30 5 1 5 6
M  V30 6 1 6 7
M  V30 7 1 7 8
M  V30 8 2 8 9
M  V30 9 1 9 10
M  V30 10 1 10 11
M  V30 11 2 11 12
M  V30 12 1 12 13
M  V30 13 2 13 14
M  V30 14 1 14 15
M  V30 15 1 15 16
M  V30 16 2 15 17
M  V30 17 2 5 18
M  V30 18 1 18 19
M  V30 19 1 2 20
M  V30 20 1 20 21
M  V30 21 1 21 22
M  V30 22 1 22 23
M  V30 23 2 23 24
M  V30 24 1 24 25
M  V30 25 2 25 26
M  V30 26 1 26 27
M  V30 27 2 27 28
M  V30 28 1 28 29
M  V30 29 1 19 3
M  V30 30 1 29 20
M  V30 31 2 10 6
M  V30 32 1 17 11
M  V30 33 1 28 23
M  V30 34 1 4 30
M  V30 35 1 7 31
M  V30 36 1 9 32
M  V30 37 1 12 33
M  V30 38 1 13 34
M  V30 39 1 14 35
M  V30 40 1 17 36
M  V30 41 1 18 37
M  V30 42 1 19 38
M  V30 43 1 21 39
M  V30 44 1 21 40
M  V30 45 1 22 41
M  V30 46 1 22 42
M  V30 47 1 24 43
M  V30 48 1 25 44
M  V30 49 1 26 45
M  V30 50 1 27 46
M  V30 51 1 29 47
M  V30 52 1 29 48
M  V30 END BOND
M  V30 END CTAB
M  END
>  <Dataset>  (375) 
ChEMBL_Kinases

>  <Ligand_Instance>  (375) 
nan

>  <PDB_ID>  (375) 
nan

>  <Standardized_SMILES>  (375) 
O=C(c1cc(-c2[nH]ncc2-c2cccc(Cl)c2)c[nH]1)N1CCc2ccccc2C1

>  <Name>  (375) 
nan

>  <Pocket>  (375) 
nan

>  <ATP_Site>  (375) 
nan

>  <Peripheral>  (375) 
nan

>  <Num_H_Atoms_ProtBoundConf>  (375) 
nan

>  <Num_Resolved_Atoms>  (375) 
nan

>  <Num_Not_Resolved_Atoms>  (375) 
nan

$$$$
CHEMBL375609
     RDKit          3D

  0  0  0  0  0  0  0  0  0  0999 V3000
M  V30 BEGIN CTAB
M  V30 COUNTS 36 37 0 0 0
M  V30 BEGIN ATOM
M  V30 1 C -0.987194 -2.846809 0.677722 0
M  V30 2 C 0.246439 -2.455916 -0.113483 0
M  V30 3 C 1.439367 -2.942718 0.687352 0
M  V30 4 O 2.612197 -2.716775 0.010336 0
M  V30 5 N 0.300051 -1.059095 -0.391173 0
M  V30 6 C 1.028007 -0.463716 -1.251898 0
M  V30 7 N 1.922801 -1.214150 -2.075000 0
M  V30 8 C 0.847692 0.978501 -1.274905 0
M  V30 9 C 1.628462 1.641401 -2.183279 0
M  V30 10 O 2.588125 1.398067 -3.155823 0
M  V30 11 N 1.603015 3.023005 -2.344663 0
M  V30 12 S 0.327331 3.499200 -1.073309 0
M  V30 13 C 0.045668 1.781449 -0.544647 0
M  V30 14 N -0.855944 1.357855 0.422841 0
M  V30 15 C -0.801093 0.949412 1.763271 0
M  V30 16 C 0.340443 0.834204 2.517422 0
M  V30 17 C 0.401226 0.439044 3.828720 0
M  V30 18 C -0.828973 0.149374 4.368687 0
M  V30 19 C -2.037730 0.230506 3.706827 0
M  V30 20 Cl -3.565525 -0.154749 4.471140 0
M  V30 21 C -1.975306 0.635419 2.402710 0
M  V30 22 Cl -3.511887 0.748394 1.538379 0
M  V30 23 H -1.875650 -2.373584 0.233771 0
M  V30 24 H -0.859666 -2.653202 1.764185 0
M  V30 25 H -1.108315 -3.945808 0.563435 0
M  V30 26 H 0.229986 -3.026792 -1.054938 0
M  V30 27 H 1.294315 -4.018062 0.875873 0
M  V30 28 H 1.410500 -2.441314 1.678338 0
M  V30 29 H 3.045018 -3.568668 -0.257990 0
M  V30 30 H 1.568267 -1.803517 -2.854286 0
M  V30 31 H 1.449646 -1.770264 -2.828154 0
M  V30 32 H 2.404077 1.026926 -4.059601 0
M  V30 33 H -1.798442 1.380720 -0.069691 0
M  V30 34 H 1.277819 1.085183 1.999358 0
M  V30 35 H 1.318808 0.352349 4.399911 0
M  V30 36 H -0.909871 -0.182742 5.417549 0
M  V30 END ATOM
M  V30 BEGIN BOND
M  V30 1 1 1 2
M  V30 2 1 2 3
M  V30 3 1 3 4
M  V30 4 1 2 5
M  V30 5 2 5 6
M  V30 6 1 6 7
M  V30 7 1 6 8
M  V30 8 1 8 9
M  V30 9 1 9 10
M  V30 10 2 9 11
M  V30 11 1 11 12
M  V30 12 1 12 13
M  V30 13 1 13 14
M  V30 14 1 14 15
M  V30 15 2 15 16
M  V30 16 1 16 17
M  V30 17 2 17 18
M  V30 18 1 18 19
M  V30 19 1 19 20
M  V30 20 2 19 21
M  V30 21 1 21 22
M  V30 22 2 13 8
M  V30 23 1 21 15
M  V30 24 1 1 23
M  V30 25 1 1 24
M  V30 26 1 1 25
M  V30 27 1 2 26
M  V30 28 1 3 27
M  V30 29 1 3 28
M  V30 30 1 4 29
M  V30 31 1 7 30
M  V30 32 1 7 31
M  V30 33 1 10 32
M  V30 34 1 14 33
M  V30 35 1 16 34
M  V30 36 1 17 35
M  V30 37 1 18 36
M  V30 END BOND
M  V30 END CTAB
M  END
>  <Dataset>  (376) 
ChEMBL_Kinases

>  <Ligand_Instance>  (376) 
nan

>  <PDB_ID>  (376) 
nan

>  <Standardized_SMILES>  (376) 
CC(CO)/N=C(\N)c1c(O)nsc1Nc1cccc(Cl)c1Cl

>  <Name>  (376) 
nan

>  <Pocket>  (376) 
nan

>  <ATP_Site>  (376) 
nan

>  <Peripheral>  (376) 
nan

>  <Num_H_Atoms_ProtBoundConf>  (376) 
nan

>  <Num_Resolved_Atoms>  (376) 
nan

>  <Num_Not_Resolved_Atoms>  (376) 
nan

$$$$
CHEMBL5085912
     RDKit          3D

  0  0  0  0  0  0  0  0  0  0999 V3000
M  V30 BEGIN CTAB
M  V30 COUNTS 58 62 0 0 0
M  V30 BEGIN ATOM
M  V30 1 C 0.231476 -0.667585 2.855175 0
M  V30 2 C 1.397942 0.204521 2.554445 0
M  V30 3 C 2.521953 0.127831 3.353626 0
M  V30 4 N 3.565809 0.930596 3.057932 0
M  V30 5 C 3.535058 1.789027 2.019173 0
M  V30 6 N 4.630095 2.640202 1.698423 0
M  V30 7 C 5.775451 2.456482 0.841756 0
M  V30 8 C 6.759846 3.402954 0.641317 0
M  V30 9 C 7.601742 2.748808 -0.240199 0
M  V30 10 N 7.144836 1.513147 -0.533541 0
M  V30 11 N 5.999191 1.327941 0.144290 0
M  V30 12 C 5.174353 0.130800 0.116372 0
M  V30 13 N 2.418845 1.848476 1.245391 0
M  V30 14 C 1.330907 1.071780 1.482366 0
M  V30 15 N 0.180203 1.180587 0.628398 0
M  V30 16 C -1.174239 1.548776 0.997140 0
M  V30 17 C -2.001775 0.465647 0.379332 0
M  V30 18 N -3.101281 -0.294584 0.467695 0
M  V30 19 N -3.144091 -1.117342 -0.590905 0
M  V30 20 C -4.227038 -2.066754 -0.772454 0
M  V30 21 C -5.476630 -1.617852 -0.051420 0
M  V30 22 O -6.492238 -2.540131 -0.240821 0
M  V30 23 C -3.836307 -3.432256 -0.333673 0
M  V30 24 C -3.263329 -4.362500 -1.178247 0
M  V30 25 C -2.911006 -5.625315 -0.737845 0
M  V30 26 C -3.116719 -6.014235 0.569820 0
M  V30 27 C -3.686008 -5.098735 1.421178 0
M  V30 28 Cl -3.933335 -5.630230 3.081634 0
M  V30 29 C -4.040349 -3.836729 0.989288 0
M  V30 30 C -2.072952 -0.878736 -1.349168 0
M  V30 31 C -1.737988 -1.567399 -2.608866 0
M  V30 32 C -1.321082 0.120517 -0.767621 0
M  V30 33 C -0.120239 0.998321 -0.800198 0
M  V30 34 H 0.570124 -1.526626 3.505450 0
M  V30 35 H -0.183940 -1.165243 1.941167 0
M  V30 36 H -0.552626 -0.160656 3.461747 0
M  V30 37 H 2.548742 -0.562491 4.190408 0
M  V30 38 H 4.495836 3.534040 2.222118 0
M  V30 39 H 6.839637 4.391684 1.067427 0
M  V30 40 H 8.530159 3.168408 -0.658740 0
M  V30 41 H 5.140311 -0.342211 1.123622 0
M  V30 42 H 4.184851 0.339725 -0.318609 0
M  V30 43 H 5.658431 -0.618149 -0.538421 0
M  V30 44 H -1.432685 2.471446 0.434906 0
M  V30 45 H -1.344415 1.631530 2.076469 0
M  V30 46 H -4.442244 -2.054121 -1.867680 0
M  V30 47 H -5.310830 -1.425385 1.013609 0
M  V30 48 H -5.832741 -0.666181 -0.490509 0
M  V30 49 H -6.213717 -3.476774 -0.116245 0
M  V30 50 H -3.081798 -4.105664 -2.212924 0
M  V30 51 H -2.461533 -6.308150 -1.465587 0
M  V30 52 H -2.807599 -7.022789 0.818434 0
M  V30 53 H -4.483454 -3.176831 1.724846 0
M  V30 54 H -1.215671 -2.519651 -2.338695 0
M  V30 55 H -1.057240 -0.936388 -3.224762 0
M  V30 56 H -2.677483 -1.746869 -3.188274 0
M  V30 57 H 0.722088 0.532444 -1.343158 0
M  V30 58 H -0.458696 1.951020 -1.269126 0
M  V30 END ATOM
M  V30 BEGIN BOND
M  V30 1 1 1 2
M  V30 2 2 2 3
M  V30 3 1 3 4
M  V30 4 2 4 5
M  V30 5 1 5 6
M  V30 6 1 6 7
M  V30 7 2 7 8
M  V30 8 1 8 9
M  V30 9 2 9 10
M  V30 10 1 10 11
M  V30 11 1 11 12
M  V30 12 1 5 13
M  V30 13 2 13 14
M  V30 14 1 14 15
M  V30 15 1 15 16
M  V30 16 1 16 17
M  V30 17 2 17 18
M  V30 18 1 18 19
M  V30 19 1 19 20
M  V30 20 1 20 21
M  V30 21 1 21 22
M  V30 22 1 20 23
M  V30 23 2 23 24
M  V30 24 1 24 25
M  V30 25 2 25 26
M  V30 26 1 26 27
M  V30 27 1 27 28
M  V30 28 2 27 29
M  V30 29 1 19 30
M  V30 30 1 30 31
M  V30 31 2 30 32
M  V30 32 1 32 33
M  V30 33 1 14 2
M  V30 34 1 33 15
M  V30 35 1 11 7
M  V30 36 1 32 17
M  V30 37 1 29 23
M  V30 38 1 1 34
M  V30 39 1 1 35
M  V30 40 1 1 36
M  V30 41 1 3 37
M  V30 42 1 6 38
M  V30 43 1 8 39
M  V30 44 1 9 40
M  V30 45 1 12 41
M  V30 46 1 12 42
M  V30 47 1 12 43
M  V30 48 1 16 44
M  V30 49 1 16 45
M  V30 50 1 20 46
M  V30 51 1 21 47
M  V30 52 1 21 48
M  V30 53 1 22 49
M  V30 54 1 24 50
M  V30 55 1 25 51
M  V30 56 1 26 52
M  V30 57 1 29 53
M  V30 58 1 31 54
M  V30 59 1 31 55
M  V30 60 1 31 56
M  V30 61 1 33 57
M  V30 62 1 33 58
M  V30 END BOND
M  V30 END CTAB
M  END
>  <Dataset>  (377) 
ChEMBL_Kinases

>  <Ligand_Instance>  (377) 
nan

>  <PDB_ID>  (377) 
nan

>  <Standardized_SMILES>  (377) 
Cc1cnc(Nc2ccnn2C)nc1N1Cc2nn(C(CO)c3cccc(Cl)c3)c(C)c2C1

>  <Name>  (377) 
nan

>  <Pocket>  (377) 
nan

>  <ATP_Site>  (377) 
nan

>  <Peripheral>  (377) 
nan

>  <Num_H_Atoms_ProtBoundConf>  (377) 
nan

>  <Num_Resolved_Atoms>  (377) 
nan

>  <Num_Not_Resolved_Atoms>  (377) 
nan

$$$$
CHEMBL375530
     RDKit          3D

  0  0  0  0  0  0  0  0  0  0999 V3000
M  V30 BEGIN CTAB
M  V30 COUNTS 32 34 0 0 0
M  V30 BEGIN ATOM
M  V30 1 O 0.614595 -3.021844 4.014653 0
M  V30 2 C -0.656194 -3.039467 3.420095 0
M  V30 3 C -0.828233 -1.724281 2.746944 0 CFG=1
M  V30 4 O 0.160303 -1.507095 1.759338 0
M  V30 5 C -0.234917 -0.364717 1.097066 0 CFG=1
M  V30 6 N 0.196909 -0.317761 -0.289988 0
M  V30 7 C -0.496542 -0.913506 -1.272183 0
M  V30 8 N 0.143908 -0.701554 -2.451476 0
M  V30 9 C 1.240344 0.029068 -2.201963 0
M  V30 10 C 2.240330 0.522614 -3.040250 0
M  V30 11 C 3.246647 1.248036 -2.472896 0
M  V30 12 Cl 4.524746 1.890411 -3.473168 0
M  V30 13 C 3.276539 1.487820 -1.109959 0
M  V30 14 Cl 4.580036 2.421733 -0.410463 0
M  V30 15 C 2.295780 1.007873 -0.262438 0
M  V30 16 C 1.279280 0.275326 -0.834195 0
M  V30 17 C -1.755011 -0.298391 1.183436 0 CFG=2
M  V30 18 O -2.185317 0.688083 2.080907 0
M  V30 19 C -2.059149 -1.635269 1.866298 0 CFG=2
M  V30 20 O -3.236367 -1.581192 2.584851 0
M  V30 21 H 0.506096 -2.681341 4.948116 0
M  V30 22 H -0.745584 -3.858746 2.702416 0
M  V30 23 H -1.412836 -3.111830 4.214098 0
M  V30 24 H -0.791208 -0.874952 3.445751 0
M  V30 25 H 0.141286 0.529701 1.666691 0
M  V30 26 H -1.419040 -1.498041 -1.295900 0
M  V30 27 H 2.182190 0.313469 -4.104449 0
M  V30 28 H 2.308197 1.188135 0.801163 0
M  V30 29 H -2.215247 -0.216896 0.186384 0
M  V30 30 H -1.416349 1.233555 2.384302 0
M  V30 31 H -2.025036 -2.432274 1.102110 0
M  V30 32 H -3.762271 -2.400966 2.422084 0
M  V30 END ATOM
M  V30 BEGIN BOND
M  V30 1 1 1 2
M  V30 2 1 2 3
M  V30 3 1 3 4
M  V30 4 1 4 5
M  V30 5 1 5 6
M  V30 6 1 6 7
M  V30 7 2 7 8
M  V30 8 1 8 9
M  V30 9 2 9 10
M  V30 10 1 10 11
M  V30 11 1 11 12
M  V30 12 2 11 13
M  V30 13 1 13 14
M  V30 14 1 13 15
M  V30 15 2 15 16
M  V30 16 1 5 17
M  V30 17 1 17 18
M  V30 18 1 17 19
M  V30 19 1 19 20
M  V30 20 1 19 3
M  V30 21 1 16 6
M  V30 22 1 16 9
M  V30 23 1 1 21
M  V30 24 1 2 22
M  V30 25 1 2 23
M  V30 26 1 3 24 CFG=1
M  V30 27 1 5 25 CFG=1
M  V30 28 1 7 26
M  V30 29 1 10 27
M  V30 30 1 15 28
M  V30 31 1 17 29 CFG=3
M  V30 32 1 18 30
M  V30 33 1 19 31 CFG=3
M  V30 34 1 20 32
M  V30 END BOND
M  V30 END CTAB
M  END
>  <Dataset>  (378) 
ChEMBL_Kinases

>  <Ligand_Instance>  (378) 
nan

>  <PDB_ID>  (378) 
nan

>  <Standardized_SMILES>  (378) 
OC[C@H]1O[C@@H](n2cnc3cc(Cl)c(Cl)cc32)[C@H](O)[C@@H]1O

>  <Name>  (378) 
DICHLORORIBOBENZIMIDAZOLE

>  <Pocket>  (378) 
nan

>  <ATP_Site>  (378) 
nan

>  <Peripheral>  (378) 
nan

>  <Num_H_Atoms_ProtBoundConf>  (378) 
nan

>  <Num_Resolved_Atoms>  (378) 
nan

>  <Num_Not_Resolved_Atoms>  (378) 
nan

$$$$
CHEMBL375525
     RDKit          3D

  0  0  0  0  0  0  0  0  0  0999 V3000
M  V30 BEGIN CTAB
M  V30 COUNTS 40 42 0 0 0
M  V30 BEGIN ATOM
M  V30 1 C 0.373818 -4.815805 2.163129 0
M  V30 2 C 1.086037 -4.707813 0.822447 0
M  V30 3 N 0.762201 -3.427754 0.231013 0
M  V30 4 C -0.372305 -3.320908 -0.647090 0
M  V30 5 C 1.629237 -2.373249 0.581002 0
M  V30 6 O 2.475687 -2.960884 1.351734 0
M  V30 7 C 1.654239 -0.968451 0.229618 0
M  V30 8 C 0.814782 -0.139892 -0.446844 0
M  V30 9 C 1.360077 1.117632 -0.436593 0
M  V30 10 C 0.731857 2.324377 -0.992882 0
M  V30 11 N 0.916265 3.211781 -2.006539 0
M  V30 12 N -0.055209 4.112678 -1.934588 0
M  V30 13 C -0.876897 3.863816 -0.919732 0
M  V30 14 C -0.426791 2.743740 -0.288582 0
M  V30 15 C -0.912116 1.987443 0.893204 0
M  V30 16 C -0.059679 2.153680 1.984906 0
M  V30 17 C -0.269537 1.510365 3.183045 0
M  V30 18 C -1.357749 0.663060 3.338802 0
M  V30 19 C -2.187835 0.519816 2.236489 0
M  V30 20 Cl -3.570173 -0.539563 2.341374 0
M  V30 21 C -1.999333 1.150744 1.030295 0
M  V30 22 C 2.557333 1.045415 0.253100 0
M  V30 23 N 2.715433 -0.231493 0.649842 0
M  V30 24 H -0.668399 -5.119187 2.047090 0
M  V30 25 H 0.405269 -3.844443 2.695596 0
M  V30 26 H 0.949972 -5.537855 2.803754 0
M  V30 27 H 0.720819 -5.555516 0.183134 0
M  V30 28 H 2.170782 -4.791495 0.965404 0
M  V30 29 H -1.094763 -2.576835 -0.234500 0
M  V30 30 H -0.857778 -4.312806 -0.730307 0
M  V30 31 H -0.072471 -3.012117 -1.672486 0
M  V30 32 H -0.092804 -0.493765 -0.881930 0
M  V30 33 H 1.737125 3.001346 -2.601828 0
M  V30 34 H -1.768477 4.404827 -0.574038 0
M  V30 35 H 0.846056 2.787092 2.051472 0
M  V30 36 H 0.354789 1.594931 4.066740 0
M  V30 37 H -1.568262 0.122928 4.254948 0
M  V30 38 H -2.580787 1.095829 0.134660 0
M  V30 39 H 3.150640 1.914980 0.387357 0
M  V30 40 H 3.582425 -0.445095 1.193610 0
M  V30 END ATOM
M  V30 BEGIN BOND
M  V30 1 1 1 2
M  V30 2 1 2 3
M  V30 3 1 3 4
M  V30 4 1 3 5
M  V30 5 2 5 6
M  V30 6 1 5 7
M  V30 7 2 7 8
M  V30 8 1 8 9
M  V30 9 1 9 10
M  V30 10 1 10 11
M  V30 11 1 11 12
M  V30 12 2 12 13
M  V30 13 1 13 14
M  V30 14 1 14 15
M  V30 15 2 15 16
M  V30 16 1 16 17
M  V30 17 2 17 18
M  V30 18 1 18 19
M  V30 19 1 19 20
M  V30 20 2 19 21
M  V30 21 2 9 22
M  V30 22 1 22 23
M  V30 23 1 23 7
M  V30 24 2 14 10
M  V30 25 1 21 15
M  V30 26 1 1 24
M  V30 27 1 1 25
M  V30 28 1 1 26
M  V30 29 1 2 27
M  V30 30 1 2 28
M  V30 31 1 4 29
M  V30 32 1 4 30
M  V30 33 1 4 31
M  V30 34 1 8 32
M  V30 35 1 11 33
M  V30 36 1 13 34
M  V30 37 1 16 35
M  V30 38 1 17 36
M  V30 39 1 18 37
M  V30 40 1 21 38
M  V30 41 1 22 39
M  V30 42 1 23 40
M  V30 END BOND
M  V30 END CTAB
M  END
>  <Dataset>  (379) 
ChEMBL_Kinases

>  <Ligand_Instance>  (379) 
nan

>  <PDB_ID>  (379) 
nan

>  <Standardized_SMILES>  (379) 
CCN(C)C(=O)c1cc(-c2[nH]ncc2-c2cccc(Cl)c2)c[nH]1

>  <Name>  (379) 
nan

>  <Pocket>  (379) 
nan

>  <ATP_Site>  (379) 
nan

>  <Peripheral>  (379) 
nan

>  <Num_H_Atoms_ProtBoundConf>  (379) 
nan

>  <Num_Resolved_Atoms>  (379) 
nan

>  <Num_Not_Resolved_Atoms>  (379) 
nan

$$$$
CHEMBL3702319
     RDKit          3D

  0  0  0  0  0  0  0  0  0  0999 V3000
M  V30 BEGIN CTAB
M  V30 COUNTS 38 40 0 0 0
M  V30 BEGIN ATOM
M  V30 1 C 2.158601 -1.575707 1.540104 0
M  V30 2 C 2.629688 -1.583670 0.110446 0
M  V30 3 C 3.922128 -1.960672 -0.186225 0
M  V30 4 C 5.038837 -2.391582 0.605351 0
M  V30 5 O 5.115582 -2.535653 1.826770 0
M  V30 6 O 6.242655 -2.715629 0.022538 0
M  V30 7 S 4.091521 -1.834922 -1.987736 0
M  V30 8 C 2.325064 -1.259959 -2.191975 0
M  V30 9 N 1.715378 -0.956633 -3.360609 0
M  V30 10 C 0.437107 -0.564295 -3.302933 0
M  V30 11 N -0.125064 -0.508955 -2.081135 0
M  V30 12 C 0.518719 -0.820710 -0.950455 0
M  V30 13 N -0.354986 -0.699086 0.138580 0
M  V30 14 C -0.819677 0.478833 0.830013 0
M  V30 15 C -0.175419 1.550759 0.258943 0
M  V30 16 C -0.402306 2.847210 0.627568 0
M  V30 17 C -1.326000 2.999889 1.614769 0
M  V30 18 F -1.799038 4.131278 2.223372 0
M  V30 19 C -1.957334 1.925101 2.172999 0
M  V30 20 C -1.808011 0.604027 1.881935 0
M  V30 21 O -2.077790 -0.717552 2.039845 0
M  V30 22 C -3.006903 -1.280284 2.907974 0
M  V30 23 C -4.444322 -0.961366 2.582983 0
M  V30 24 F -4.785789 0.343676 2.581383 0
M  V30 25 F -5.267071 -1.721516 3.399902 0
M  V30 26 C 1.817903 -1.227956 -0.906282 0
M  V30 27 H 1.338992 -2.311420 1.700555 0
M  V30 28 H 2.968549 -1.861200 2.219406 0
M  V30 29 H 1.730064 -0.588540 1.822757 0
M  V30 30 H 7.000413 -3.189661 0.486328 0
M  V30 31 H -0.037535 -0.324752 -4.226344 0
M  V30 32 H -0.654231 -1.674722 0.415598 0
M  V30 33 H 0.585873 1.579081 -0.536718 0
M  V30 34 H -0.057389 3.826356 0.365265 0
M  V30 35 H -2.712196 1.862780 2.977870 0
M  V30 36 H -2.836427 -0.941785 3.980658 0
M  V30 37 H -2.875916 -2.375134 2.931796 0
M  V30 38 H -4.638954 -1.386764 1.546883 0
M  V30 END ATOM
M  V30 BEGIN BOND
M  V30 1 1 1 2
M  V30 2 2 2 3
M  V30 3 1 3 4
M  V30 4 2 4 5
M  V30 5 1 4 6
M  V30 6 1 3 7
M  V30 7 1 7 8
M  V30 8 2 8 9
M  V30 9 1 9 10
M  V30 10 2 10 11
M  V30 11 1 11 12
M  V30 12 1 12 13
M  V30 13 1 13 14
M  V30 14 2 14 15
M  V30 15 1 15 16
M  V30 16 2 16 17
M  V30 17 1 17 18
M  V30 18 1 17 19
M  V30 19 2 19 20
M  V30 20 1 20 21
M  V30 21 1 21 22
M  V30 22 1 22 23
M  V30 23 1 23 24
M  V30 24 1 23 25
M  V30 25 2 12 26
M  V30 26 1 26 2
M  V30 27 1 26 8
M  V30 28 1 20 14
M  V30 29 1 1 27
M  V30 30 1 1 28
M  V30 31 1 1 29
M  V30 32 1 6 30
M  V30 33 1 10 31
M  V30 34 1 13 32
M  V30 35 1 15 33
M  V30 36 1 16 34
M  V30 37 1 19 35
M  V30 38 1 22 36
M  V30 39 1 22 37
M  V30 40 1 23 38
M  V30 END BOND
M  V30 END CTAB
M  END
>  <Dataset>  (380) 
ChEMBL_Kinases

>  <Ligand_Instance>  (380) 
nan

>  <PDB_ID>  (380) 
nan

>  <Standardized_SMILES>  (380) 
Cc1c(C(=O)O)sc2ncnc(Nc3ccc(F)cc3OCC(F)F)c12

>  <Name>  (380) 
nan

>  <Pocket>  (380) 
nan

>  <ATP_Site>  (380) 
nan

>  <Peripheral>  (380) 
nan

>  <Num_H_Atoms_ProtBoundConf>  (380) 
nan

>  <Num_Resolved_Atoms>  (380) 
nan

>  <Num_Not_Resolved_Atoms>  (380) 
nan

$$$$
CHEMBL375509
     RDKit          3D

  0  0  0  0  0  0  0  0  0  0999 V3000
M  V30 BEGIN CTAB
M  V30 COUNTS 31 33 0 0 0
M  V30 BEGIN ATOM
M  V30 1 C -2.225023 -1.602956 2.350888 0
M  V30 2 N -1.979927 -3.011307 2.326613 0
M  V30 3 C -0.588606 -3.360242 2.111817 0
M  V30 4 C -0.087629 -2.832422 0.815744 0
M  V30 5 C -0.171710 -3.559717 -0.345364 0
M  V30 6 C 0.314794 -3.002787 -1.508165 0
M  V30 7 C 0.886699 -1.739118 -1.560646 0
M  V30 8 C 0.965636 -1.014355 -0.379990 0
M  V30 9 C 1.550074 0.323895 -0.332428 0
M  V30 10 N 2.720323 0.637836 -0.955157 0
M  V30 11 C 3.247335 1.870921 -0.904246 0
M  V30 12 N 2.580454 2.818434 -0.207490 0
M  V30 13 C 1.431360 2.550124 0.416110 0
M  V30 14 N 0.596675 3.320989 1.162200 0
M  V30 15 C -0.457612 2.565725 1.579825 0
M  V30 16 N -0.268189 1.326785 1.087568 0
M  V30 17 C 0.873326 1.290575 0.376203 0
M  V30 18 C 0.475394 -1.577427 0.787731 0
M  V30 19 H -1.536012 -1.031836 2.994767 0
M  V30 20 H -3.248618 -1.464780 2.773459 0
M  V30 21 H -2.283061 -1.242776 1.307265 0
M  V30 22 H -2.232413 -3.379188 3.277740 0
M  V30 23 H -0.490687 -4.444689 2.114684 0
M  V30 24 H -0.004997 -2.933097 2.973340 0
M  V30 25 H -0.616998 -4.555085 -0.329337 0
M  V30 26 H 0.260173 -3.555884 -2.436529 0
M  V30 27 H 1.274343 -1.283677 -2.461928 0
M  V30 28 H 4.182719 2.097842 -1.409270 0
M  V30 29 H 0.726601 4.338494 1.391293 0
M  V30 30 H -1.292729 2.903732 2.194808 0
M  V30 31 H 0.552938 -0.978324 1.703960 0
M  V30 END ATOM
M  V30 BEGIN BOND
M  V30 1 1 1 2
M  V30 2 1 2 3
M  V30 3 1 3 4
M  V30 4 2 4 5
M  V30 5 1 5 6
M  V30 6 2 6 7
M  V30 7 1 7 8
M  V30 8 1 8 9
M  V30 9 2 9 10
M  V30 10 1 10 11
M  V30 11 2 11 12
M  V30 12 1 12 13
M  V30 13 1 13 14
M  V30 14 1 14 15
M  V30 15 2 15 16
M  V30 16 1 16 17
M  V30 17 2 8 18
M  V30 18 1 18 4
M  V30 19 1 17 9
M  V30 20 2 17 13
M  V30 21 1 1 19
M  V30 22 1 1 20
M  V30 23 1 1 21
M  V30 24 1 2 22
M  V30 25 1 3 23
M  V30 26 1 3 24
M  V30 27 1 5 25
M  V30 28 1 6 26
M  V30 29 1 7 27
M  V30 30 1 11 28
M  V30 31 1 14 29
M  V30 32 1 15 30
M  V30 33 1 18 31
M  V30 END BOND
M  V30 END CTAB
M  END
>  <Dataset>  (381) 
ChEMBL_Kinases

>  <Ligand_Instance>  (381) 
nan

>  <PDB_ID>  (381) 
nan

>  <Standardized_SMILES>  (381) 
CNCc1cccc(-c2ncnc3[nH]cnc23)c1

>  <Name>  (381) 
nan

>  <Pocket>  (381) 
nan

>  <ATP_Site>  (381) 
nan

>  <Peripheral>  (381) 
nan

>  <Num_H_Atoms_ProtBoundConf>  (381) 
nan

>  <Num_Resolved_Atoms>  (381) 
nan

>  <Num_Not_Resolved_Atoms>  (381) 
nan

$$$$
CHEMBL3754611
     RDKit          3D

  0  0  0  0  0  0  0  0  0  0999 V3000
M  V30 BEGIN CTAB
M  V30 COUNTS 33 35 0 0 0
M  V30 BEGIN ATOM
M  V30 1 N -4.829976 -4.104996 3.456923 0
M  V30 2 C -3.462780 -4.250551 3.091528 0
M  V30 3 O -3.046981 -5.313440 3.621542 0
M  V30 4 C -2.598092 -3.409128 2.272911 0
M  V30 5 C -1.309330 -3.880263 2.138952 0
M  V30 6 C -0.438821 -3.112810 1.365730 0
M  V30 7 C -0.891568 -1.937473 0.777896 0
M  V30 8 N -0.054285 -1.104827 -0.024878 0
M  V30 9 C 0.663470 -0.010529 0.308780 0
M  V30 10 C 1.320883 0.455121 -0.827677 0
M  V30 11 C 2.205966 1.621229 -0.914983 0
M  V30 12 C 3.239130 1.592357 -1.831761 0
M  V30 13 C 4.048987 2.709755 -1.884486 0
M  V30 14 C 3.798306 3.778553 -1.041790 0
M  V30 15 Cl 4.891328 5.151373 -1.192927 0
M  V30 16 C 2.750362 3.770295 -0.133771 0
M  V30 17 C 1.910707 2.656303 -0.053047 0
M  V30 18 C 0.964388 -0.405505 -1.845500 0
M  V30 19 N 0.136316 -1.326616 -1.313266 0
M  V30 20 C -2.200878 -1.504563 0.942718 0
M  V30 21 C -3.102006 -2.253638 1.714524 0
M  V30 22 H -5.293684 -3.718717 4.315437 0
M  V30 23 H -5.584592 -4.424157 2.785420 0
M  V30 24 H -0.960914 -4.791228 2.595511 0
M  V30 25 H 0.598403 -3.402595 1.200827 0
M  V30 26 H 0.701518 0.414649 1.315789 0
M  V30 27 H 3.353387 0.706766 -2.448331 0
M  V30 28 H 4.864850 2.713553 -2.592910 0
M  V30 29 H 2.583473 4.630174 0.513756 0
M  V30 30 H 1.084476 2.605747 0.636087 0
M  V30 31 H 1.309876 -0.316901 -2.862990 0
M  V30 32 H -2.593258 -0.597541 0.503964 0
M  V30 33 H -4.117683 -1.922470 1.845129 0
M  V30 END ATOM
M  V30 BEGIN BOND
M  V30 1 1 1 2
M  V30 2 2 2 3
M  V30 3 1 2 4
M  V30 4 2 4 5
M  V30 5 1 5 6
M  V30 6 2 6 7
M  V30 7 1 7 8
M  V30 8 1 8 9
M  V30 9 2 9 10
M  V30 10 1 10 11
M  V30 11 2 11 12
M  V30 12 1 12 13
M  V30 13 2 13 14
M  V30 14 1 14 15
M  V30 15 1 14 16
M  V30 16 2 16 17
M  V30 17 1 10 18
M  V30 18 2 18 19
M  V30 19 1 7 20
M  V30 20 2 20 21
M  V30 21 1 21 4
M  V30 22 1 19 8
M  V30 23 1 17 11
M  V30 24 1 1 22
M  V30 25 1 1 23
M  V30 26 1 5 24
M  V30 27 1 6 25
M  V30 28 1 9 26
M  V30 29 1 12 27
M  V30 30 1 13 28
M  V30 31 1 16 29
M  V30 32 1 17 30
M  V30 33 1 18 31
M  V30 34 1 20 32
M  V30 35 1 21 33
M  V30 END BOND
M  V30 END CTAB
M  END
>  <Dataset>  (382) 
ChEMBL_Kinases

>  <Ligand_Instance>  (382) 
nan

>  <PDB_ID>  (382) 
nan

>  <Standardized_SMILES>  (382) 
NC(=O)c1ccc(-n2cc(-c3ccc(Cl)cc3)cn2)cc1

>  <Name>  (382) 
nan

>  <Pocket>  (382) 
nan

>  <ATP_Site>  (382) 
nan

>  <Peripheral>  (382) 
nan

>  <Num_H_Atoms_ProtBoundConf>  (382) 
nan

>  <Num_Resolved_Atoms>  (382) 
nan

>  <Num_Not_Resolved_Atoms>  (382) 
nan

$$$$
CHEMBL375485
     RDKit          3D

  0  0  0  0  0  0  0  0  0  0999 V3000
M  V30 BEGIN CTAB
M  V30 COUNTS 52 56 0 0 0
M  V30 BEGIN ATOM
M  V30 1 N -1.922303 -2.314338 2.556315 0
M  V30 2 C -1.637454 -3.693177 2.741250 0 CFG=2
M  V30 3 C -0.684918 -4.329362 1.791191 0
M  V30 4 O 0.586960 -3.860837 1.707109 0
M  V30 5 C 1.233473 -2.745556 1.380392 0
M  V30 6 C 2.611068 -2.948945 1.536926 0
M  V30 7 N 3.563777 -2.017034 1.289971 0
M  V30 8 C 3.154454 -0.808887 0.863564 0
M  V30 9 C 1.832302 -0.484299 0.670152 0
M  V30 10 C 1.295458 0.790700 0.217486 0
M  V30 11 C 2.146430 1.834899 -0.061517 0
M  V30 12 C 1.630633 3.054547 -0.488052 0
M  V30 13 C 2.185340 4.272954 -0.838719 0
M  V30 14 C 3.605073 4.609619 -0.856450 0
M  V30 15 C 4.122313 5.846133 -1.182624 0
M  V30 16 C 5.520991 5.809376 -1.093554 0
M  V30 17 C 5.772580 4.510528 -0.706171 0
M  V30 18 O 4.633694 3.849803 -0.580246 0
M  V30 19 N 1.171580 5.085273 -1.165492 0
M  V30 20 N 0.005366 4.501553 -1.058216 0
M  V30 21 C 0.276081 3.260621 -0.644680 0
M  V30 22 C -0.526311 2.174135 -0.349133 0
M  V30 23 N -0.029774 0.997539 0.062388 0
M  V30 24 C 0.924916 -1.481931 0.941464 0
M  V30 25 C -2.894378 -4.545255 2.811336 0
M  V30 26 C -3.723332 -4.469435 1.592945 0
M  V30 27 C -3.430098 -5.401629 0.619983 0
M  V30 28 C -4.176416 -5.389781 -0.563187 0
M  V30 29 C -5.172747 -4.442402 -0.698604 0
M  V30 30 C -5.484244 -3.503312 0.255793 0
M  V30 31 C -4.725481 -3.535569 1.427151 0
M  V30 32 H -2.819545 -2.094260 3.053846 0
M  V30 33 H -1.192095 -1.671519 2.939054 0
M  V30 34 H -1.178479 -3.805010 3.771523 0
M  V30 35 H -0.629325 -5.418395 2.089887 0
M  V30 36 H -1.102544 -4.380980 0.744862 0
M  V30 37 H 3.120216 -3.864619 1.873007 0
M  V30 38 H 3.876386 -0.015778 0.648520 0
M  V30 39 H 3.208468 1.790995 0.023244 0
M  V30 40 H 3.629237 6.767632 -1.475771 0
M  V30 41 H 6.320784 6.515438 -1.244172 0
M  V30 42 H 6.651842 3.921688 -0.486972 0
M  V30 43 H -0.968019 4.851913 -1.235339 0
M  V30 44 H -1.596643 2.201818 -0.429750 0
M  V30 45 H -0.112010 -1.323954 0.809761 0
M  V30 46 H -3.473116 -4.165630 3.703196 0
M  V30 47 H -2.578077 -5.585867 3.012594 0
M  V30 48 H -2.686274 -6.176426 0.618155 0
M  V30 49 H -4.020671 -6.090080 -1.398133 0
M  V30 50 H -5.768175 -4.403249 -1.596781 0
M  V30 51 H -6.244371 -2.759154 0.185037 0
M  V30 52 H -4.938285 -2.817036 2.199152 0
M  V30 END ATOM
M  V30 BEGIN BOND
M  V30 1 1 1 2
M  V30 2 1 2 3
M  V30 3 1 3 4
M  V30 4 1 4 5
M  V30 5 2 5 6
M  V30 6 1 6 7
M  V30 7 2 7 8
M  V30 8 1 8 9
M  V30 9 1 9 10
M  V30 10 2 10 11
M  V30 11 1 11 12
M  V30 12 1 12 13
M  V30 13 1 13 14
M  V30 14 2 14 15
M  V30 15 1 15 16
M  V30 16 2 16 17
M  V30 17 1 17 18
M  V30 18 2 13 19
M  V30 19 1 19 20
M  V30 20 1 20 21
M  V30 21 1 21 22
M  V30 22 2 22 23
M  V30 23 2 9 24
M  V30 24 1 2 25
M  V30 25 1 25 26
M  V30 26 2 26 27
M  V30 27 1 27 28
M  V30 28 2 28 29
M  V30 29 1 29 30
M  V30 30 2 30 31
M  V30 31 1 24 5
M  V30 32 1 31 26
M  V30 33 1 23 10
M  V30 34 2 21 12
M  V30 35 1 18 14
M  V30 36 1 1 32
M  V30 37 1 1 33
M  V30 38 1 2 34 CFG=1
M  V30 39 1 3 35
M  V30 40 1 3 36
M  V30 41 1 6 37
M  V30 42 1 8 38
M  V30 43 1 11 39
M  V30 44 1 15 40
M  V30 45 1 16 41
M  V30 46 1 17 42
M  V30 47 1 20 43
M  V30 48 1 22 44
M  V30 49 1 24 45
M  V30 50 1 25 46
M  V30 51 1 25 47
M  V30 52 1 27 48
M  V30 53 1 28 49
M  V30 54 1 29 50
M  V30 55 1 30 51
M  V30 56 1 31 52
M  V30 END BOND
M  V30 END CTAB
M  END
>  <Dataset>  (383) 
ChEMBL_Kinases

>  <Ligand_Instance>  (383) 
nan

>  <PDB_ID>  (383) 
nan

>  <Standardized_SMILES>  (383) 
N[C@H](COc1cncc(-c2cc3c(-c4ccco4)n[nH]c3cn2)c1)Cc1ccccc1

>  <Name>  (383) 
nan

>  <Pocket>  (383) 
nan

>  <ATP_Site>  (383) 
nan

>  <Peripheral>  (383) 
nan

>  <Num_H_Atoms_ProtBoundConf>  (383) 
nan

>  <Num_Resolved_Atoms>  (383) 
nan

>  <Num_Not_Resolved_Atoms>  (383) 
nan

$$$$
CHEMBL3702320
     RDKit          3D

  0  0  0  0  0  0  0  0  0  0999 V3000
M  V30 BEGIN CTAB
M  V30 COUNTS 42 45 0 0 0
M  V30 BEGIN ATOM
M  V30 1 C 1.588727 0.557786 2.836222 0
M  V30 2 C 2.315582 1.666441 2.140378 0
M  V30 3 C 3.370247 2.286392 2.752611 0
M  V30 4 C 4.016582 2.104220 4.044072 0
M  V30 5 O 4.992231 2.786503 4.435935 0
M  V30 6 O 3.690215 1.190459 5.028658 0
M  V30 7 S 3.994852 3.553359 1.642193 0
M  V30 8 C 2.706864 3.133670 0.341256 0
M  V30 9 N 2.510293 3.697402 -0.892045 0
M  V30 10 C 1.528503 3.243780 -1.672617 0
M  V30 11 N 0.814591 2.259405 -1.163286 0
M  V30 12 C 0.999236 1.709350 0.029266 0
M  V30 13 N 0.083611 0.661392 0.315871 0
M  V30 14 C 0.533087 -0.671076 -0.012443 0
M  V30 15 C 1.807277 -0.811875 -0.575828 0
M  V30 16 C 2.368949 -2.038047 -0.941786 0
M  V30 17 C 1.578931 -3.143505 -0.712443 0
M  V30 18 F 2.001894 -4.398829 -1.020614 0
M  V30 19 C 0.323285 -3.031577 -0.159654 0
M  V30 20 C -0.232098 -1.825090 0.200824 0
M  V30 21 O -1.453511 -1.517755 0.759711 0
M  V30 22 C -2.378994 -2.530624 1.039611 0
M  V30 23 C -2.869410 -3.287028 -0.166679 0
M  V30 24 C -3.845795 -4.404713 -0.059841 0
M  V30 25 C -4.301861 -3.062605 -0.519043 0
M  V30 26 F -5.083129 -2.324671 0.347848 0
M  V30 27 F -4.703823 -2.997298 -1.838131 0
M  V30 28 C 1.985948 2.108899 0.906751 0
M  V30 29 H 1.701948 0.712690 3.926316 0
M  V30 30 H 1.968870 -0.442934 2.590438 0
M  V30 31 H 0.496795 0.614564 2.652947 0
M  V30 32 H 4.320775 0.475802 5.375949 0
M  V30 33 H 1.512745 3.790139 -2.596547 0
M  V30 34 H -0.864576 0.772573 0.727655 0
M  V30 35 H 2.474593 0.040885 -0.777104 0
M  V30 36 H 3.337686 -2.116641 -1.367058 0
M  V30 37 H -0.294555 -3.892385 0.035386 0
M  V30 38 H -1.871540 -3.281340 1.716972 0
M  V30 39 H -3.255712 -2.148988 1.590264 0
M  V30 40 H -2.209762 -3.198716 -1.073120 0
M  V30 41 H -4.087436 -4.797304 0.944833 0
M  V30 42 H -3.707222 -5.235257 -0.802013 0
M  V30 END ATOM
M  V30 BEGIN BOND
M  V30 1 1 1 2
M  V30 2 2 2 3
M  V30 3 1 3 4
M  V30 4 2 4 5
M  V30 5 1 4 6
M  V30 6 1 3 7
M  V30 7 1 7 8
M  V30 8 2 8 9
M  V30 9 1 9 10
M  V30 10 2 10 11
M  V30 11 1 11 12
M  V30 12 1 12 13
M  V30 13 1 13 14
M  V30 14 2 14 15
M  V30 15 1 15 16
M  V30 16 2 16 17
M  V30 17 1 17 18
M  V30 18 1 17 19
M  V30 19 2 19 20
M  V30 20 1 20 21
M  V30 21 1 21 22
M  V30 22 1 22 23
M  V30 23 1 23 24
M  V30 24 1 24 25
M  V30 25 1 25 26
M  V30 26 1 25 27
M  V30 27 2 12 28
M  V30 28 1 28 2
M  V30 29 1 28 8
M  V30 30 1 20 14
M  V30 31 1 25 23
M  V30 32 1 1 29
M  V30 33 1 1 30
M  V30 34 1 1 31
M  V30 35 1 6 32
M  V30 36 1 10 33
M  V30 37 1 13 34
M  V30 38 1 15 35
M  V30 39 1 16 36
M  V30 40 1 19 37
M  V30 41 1 22 38
M  V30 42 1 22 39
M  V30 43 1 23 40
M  V30 44 1 24 41
M  V30 45 1 24 42
M  V30 END BOND
M  V30 END CTAB
M  END
>  <Dataset>  (384) 
ChEMBL_Kinases

>  <Ligand_Instance>  (384) 
nan

>  <PDB_ID>  (384) 
nan

>  <Standardized_SMILES>  (384) 
Cc1c(C(=O)O)sc2ncnc(Nc3ccc(F)cc3OCC3CC3(F)F)c12

>  <Name>  (384) 
nan

>  <Pocket>  (384) 
nan

>  <ATP_Site>  (384) 
nan

>  <Peripheral>  (384) 
nan

>  <Num_H_Atoms_ProtBoundConf>  (384) 
nan

>  <Num_Resolved_Atoms>  (384) 
nan

>  <Num_Not_Resolved_Atoms>  (384) 
nan

$$$$
CHEMBL3754770
     RDKit          3D

  0  0  0  0  0  0  0  0  0  0999 V3000
M  V30 BEGIN CTAB
M  V30 COUNTS 18 19 0 0 0
M  V30 BEGIN ATOM
M  V30 1 C -0.953706 0.111953 3.624707 0
M  V30 2 C -0.022747 0.083118 2.453149 0
M  V30 3 N 1.263651 -0.301077 2.514634 0
M  V30 4 C 1.754861 -0.185671 1.258990 0
M  V30 5 C 2.970390 -0.415402 0.666551 0
M  V30 6 Br 4.345916 -1.049752 1.823259 0
M  V30 7 C 3.224132 -0.214050 -0.673762 0
M  V30 8 Br 4.951292 -0.561474 -1.412923 0
M  V30 9 C 2.196362 0.248942 -1.484333 0
M  V30 10 Br 2.490307 0.546844 -3.352286 0
M  V30 11 C 0.975997 0.480240 -0.892719 0
M  V30 12 Br -0.464202 1.114922 -1.959647 0
M  V30 13 C 0.723941 0.275851 0.460021 0
M  V30 14 N -0.378231 0.440520 1.210122 0
M  V30 15 H -1.768378 -0.611279 3.556844 0
M  V30 16 H -0.397052 -0.053787 4.561319 0
M  V30 17 H -1.414202 1.136463 3.723699 0
M  V30 18 H -1.310352 0.777031 0.881830 0
M  V30 END ATOM
M  V30 BEGIN BOND
M  V30 1 1 1 2
M  V30 2 2 2 3
M  V30 3 1 3 4
M  V30 4 2 4 5
M  V30 5 1 5 6
M  V30 6 1 5 7
M  V30 7 1 7 8
M  V30 8 2 7 9
M  V30 9 1 9 10
M  V30 10 1 9 11
M  V30 11 1 11 12
M  V30 12 2 11 13
M  V30 13 1 13 14
M  V30 14 1 14 2
M  V30 15 1 13 4
M  V30 16 1 1 15
M  V30 17 1 1 16
M  V30 18 1 1 17
M  V30 19 1 14 18
M  V30 END BOND
M  V30 END CTAB
M  END
>  <Dataset>  (385) 
ChEMBL_Kinases

>  <Ligand_Instance>  (385) 
nan

>  <PDB_ID>  (385) 
nan

>  <Standardized_SMILES>  (385) 
Cc1nc2c(Br)c(Br)c(Br)c(Br)c2[nH]1

>  <Name>  (385) 
nan

>  <Pocket>  (385) 
nan

>  <ATP_Site>  (385) 
nan

>  <Peripheral>  (385) 
nan

>  <Num_H_Atoms_ProtBoundConf>  (385) 
nan

>  <Num_Resolved_Atoms>  (385) 
nan

>  <Num_Not_Resolved_Atoms>  (385) 
nan

$$$$
CHEMBL3702321
     RDKit          3D

  0  0  0  0  0  0  0  0  0  0999 V3000
M  V30 BEGIN CTAB
M  V30 COUNTS 45 47 0 0 0
M  V30 BEGIN ATOM
M  V30 1 C 1.980091 -3.225470 1.828980 0
M  V30 2 O 2.203241 -1.855914 1.780884 0
M  V30 3 C 2.814840 -1.422582 0.628262 0
M  V30 4 C 2.966156 0.100662 0.778595 0
M  V30 5 C 3.805479 0.280935 2.028878 0
M  V30 6 F 3.114180 -0.291252 3.082453 0
M  V30 7 O 1.673070 0.592798 0.922548 0
M  V30 8 C 1.013860 1.514745 0.161609 0
M  V30 9 C 1.675644 2.074178 -0.910566 0
M  V30 10 C 0.972009 2.996619 -1.646910 0
M  V30 11 F 1.559802 3.597422 -2.730808 0
M  V30 12 C -0.305746 3.409399 -1.422367 0
M  V30 13 C -0.920852 2.833540 -0.356044 0
M  V30 14 C -0.290500 1.878258 0.461615 0
M  V30 15 N -0.805150 1.216624 1.586115 0
M  V30 16 C -1.232477 0.089791 2.298611 0
M  V30 17 N -1.247410 0.252613 3.618936 0
M  V30 18 C -1.563662 -0.544286 4.591532 0
M  V30 19 N -1.933972 -1.732009 4.109449 0
M  V30 20 C -1.959971 -2.002396 2.859148 0
M  V30 21 S -2.446566 -3.560268 2.044843 0
M  V30 22 C -2.145762 -2.905187 0.298401 0
M  V30 23 C -2.351242 -3.685956 -0.859642 0
M  V30 24 O -2.217981 -3.482350 -2.113403 0
M  V30 25 O -2.798500 -4.980386 -0.700879 0
M  V30 26 C -1.709889 -1.579905 0.508026 0
M  V30 27 C -1.432237 -0.760111 -0.692574 0
M  V30 28 C -1.609278 -1.114248 1.783591 0
M  V30 29 H 2.979411 -3.700011 1.750100 0
M  V30 30 H 1.243898 -3.593179 1.094985 0
M  V30 31 H 1.628053 -3.460772 2.869135 0
M  V30 32 H 2.210716 -1.574832 -0.281286 0
M  V30 33 H 3.801796 -1.914883 0.483256 0
M  V30 34 H 3.502818 0.508353 -0.077755 0
M  V30 35 H 4.018150 1.339391 2.269734 0
M  V30 36 H 4.766900 -0.230675 1.842261 0
M  V30 37 H 2.674059 1.884483 -1.248840 0
M  V30 38 H -0.869271 4.132666 -1.992997 0
M  V30 39 H -1.940166 3.045397 -0.030454 0
M  V30 40 H -0.858408 2.156883 2.096464 0
M  V30 41 H -1.560189 -0.369626 5.637791 0
M  V30 42 H -3.308407 -5.498562 -1.399515 0
M  V30 43 H -2.048565 0.167793 -0.712751 0
M  V30 44 H -1.842894 -1.313174 -1.596228 0
M  V30 45 H -0.376242 -0.647521 -0.923038 0
M  V30 END ATOM
M  V30 BEGIN BOND
M  V30 1 1 1 2
M  V30 2 1 2 3
M  V30 3 1 3 4
M  V30 4 1 4 5
M  V30 5 1 5 6
M  V30 6 1 4 7
M  V30 7 1 7 8
M  V30 8 2 8 9
M  V30 9 1 9 10
M  V30 10 1 10 11
M  V30 11 2 10 12
M  V30 12 1 12 13
M  V30 13 2 13 14
M  V30 14 1 14 15
M  V30 15 1 15 16
M  V30 16 2 16 17
M  V30 17 1 17 18
M  V30 18 2 18 19
M  V30 19 1 19 20
M  V30 20 1 20 21
M  V30 21 1 21 22
M  V30 22 1 22 23
M  V30 23 2 23 24
M  V30 24 1 23 25
M  V30 25 2 22 26
M  V30 26 1 26 27
M  V30 27 1 26 28
M  V30 28 1 14 8
M  V30 29 1 28 16
M  V30 30 2 28 20
M  V30 31 1 1 29
M  V30 32 1 1 30
M  V30 33 1 1 31
M  V30 34 1 3 32
M  V30 35 1 3 33
M  V30 36 1 4 34
M  V30 37 1 5 35
M  V30 38 1 5 36
M  V30 39 1 9 37
M  V30 40 1 12 38
M  V30 41 1 13 39
M  V30 42 1 15 40
M  V30 43 1 18 41
M  V30 44 1 25 42
M  V30 45 1 27 43
M  V30 46 1 27 44
M  V30 47 1 27 45
M  V30 END BOND
M  V30 END CTAB
M  END
>  <Dataset>  (386) 
ChEMBL_Kinases

>  <Ligand_Instance>  (386) 
nan

>  <PDB_ID>  (386) 
nan

>  <Standardized_SMILES>  (386) 
COCC(CF)Oc1cc(F)ccc1Nc1ncnc2sc(C(=O)O)c(C)c12

>  <Name>  (386) 
nan

>  <Pocket>  (386) 
nan

>  <ATP_Site>  (386) 
nan

>  <Peripheral>  (386) 
nan

>  <Num_H_Atoms_ProtBoundConf>  (386) 
nan

>  <Num_Resolved_Atoms>  (386) 
nan

>  <Num_Not_Resolved_Atoms>  (386) 
nan

$$$$
CHEMBL3702322
     RDKit          3D

  0  0  0  0  0  0  0  0  0  0999 V3000
M  V30 BEGIN CTAB
M  V30 COUNTS 41 43 0 0 0
M  V30 BEGIN ATOM
M  V30 1 C 0.405268 -2.869434 0.287268 0
M  V30 2 C 1.605946 -2.230322 -0.302477 0
M  V30 3 C 2.797521 -2.865700 -0.166689 0
M  V30 4 C 3.159097 -4.122545 0.475330 0
M  V30 5 O 2.432097 -4.948167 1.074141 0
M  V30 6 O 4.464112 -4.568656 0.486985 0
M  V30 7 S 4.005911 -1.863953 -0.968425 0
M  V30 8 C 2.800132 -0.569821 -1.478031 0
M  V30 9 N 2.982526 0.603185 -2.191858 0
M  V30 10 C 1.917988 1.377015 -2.441188 0
M  V30 11 N 0.760224 0.944416 -1.973656 0
M  V30 12 C 0.554143 -0.178537 -1.283907 0
M  V30 13 N -0.802851 -0.358953 -0.934733 0
M  V30 14 C -1.530573 0.432167 0.021617 0
M  V30 15 C -2.615316 0.984051 -0.673968 0
M  V30 16 C -3.539687 1.827030 -0.045842 0
M  V30 17 C -3.374497 2.118450 1.289780 0
M  V30 18 F -4.203317 2.919595 2.001881 0
M  V30 19 C -2.300104 1.560054 1.939800 0
M  V30 20 C -1.374546 0.729318 1.353807 0
M  V30 21 O -0.260406 0.104434 1.868698 0
M  V30 22 C 0.143975 0.244227 3.196766 0
M  V30 23 C 1.545537 0.810818 3.319209 0
M  V30 24 C 0.125216 -1.078365 3.968744 0
M  V30 25 F 0.952111 -2.008682 3.421464 0
M  V30 26 C 1.558875 -1.049873 -0.967443 0
M  V30 27 H 0.047419 -3.632566 -0.459326 0
M  V30 28 H 0.672993 -3.467545 1.189035 0
M  V30 29 H -0.442703 -2.212871 0.462297 0
M  V30 30 H 4.856841 -5.271135 1.074555 0
M  V30 31 H 2.192004 2.234181 -2.989766 0
M  V30 32 H -1.278245 -1.152417 -1.457343 0
M  V30 33 H -2.910870 0.870051 -1.727845 0
M  V30 34 H -4.397617 2.289802 -0.509061 0
M  V30 35 H -2.133005 1.759855 2.980685 0
M  V30 36 H -0.515623 0.914151 3.775350 0
M  V30 37 H 1.555415 1.761909 3.886263 0
M  V30 38 H 2.247477 0.061625 3.759398 0
M  V30 39 H 1.966252 1.062600 2.315867 0
M  V30 40 H -0.955610 -1.396810 3.976493 0
M  V30 41 H 0.438724 -0.858629 5.001206 0
M  V30 END ATOM
M  V30 BEGIN BOND
M  V30 1 1 1 2
M  V30 2 2 2 3
M  V30 3 1 3 4
M  V30 4 2 4 5
M  V30 5 1 4 6
M  V30 6 1 3 7
M  V30 7 1 7 8
M  V30 8 2 8 9
M  V30 9 1 9 10
M  V30 10 2 10 11
M  V30 11 1 11 12
M  V30 12 1 12 13
M  V30 13 1 13 14
M  V30 14 2 14 15
M  V30 15 1 15 16
M  V30 16 2 16 17
M  V30 17 1 17 18
M  V30 18 1 17 19
M  V30 19 2 19 20
M  V30 20 1 20 21
M  V30 21 1 21 22
M  V30 22 1 22 23
M  V30 23 1 22 24
M  V30 24 1 24 25
M  V30 25 2 12 26
M  V30 26 1 26 2
M  V30 27 1 26 8
M  V30 28 1 20 14
M  V30 29 1 1 27
M  V30 30 1 1 28
M  V30 31 1 1 29
M  V30 32 1 6 30
M  V30 33 1 10 31
M  V30 34 1 13 32
M  V30 35 1 15 33
M  V30 36 1 16 34
M  V30 37 1 19 35
M  V30 38 1 22 36
M  V30 39 1 23 37
M  V30 40 1 23 38
M  V30 41 1 23 39
M  V30 42 1 24 40
M  V30 43 1 24 41
M  V30 END BOND
M  V30 END CTAB
M  END
>  <Dataset>  (387) 
ChEMBL_Kinases

>  <Ligand_Instance>  (387) 
nan

>  <PDB_ID>  (387) 
nan

>  <Standardized_SMILES>  (387) 
Cc1c(C(=O)O)sc2ncnc(Nc3ccc(F)cc3OC(C)CF)c12

>  <Name>  (387) 
nan

>  <Pocket>  (387) 
nan

>  <ATP_Site>  (387) 
nan

>  <Peripheral>  (387) 
nan

>  <Num_H_Atoms_ProtBoundConf>  (387) 
nan

>  <Num_Resolved_Atoms>  (387) 
nan

>  <Num_Not_Resolved_Atoms>  (387) 
nan

$$$$
CHEMBL3754762
     RDKit          3D

  0  0  0  0  0  0  0  0  0  0999 V3000
M  V30 BEGIN CTAB
M  V30 COUNTS 33 35 0 0 0
M  V30 BEGIN ATOM
M  V30 1 N -0.902101 0.555383 3.751666 0
M  V30 2 C -0.187463 -0.160332 2.766129 0
M  V30 3 N 0.845692 -0.968000 3.080806 0
M  V30 4 C 1.530126 -1.653787 2.134548 0
M  V30 5 C 1.128890 -1.495791 0.818591 0
M  V30 6 C 1.936634 -2.285317 -0.139855 0
M  V30 7 C 2.480170 -3.498104 0.226629 0
M  V30 8 C 3.234586 -4.202707 -0.721248 0
M  V30 9 C 3.328539 -3.554458 -1.934743 0
M  V30 10 O 4.018561 -4.200956 -2.798014 0
M  V30 11 N 2.813205 -2.379543 -2.319369 0
M  V30 12 C 2.077499 -1.691420 -1.396750 0
M  V30 13 C 0.075265 -0.677038 0.459547 0
M  V30 14 C -0.591907 0.003934 1.478396 0
M  V30 15 C -1.689214 0.841366 0.995986 0
M  V30 16 C -2.595799 0.384270 0.053723 0
M  V30 17 C -3.604599 1.215805 -0.359693 0
M  V30 18 C -3.784915 2.505590 0.107160 0
M  V30 19 Cl -5.058643 3.569009 -0.408395 0
M  V30 20 C -2.862710 2.930191 1.046528 0
M  V30 21 C -1.827626 2.128977 1.495323 0
M  V30 22 H -0.449559 1.371126 4.219527 0
M  V30 23 H -1.886061 0.336030 4.072085 0
M  V30 24 H 2.345380 -2.282536 2.447752 0
M  V30 25 H 2.336854 -3.905819 1.212333 0
M  V30 26 H 3.690078 -5.147481 -0.519709 0
M  V30 27 H 2.978020 -2.024468 -3.283230 0
M  V30 28 H 1.639187 -0.742334 -1.649029 0
M  V30 29 H -0.110577 -0.662929 -0.600185 0
M  V30 30 H -2.509954 -0.611318 -0.349474 0
M  V30 31 H -4.326065 0.861283 -1.105433 0
M  V30 32 H -2.987868 3.949348 1.429423 0
M  V30 33 H -1.142644 2.509955 2.224081 0
M  V30 END ATOM
M  V30 BEGIN BOND
M  V30 1 1 1 2
M  V30 2 2 2 3
M  V30 3 1 3 4
M  V30 4 2 4 5
M  V30 5 1 5 6
M  V30 6 1 6 7
M  V30 7 2 7 8
M  V30 8 1 8 9
M  V30 9 2 9 10
M  V30 10 1 9 11
M  V30 11 1 11 12
M  V30 12 1 5 13
M  V30 13 2 13 14
M  V30 14 1 14 15
M  V30 15 2 15 16
M  V30 16 1 16 17
M  V30 17 2 17 18
M  V30 18 1 18 19
M  V30 19 1 18 20
M  V30 20 2 20 21
M  V30 21 1 14 2
M  V30 22 1 21 15
M  V30 23 2 12 6
M  V30 24 1 1 22
M  V30 25 1 1 23
M  V30 26 1 4 24
M  V30 27 1 7 25
M  V30 28 1 8 26
M  V30 29 1 11 27
M  V30 30 1 12 28
M  V30 31 1 13 29
M  V30 32 1 16 30
M  V30 33 1 17 31
M  V30 34 1 20 32
M  V30 35 1 21 33
M  V30 END BOND
M  V30 END CTAB
M  END
>  <Dataset>  (388) 
ChEMBL_Kinases

>  <Ligand_Instance>  (388) 
nan

>  <PDB_ID>  (388) 
nan

>  <Standardized_SMILES>  (388) 
Nc1ncc(-c2ccc(=O)[nH]c2)cc1-c1ccc(Cl)cc1

>  <Name>  (388) 
nan

>  <Pocket>  (388) 
nan

>  <ATP_Site>  (388) 
nan

>  <Peripheral>  (388) 
nan

>  <Num_H_Atoms_ProtBoundConf>  (388) 
nan

>  <Num_Resolved_Atoms>  (388) 
nan

>  <Num_Not_Resolved_Atoms>  (388) 
nan

$$$$
CHEMBL3702323
     RDKit          3D

  0  0  0  0  0  0  0  0  0  0999 V3000
M  V30 BEGIN CTAB
M  V30 COUNTS 39 41 0 0 0
M  V30 BEGIN ATOM
M  V30 1 C 0.276710 -2.902008 0.727252 0
M  V30 2 C 1.451634 -2.271924 0.078848 0
M  V30 3 C 2.652446 -2.905504 0.398671 0
M  V30 4 C 2.994139 -4.020804 1.213762 0
M  V30 5 O 2.143340 -4.678327 1.848329 0
M  V30 6 O 4.283975 -4.457387 1.361910 0
M  V30 7 S 3.907460 -1.980680 -0.488333 0
M  V30 8 C 2.775468 -0.800863 -1.238689 0
M  V30 9 N 2.950922 0.229308 -2.060469 0
M  V30 10 C 1.943867 0.992683 -2.510389 0
M  V30 11 N 0.755179 0.629015 -2.064031 0
M  V30 12 C 0.506076 -0.385919 -1.245127 0
M  V30 13 N -0.867805 -0.549109 -0.939190 0
M  V30 14 C -1.729380 0.253772 -0.106161 0
M  V30 15 C -2.873180 0.719751 -0.775406 0
M  V30 16 C -3.809731 1.521050 -0.151089 0
M  V30 17 C -3.626753 1.883307 1.175701 0
M  V30 18 F -4.448577 2.662136 1.945175 0
M  V30 19 C -2.502203 1.423244 1.826075 0
M  V30 20 C -1.540011 0.618259 1.234190 0
M  V30 21 O -0.393970 0.072815 1.679570 0
M  V30 22 C 0.279182 0.100307 2.874055 0
M  V30 23 C 0.732567 1.479264 3.295151 0
M  V30 24 O 1.400278 1.307283 4.528237 0
M  V30 25 C 1.499762 -1.194662 -0.756794 0
M  V30 26 H 0.456959 -2.986933 1.840380 0
M  V30 27 H 0.206203 -3.975149 0.399573 0
M  V30 28 H -0.681385 -2.435535 0.516357 0
M  V30 29 H 4.617382 -5.028687 2.136949 0
M  V30 30 H 2.307726 1.770773 -3.159033 0
M  V30 31 H -1.137641 -1.398181 -1.482253 0
M  V30 32 H -3.148689 0.522329 -1.799436 0
M  V30 33 H -4.709133 1.921062 -0.584467 0
M  V30 34 H -2.278797 1.641797 2.838473 0
M  V30 35 H 1.225418 -0.500651 2.768632 0
M  V30 36 H -0.237194 -0.324147 3.757485 0
M  V30 37 H -0.056629 2.205779 3.453492 0
M  V30 38 H 1.514473 1.818262 2.581491 0
M  V30 39 H 1.746876 0.383472 4.627223 0
M  V30 END ATOM
M  V30 BEGIN BOND
M  V30 1 1 1 2
M  V30 2 2 2 3
M  V30 3 1 3 4
M  V30 4 2 4 5
M  V30 5 1 4 6
M  V30 6 1 3 7
M  V30 7 1 7 8
M  V30 8 2 8 9
M  V30 9 1 9 10
M  V30 10 2 10 11
M  V30 11 1 11 12
M  V30 12 1 12 13
M  V30 13 1 13 14
M  V30 14 2 14 15
M  V30 15 1 15 16
M  V30 16 2 16 17
M  V30 17 1 17 18
M  V30 18 1 17 19
M  V30 19 2 19 20
M  V30 20 1 20 21
M  V30 21 1 21 22
M  V30 22 1 22 23
M  V30 23 1 23 24
M  V30 24 2 12 25
M  V30 25 1 25 2
M  V30 26 1 25 8
M  V30 27 1 20 14
M  V30 28 1 1 26
M  V30 29 1 1 27
M  V30 30 1 1 28
M  V30 31 1 6 29
M  V30 32 1 10 30
M  V30 33 1 13 31
M  V30 34 1 15 32
M  V30 35 1 16 33
M  V30 36 1 19 34
M  V30 37 1 22 35
M  V30 38 1 22 36
M  V30 39 1 23 37
M  V30 40 1 23 38
M  V30 41 1 24 39
M  V30 END BOND
M  V30 END CTAB
M  END
>  <Dataset>  (389) 
ChEMBL_Kinases

>  <Ligand_Instance>  (389) 
nan

>  <PDB_ID>  (389) 
nan

>  <Standardized_SMILES>  (389) 
Cc1c(C(=O)O)sc2ncnc(Nc3ccc(F)cc3OCCO)c12

>  <Name>  (389) 
nan

>  <Pocket>  (389) 
nan

>  <ATP_Site>  (389) 
nan

>  <Peripheral>  (389) 
nan

>  <Num_H_Atoms_ProtBoundConf>  (389) 
nan

>  <Num_Resolved_Atoms>  (389) 
nan

>  <Num_Not_Resolved_Atoms>  (389) 
nan

$$$$
CHEMBL3754730
     RDKit          3D

  0  0  0  0  0  0  0  0  0  0999 V3000
M  V30 BEGIN CTAB
M  V30 COUNTS 33 35 0 0 0
M  V30 BEGIN ATOM
M  V30 1 N -0.980362 0.536473 3.792225 0
M  V30 2 C -0.192841 -0.181733 2.852402 0
M  V30 3 N 0.873702 -0.942314 3.150177 0
M  V30 4 C 1.591594 -1.607593 2.217368 0
M  V30 5 C 1.184752 -1.481521 0.893020 0
M  V30 6 C 1.976522 -2.208421 -0.098365 0
M  V30 7 C 2.578437 -3.406262 0.228394 0
M  V30 8 C 3.310472 -4.007367 -0.797586 0
M  V30 9 N 3.387654 -3.412146 -2.001098 0
M  V30 10 C 2.799924 -2.244861 -2.316475 0
M  V30 11 O 2.909947 -1.738651 -3.462941 0
M  V30 12 C 2.063179 -1.605648 -1.341078 0
M  V30 13 C 0.077625 -0.696126 0.553263 0
M  V30 14 C -0.617344 -0.037112 1.565601 0
M  V30 15 C -1.732282 0.728463 1.009599 0
M  V30 16 C -2.618773 0.240310 0.064232 0
M  V30 17 C -3.647375 1.049587 -0.406475 0
M  V30 18 C -3.823286 2.348213 0.041014 0
M  V30 19 Cl -5.111041 3.379143 -0.541310 0
M  V30 20 C -2.915212 2.784096 0.980142 0
M  V30 21 C -1.861848 2.016443 1.490232 0
M  V30 22 H -0.371489 1.327921 4.091934 0
M  V30 23 H -1.956557 0.223869 4.040613 0
M  V30 24 H 2.425710 -2.189270 2.546481 0
M  V30 25 H 2.500825 -3.854823 1.189916 0
M  V30 26 H 3.782433 -4.944967 -0.545844 0
M  V30 27 H 3.954593 -3.904348 -2.749984 0
M  V30 28 H 1.602783 -0.679623 -1.608707 0
M  V30 29 H -0.121189 -0.692081 -0.517261 0
M  V30 30 H -2.460679 -0.772681 -0.267370 0
M  V30 31 H -4.337410 0.636062 -1.157583 0
M  V30 32 H -3.074885 3.818453 1.319997 0
M  V30 33 H -1.256602 2.536444 2.220574 0
M  V30 END ATOM
M  V30 BEGIN BOND
M  V30 1 1 1 2
M  V30 2 2 2 3
M  V30 3 1 3 4
M  V30 4 2 4 5
M  V30 5 1 5 6
M  V30 6 1 6 7
M  V30 7 2 7 8
M  V30 8 1 8 9
M  V30 9 1 9 10
M  V30 10 2 10 11
M  V30 11 1 10 12
M  V30 12 1 5 13
M  V30 13 2 13 14
M  V30 14 1 14 15
M  V30 15 2 15 16
M  V30 16 1 16 17
M  V30 17 2 17 18
M  V30 18 1 18 19
M  V30 19 1 18 20
M  V30 20 2 20 21
M  V30 21 1 14 2
M  V30 22 1 21 15
M  V30 23 2 12 6
M  V30 24 1 1 22
M  V30 25 1 1 23
M  V30 26 1 4 24
M  V30 27 1 7 25
M  V30 28 1 8 26
M  V30 29 1 9 27
M  V30 30 1 12 28
M  V30 31 1 13 29
M  V30 32 1 16 30
M  V30 33 1 17 31
M  V30 34 1 20 32
M  V30 35 1 21 33
M  V30 END BOND
M  V30 END CTAB
M  END
>  <Dataset>  (390) 
ChEMBL_Kinases

>  <Ligand_Instance>  (390) 
nan

>  <PDB_ID>  (390) 
nan

>  <Standardized_SMILES>  (390) 
Nc1ncc(-c2cc[nH]c(=O)c2)cc1-c1ccc(Cl)cc1

>  <Name>  (390) 
nan

>  <Pocket>  (390) 
nan

>  <ATP_Site>  (390) 
nan

>  <Peripheral>  (390) 
nan

>  <Num_H_Atoms_ProtBoundConf>  (390) 
nan

>  <Num_Resolved_Atoms>  (390) 
nan

>  <Num_Not_Resolved_Atoms>  (390) 
nan

$$$$
CHEMBL3754728
     RDKit          3D

  0  0  0  0  0  0  0  0  0  0999 V3000
M  V30 BEGIN CTAB
M  V30 COUNTS 27 29 0 0 0
M  V30 BEGIN ATOM
M  V30 1 C 0.001660 -3.820792 2.415835 0
M  V30 2 C 0.020654 -3.072357 3.705904 0
M  V30 3 O 1.188336 -2.319545 3.937590 0
M  V30 4 C 1.509364 -1.307590 3.036703 0
M  V30 5 S 2.974042 -0.539512 3.504028 0
M  V30 6 N 2.999254 0.676247 2.082602 0
M  V30 7 C 1.875951 0.321677 1.445382 0
M  V30 8 C 1.401455 0.919062 0.293797 0
M  V30 9 C 0.242995 0.559323 -0.364568 0
M  V30 10 C -0.169739 1.259385 -1.587194 0
M  V30 11 C -1.488402 1.376748 -1.827291 0
M  V30 12 C -1.816445 2.086274 -3.069787 0
M  V30 13 S -0.203347 2.545835 -3.824697 0
M  V30 14 C 0.800658 1.758712 -2.428823 0
M  V30 15 C -0.512826 -0.489577 0.170064 0
M  V30 16 N -0.048592 -1.069713 1.291468 0
M  V30 17 C 1.077181 -0.699345 1.906674 0
M  V30 18 H 0.857808 -3.666219 1.754370 0
M  V30 19 H -0.026084 -4.931414 2.622238 0
M  V30 20 H -0.930410 -3.657765 1.808522 0
M  V30 21 H -0.841543 -2.347696 3.668978 0
M  V30 22 H -0.216531 -3.757015 4.545587 0
M  V30 23 H 1.945787 1.746683 -0.175167 0
M  V30 24 H -2.347992 1.045619 -1.276843 0
M  V30 25 H -2.840739 2.295895 -3.462461 0
M  V30 26 H 1.824164 1.740170 -2.369090 0
M  V30 27 H -1.430997 -0.797450 -0.325586 0
M  V30 END ATOM
M  V30 BEGIN BOND
M  V30 1 1 1 2
M  V30 2 1 2 3
M  V30 3 1 3 4
M  V30 4 1 4 5
M  V30 5 1 5 6
M  V30 6 2 6 7
M  V30 7 1 7 8
M  V30 8 2 8 9
M  V30 9 1 9 10
M  V30 10 1 10 11
M  V30 11 2 11 12
M  V30 12 1 12 13
M  V30 13 1 13 14
M  V30 14 1 9 15
M  V30 15 2 15 16
M  V30 16 1 16 17
M  V30 17 2 17 4
M  V30 18 1 17 7
M  V30 19 2 14 10
M  V30 20 1 1 18
M  V30 21 1 1 19
M  V30 22 1 1 20
M  V30 23 1 2 21
M  V30 24 1 2 22
M  V30 25 1 8 23
M  V30 26 1 11 24
M  V30 27 1 12 25
M  V30 28 1 14 26
M  V30 29 1 15 27
M  V30 END BOND
M  V30 END CTAB
M  END
>  <Dataset>  (391) 
ChEMBL_Kinases

>  <Ligand_Instance>  (391) 
nan

>  <PDB_ID>  (391) 
nan

>  <Standardized_SMILES>  (391) 
CCOc1snc2cc(-c3ccsc3)cnc12

>  <Name>  (391) 
nan

>  <Pocket>  (391) 
nan

>  <ATP_Site>  (391) 
nan

>  <Peripheral>  (391) 
nan

>  <Num_H_Atoms_ProtBoundConf>  (391) 
nan

>  <Num_Resolved_Atoms>  (391) 
nan

>  <Num_Not_Resolved_Atoms>  (391) 
nan

$$$$
CHEMBL589415
     RDKit          3D

  0  0  0  0  0  0  0  0  0  0999 V3000
M  V30 BEGIN CTAB
M  V30 COUNTS 59 63 0 0 0
M  V30 BEGIN ATOM
M  V30 1 C 2.389603 -4.453062 4.687447 0
M  V30 2 C 2.012132 -3.141047 4.130449 0
M  V30 3 C 2.339731 -1.986102 4.801363 0
M  V30 4 C 1.999372 -0.751074 4.303090 0
M  V30 5 C 1.317911 -0.575076 3.118805 0
M  V30 6 N 1.032880 0.727828 2.724638 0
M  V30 7 C 0.337832 1.253705 1.608014 0
M  V30 8 O -0.031909 0.267434 0.935776 0
M  V30 9 C 0.165980 2.676387 1.419289 0
M  V30 10 N 0.940929 3.590953 2.045051 0
M  V30 11 C 0.583002 4.819554 1.669937 0
M  V30 12 C 1.176954 6.103049 2.118163 0
M  V30 13 F 1.323194 6.932023 1.026835 0
M  V30 14 F 2.424952 5.825178 2.635254 0
M  V30 15 F 0.404305 6.689098 3.083725 0
M  V30 16 N -0.419007 4.641580 0.810492 0
M  V30 17 C -0.714959 3.346892 0.624343 0
M  V30 18 C -1.741994 2.891098 -0.264501 0
M  V30 19 C -2.435649 1.732641 -0.393362 0
M  V30 20 C -3.345366 1.395722 -1.348244 0
M  V30 21 C -3.652565 2.295263 -2.340476 0
M  V30 22 C -3.005193 3.507375 -2.303274 0
M  V30 23 C -2.099739 3.761192 -1.300342 0
M  V30 24 C 1.024214 -1.764395 2.505161 0
M  V30 25 C 1.330459 -3.028490 2.939748 0
M  V30 26 N 1.018499 -4.223700 2.255574 0
M  V30 27 C 0.414267 -4.577965 1.025259 0
M  V30 28 C -0.453830 -5.662421 0.845163 0
M  V30 29 C -0.980235 -5.945969 -0.391326 0
M  V30 30 C -0.683019 -5.186494 -1.500356 0
M  V30 31 N -1.261928 -5.574000 -2.630865 0
M  V30 32 C -1.000519 -4.857521 -3.752852 0
M  V30 33 N -0.174531 -3.800054 -3.661033 0
M  V30 34 C 0.159315 -2.975907 -4.820880 0
M  V30 35 C 0.414373 -3.407220 -2.506894 0
M  V30 36 O 1.186343 -2.415854 -2.430291 0
M  V30 37 C 0.170053 -4.113510 -1.347763 0
M  V30 38 C 0.701931 -3.825162 -0.104983 0
M  V30 39 H 1.458858 -5.003773 4.983337 0
M  V30 40 H 2.929569 -5.094088 3.957279 0
M  V30 41 H 2.962732 -4.314487 5.609033 0
M  V30 42 H 2.879268 -2.102880 5.742424 0
M  V30 43 H 2.326919 0.073116 4.946276 0
M  V30 44 H 1.392793 1.504818 3.366649 0
M  V30 45 H -0.888583 5.477165 0.358364 0
M  V30 46 H -2.290207 0.996028 0.368859 0
M  V30 47 H -3.828212 0.441430 -1.342733 0
M  V30 48 H -4.354414 2.072343 -3.101998 0
M  V30 49 H -3.237960 4.220181 -3.076256 0
M  V30 50 H -1.654724 4.763383 -1.386855 0
M  V30 51 H 0.481362 -1.738928 1.579087 0
M  V30 52 H 1.272256 -5.140915 2.711641 0
M  V30 53 H -0.632279 -6.204252 1.769134 0
M  V30 54 H -1.635103 -6.806954 -0.397208 0
M  V30 55 H -1.390676 -5.042841 -4.743161 0
M  V30 56 H 1.248811 -3.059146 -5.015614 0
M  V30 57 H -0.171591 -1.935860 -4.641859 0
M  V30 58 H -0.412741 -3.331438 -5.723820 0
M  V30 59 H 1.345005 -2.979787 -0.169167 0
M  V30 END ATOM
M  V30 BEGIN BOND
M  V30 1 1 1 2
M  V30 2 2 2 3
M  V30 3 1 3 4
M  V30 4 2 4 5
M  V30 5 1 5 6
M  V30 6 1 6 7
M  V30 7 2 7 8
M  V30 8 1 7 9
M  V30 9 1 9 10
M  V30 10 2 10 11
M  V30 11 1 11 12
M  V30 12 1 12 13
M  V30 13 1 12 14
M  V30 14 1 12 15
M  V30 15 1 11 16
M  V30 16 1 16 17
M  V30 17 1 17 18
M  V30 18 2 18 19
M  V30 19 1 19 20
M  V30 20 2 20 21
M  V30 21 1 21 22
M  V30 22 2 22 23
M  V30 23 1 5 24
M  V30 24 2 24 25
M  V30 25 1 25 26
M  V30 26 1 26 27
M  V30 27 2 27 28
M  V30 28 1 28 29
M  V30 29 2 29 30
M  V30 30 1 30 31
M  V30 31 2 31 32
M  V30 32 1 32 33
M  V30 33 1 33 34
M  V30 34 1 33 35
M  V30 35 2 35 36
M  V30 36 1 35 37
M  V30 37 2 37 38
M  V30 38 1 25 2
M  V30 39 1 38 27
M  V30 40 2 17 9
M  V30 41 1 23 18
M  V30 42 1 37 30
M  V30 43 1 1 39
M  V30 44 1 1 40
M  V30 45 1 1 41
M  V30 46 1 3 42
M  V30 47 1 4 43
M  V30 48 1 6 44
M  V30 49 1 16 45
M  V30 50 1 19 46
M  V30 51 1 20 47
M  V30 52 1 21 48
M  V30 53 1 22 49
M  V30 54 1 23 50
M  V30 55 1 24 51
M  V30 56 1 26 52
M  V30 57 1 28 53
M  V30 58 1 29 54
M  V30 59 1 32 55
M  V30 60 1 34 56
M  V30 61 1 34 57
M  V30 62 1 34 58
M  V30 63 1 38 59
M  V30 END BOND
M  V30 END CTAB
M  END
>  <Dataset>  (392) 
ChEMBL_Kinases

>  <Ligand_Instance>  (392) 
nan

>  <PDB_ID>  (392) 
nan

>  <Standardized_SMILES>  (392) 
Cc1ccc(NC(=O)c2nc(C(F)(F)F)[nH]c2-c2ccccc2)cc1Nc1ccc2ncn(C)c(=O)c2c1

>  <Name>  (392) 
nan

>  <Pocket>  (392) 
nan

>  <ATP_Site>  (392) 
nan

>  <Peripheral>  (392) 
nan

>  <Num_H_Atoms_ProtBoundConf>  (392) 
nan

>  <Num_Resolved_Atoms>  (392) 
nan

>  <Num_Not_Resolved_Atoms>  (392) 
nan

$$$$
CHEMBL589359
     RDKit          3D

  0  0  0  0  0  0  0  0  0  0999 V3000
M  V30 BEGIN CTAB
M  V30 COUNTS 57 59 0 0 0
M  V30 BEGIN ATOM
M  V30 1 N 4.757490 -6.890244 -4.327333 0
M  V30 2 C 4.787621 -5.835037 -3.855760 0
M  V30 3 C 4.815993 -4.536776 -3.250255 0
M  V30 4 C 4.127072 -4.279280 -2.105991 0
M  V30 5 C 4.156013 -3.043469 -1.531591 0
M  V30 6 C 4.860136 -1.975033 -2.036169 0
M  V30 7 N 4.940907 -0.667960 -1.500286 0
M  V30 8 C 4.338829 -0.148220 -0.353153 0
M  V30 9 O 3.614708 -0.880408 0.342691 0
M  V30 10 N 4.498745 1.190308 0.086669 0
M  V30 11 C 3.876681 1.739398 1.272302 0
M  V30 12 C 2.438141 2.046435 1.055773 0
M  V30 13 C 2.204191 3.333650 0.553050 0
M  V30 14 C 0.934785 3.807386 0.291227 0
M  V30 15 C -0.156135 2.997089 0.527294 0
M  V30 16 C 0.070565 1.729352 1.022243 0
M  V30 17 C -1.000159 0.754945 1.323024 0
M  V30 18 O -0.809184 -0.414395 1.765730 0
M  V30 19 N -2.356578 1.052838 1.138034 0
M  V30 20 C -3.178931 -0.101586 1.518544 0
M  V30 21 C -4.599958 0.309622 1.290381 0
M  V30 22 C -5.600094 -0.768561 1.631700 0
M  V30 23 C -5.542043 -1.198709 3.045843 0
M  V30 24 C -5.065685 -2.595877 3.286267 0
M  V30 25 C -4.710562 -3.368428 2.038075 0
M  V30 26 N -5.801859 -3.152494 1.105020 0
M  V30 27 C -5.557031 -1.818457 0.583471 0
M  V30 28 C 1.344078 1.269587 1.279114 0
M  V30 29 C 5.546462 -2.266165 -3.193578 0
M  V30 30 C 5.531770 -3.505954 -3.790931 0
M  V30 31 H 3.545882 -5.094298 -1.655742 0
M  V30 32 H 3.593779 -2.920905 -0.641820 0
M  V30 33 H 5.524161 0.032902 -2.008437 0
M  V30 34 H 5.120632 1.816109 -0.508686 0
M  V30 35 H 4.438663 2.656445 1.549266 0
M  V30 36 H 3.965289 0.962682 2.065063 0
M  V30 37 H 2.996053 4.052719 0.332185 0
M  V30 38 H 0.750512 4.800507 -0.096756 0
M  V30 39 H -1.177860 3.300528 0.346108 0
M  V30 40 H -2.668268 1.982085 0.777775 0
M  V30 41 H -2.881535 -0.899791 0.779480 0
M  V30 42 H -2.947409 -0.485297 2.509232 0
M  V30 43 H -4.787587 1.176998 1.965085 0
M  V30 44 H -4.715290 0.570425 0.223128 0
M  V30 45 H -6.600443 -0.256979 1.494855 0
M  V30 46 H -6.501504 -1.068166 3.594019 0
M  V30 47 H -4.820523 -0.509161 3.577351 0
M  V30 48 H -4.151732 -2.632783 3.930500 0
M  V30 49 H -5.818745 -3.202487 3.831763 0
M  V30 50 H -3.763386 -2.966863 1.618381 0
M  V30 51 H -4.608121 -4.432490 2.341843 0
M  V30 52 H -5.836227 -3.823863 0.330361 0
M  V30 53 H -4.557502 -1.856027 0.088087 0
M  V30 54 H -6.277819 -1.645437 -0.251735 0
M  V30 55 H 1.544613 0.299582 1.663197 0
M  V30 56 H 6.136714 -1.492706 -3.677831 0
M  V30 57 H 6.093700 -3.661037 -4.696983 0
M  V30 END ATOM
M  V30 BEGIN BOND
M  V30 1 3 1 2
M  V30 2 1 2 3
M  V30 3 2 3 4
M  V30 4 1 4 5
M  V30 5 2 5 6
M  V30 6 1 6 7
M  V30 7 1 7 8
M  V30 8 2 8 9
M  V30 9 1 8 10
M  V30 10 1 10 11
M  V30 11 1 11 12
M  V30 12 2 12 13
M  V30 13 1 13 14
M  V30 14 2 14 15
M  V30 15 1 15 16
M  V30 16 1 16 17
M  V30 17 2 17 18
M  V30 18 1 17 19
M  V30 19 1 19 20
M  V30 20 1 20 21
M  V30 21 1 21 22
M  V30 22 1 22 23
M  V30 23 1 23 24
M  V30 24 1 24 25
M  V30 25 1 25 26
M  V30 26 1 26 27
M  V30 27 2 16 28
M  V30 28 1 6 29
M  V30 29 2 29 30
M  V30 30 1 30 3
M  V30 31 1 28 12
M  V30 32 1 27 22
M  V30 33 1 4 31
M  V30 34 1 5 32
M  V30 35 1 7 33
M  V30 36 1 10 34
M  V30 37 1 11 35
M  V30 38 1 11 36
M  V30 39 1 13 37
M  V30 40 1 14 38
M  V30 41 1 15 39
M  V30 42 1 19 40
M  V30 43 1 20 41
M  V30 44 1 20 42
M  V30 45 1 21 43
M  V30 46 1 21 44
M  V30 47 1 22 45
M  V30 48 1 23 46
M  V30 49 1 23 47
M  V30 50 1 24 48
M  V30 51 1 24 49
M  V30 52 1 25 50
M  V30 53 1 25 51
M  V30 54 1 26 52
M  V30 55 1 27 53
M  V30 56 1 27 54
M  V30 57 1 28 55
M  V30 58 1 29 56
M  V30 59 1 30 57
M  V30 END BOND
M  V30 END CTAB
M  END
>  <Dataset>  (393) 
ChEMBL_Kinases

>  <Ligand_Instance>  (393) 
nan

>  <PDB_ID>  (393) 
nan

>  <Standardized_SMILES>  (393) 
N#Cc1ccc(NC(=O)NCc2cccc(C(=O)NCCC3CCCNC3)c2)cc1

>  <Name>  (393) 
nan

>  <Pocket>  (393) 
nan

>  <ATP_Site>  (393) 
nan

>  <Peripheral>  (393) 
nan

>  <Num_H_Atoms_ProtBoundConf>  (393) 
nan

>  <Num_Resolved_Atoms>  (393) 
nan

>  <Num_Not_Resolved_Atoms>  (393) 
nan

$$$$
CHEMBL375486
     RDKit          3D

  0  0  0  0  0  0  0  0  0  0999 V3000
M  V30 BEGIN CTAB
M  V30 COUNTS 56 60 0 0 0
M  V30 BEGIN ATOM
M  V30 1 C 3.406039 3.687291 3.633192 0
M  V30 2 N 4.661297 3.792857 2.922508 0
M  V30 3 C 5.884987 3.722123 3.470098 0
M  V30 4 C 6.828897 3.874353 2.491724 0
M  V30 5 C 6.083600 4.037576 1.343339 0
M  V30 6 C 4.706125 3.988375 1.597841 0
M  V30 7 C 3.743778 4.147978 0.531127 0
M  V30 8 N 3.871121 5.160312 -0.361143 0
M  V30 9 N 2.882823 5.095252 -1.237322 0
M  V30 10 C 2.097208 4.065480 -0.955080 0
M  V30 11 C 0.956537 3.468107 -1.448159 0
M  V30 12 N 0.398746 2.378931 -0.894265 0
M  V30 13 C 0.919485 1.803746 0.176383 0
M  V30 14 C 0.252147 0.627231 0.712245 0
M  V30 15 C 0.771789 0.007362 1.826926 0
M  V30 16 N 0.161953 -1.080795 2.329639 0
M  V30 17 C -0.950818 -1.586507 1.770898 0
M  V30 18 C -1.557059 -1.052602 0.658188 0
M  V30 19 O -2.625672 -1.336463 -0.084113 0
M  V30 20 C -3.627152 -2.239405 -0.168218 0
M  V30 21 C -3.312972 -3.674376 -0.421956 0 CFG=1
M  V30 22 N -2.492492 -4.327998 0.551544 0
M  V30 23 C -4.599680 -4.455151 -0.599974 0
M  V30 24 C -4.414024 -5.880836 -0.855857 0
M  V30 25 C -4.290186 -6.209073 -2.209319 0
M  V30 26 C -4.112579 -7.492145 -2.671445 0
M  V30 27 C -4.057165 -8.492148 -1.723966 0
M  V30 28 C -4.173736 -8.236354 -0.353449 0
M  V30 29 C -4.348697 -6.933676 0.031280 0
M  V30 30 C -0.889887 0.085825 0.160688 0
M  V30 31 C 2.056919 2.327331 0.740171 0
M  V30 32 C 2.617882 3.445128 0.161522 0
M  V30 33 H 3.198678 2.592165 3.786989 0
M  V30 34 H 3.487692 4.086310 4.676183 0
M  V30 35 H 2.572526 4.169182 3.100054 0
M  V30 36 H 6.071894 3.566540 4.534418 0
M  V30 37 H 7.900033 3.872926 2.561898 0
M  V30 38 H 6.565383 4.186208 0.364135 0
M  V30 39 H 2.644572 5.698569 -2.067972 0
M  V30 40 H 0.493301 3.904703 -2.325860 0
M  V30 41 H 1.642445 0.283067 2.383784 0
M  V30 42 H -1.451567 -2.447607 2.172968 0
M  V30 43 H -4.350024 -2.203677 0.719069 0
M  V30 44 H -4.312169 -1.907974 -1.020504 0
M  V30 45 H -2.738031 -3.769816 -1.395811 0
M  V30 46 H -2.513867 -5.361845 0.447268 0
M  V30 47 H -1.467267 -4.082085 0.398252 0
M  V30 48 H -5.170839 -4.365971 0.367479 0
M  V30 49 H -5.240393 -3.945095 -1.340752 0
M  V30 50 H -4.326213 -5.456686 -3.011583 0
M  V30 51 H -4.018367 -7.736843 -3.709851 0
M  V30 52 H -3.918652 -9.537727 -2.002514 0
M  V30 53 H -4.135639 -8.985786 0.410557 0
M  V30 54 H -4.450424 -6.629573 1.072685 0
M  V30 55 H -1.219426 0.650853 -0.717533 0
M  V30 56 H 2.510643 1.896572 1.594437 0
M  V30 END ATOM
M  V30 BEGIN BOND
M  V30 1 1 1 2
M  V30 2 1 2 3
M  V30 3 2 3 4
M  V30 4 1 4 5
M  V30 5 2 5 6
M  V30 6 1 6 7
M  V30 7 2 7 8
M  V30 8 1 8 9
M  V30 9 1 9 10
M  V30 10 2 10 11
M  V30 11 1 11 12
M  V30 12 2 12 13
M  V30 13 1 13 14
M  V30 14 2 14 15
M  V30 15 1 15 16
M  V30 16 2 16 17
M  V30 17 1 17 18
M  V30 18 1 18 19
M  V30 19 1 19 20
M  V30 20 1 20 21
M  V30 21 1 21 22
M  V30 22 1 21 23
M  V30 23 1 23 24
M  V30 24 2 24 25
M  V30 25 1 25 26
M  V30 26 2 26 27
M  V30 27 1 27 28
M  V30 28 2 28 29
M  V30 29 2 18 30
M  V30 30 1 13 31
M  V30 31 2 31 32
M  V30 32 1 6 2
M  V30 33 1 32 7
M  V30 34 1 32 10
M  V30 35 1 30 14
M  V30 36 1 29 24
M  V30 37 1 1 33
M  V30 38 1 1 34
M  V30 39 1 1 35
M  V30 40 1 3 36
M  V30 41 1 4 37
M  V30 42 1 5 38
M  V30 43 1 9 39
M  V30 44 1 11 40
M  V30 45 1 15 41
M  V30 46 1 17 42
M  V30 47 1 20 43
M  V30 48 1 20 44
M  V30 49 1 21 45 CFG=3
M  V30 50 1 22 46
M  V30 51 1 22 47
M  V30 52 1 23 48
M  V30 53 1 23 49
M  V30 54 1 25 50
M  V30 55 1 26 51
M  V30 56 1 27 52
M  V30 57 1 28 53
M  V30 58 1 29 54
M  V30 59 1 30 55
M  V30 60 1 31 56
M  V30 END BOND
M  V30 END CTAB
M  END
>  <Dataset>  (394) 
ChEMBL_Kinases

>  <Ligand_Instance>  (394) 
nan

>  <PDB_ID>  (394) 
nan

>  <Standardized_SMILES>  (394) 
Cn1cccc1-c1n[nH]c2cnc(-c3cncc(OC[C@@H](N)Cc4ccccc4)c3)cc12

>  <Name>  (394) 
nan

>  <Pocket>  (394) 
nan

>  <ATP_Site>  (394) 
nan

>  <Peripheral>  (394) 
nan

>  <Num_H_Atoms_ProtBoundConf>  (394) 
nan

>  <Num_Resolved_Atoms>  (394) 
nan

>  <Num_Not_Resolved_Atoms>  (394) 
nan

$$$$
CHEMBL3702343
     RDKit          3D

  0  0  0  0  0  0  0  0  0  0999 V3000
M  V30 BEGIN CTAB
M  V30 COUNTS 42 44 0 0 0
M  V30 BEGIN ATOM
M  V30 1 C 2.356946 -1.841754 0.369562 0
M  V30 2 C 2.071501 -2.129716 -1.066144 0
M  V30 3 C 3.073477 -2.706447 -1.793557 0
M  V30 4 C 4.438944 -3.154245 -1.493944 0
M  V30 5 N 5.054134 -3.071064 -0.225065 0
M  V30 6 O 5.201711 -3.654932 -2.323030 0
M  V30 7 S 2.454059 -2.905683 -3.409617 0
M  V30 8 C 0.800496 -2.177218 -3.034112 0
M  V30 9 N -0.305013 -1.980665 -3.821395 0
M  V30 10 C -1.412106 -1.423158 -3.267258 0
M  V30 11 N -1.322664 -1.113615 -1.989823 0
M  V30 12 C -0.253674 -1.298929 -1.211535 0
M  V30 13 N -0.475321 -0.876110 0.126360 0
M  V30 14 C -0.642089 0.509227 0.412368 0
M  V30 15 C -0.605467 1.463507 -0.618114 0
M  V30 16 C -0.771757 2.820086 -0.415916 0
M  V30 17 C -0.989127 3.296582 0.868481 0
M  V30 18 F -1.155748 4.621423 1.080293 0
M  V30 19 C -1.021082 2.344627 1.866361 0
M  V30 20 C -0.858018 0.995188 1.685250 0
M  V30 21 O -0.890140 0.056934 2.685269 0
M  V30 22 C -1.086718 0.237127 4.045464 0
M  V30 23 C 0.161368 -0.042006 4.865253 0
M  V30 24 C -2.203817 -0.648589 4.538773 0
M  V30 25 F -3.390440 -0.371067 3.895484 0
M  V30 26 C 0.912022 -1.856658 -1.688033 0
M  V30 27 H 2.134451 -2.691113 1.042820 0
M  V30 28 H 3.423101 -1.571111 0.533658 0
M  V30 29 H 1.790167 -0.977597 0.762700 0
M  V30 30 H 5.065911 -3.663769 0.635443 0
M  V30 31 H 5.527489 -2.962959 0.688507 0
M  V30 32 H -2.181668 -1.340117 -4.012730 0
M  V30 33 H -0.525403 -1.533313 0.924005 0
M  V30 34 H -0.432174 1.068089 -1.627728 0
M  V30 35 H -0.723798 3.455554 -1.281347 0
M  V30 36 H -1.192969 2.746814 2.855674 0
M  V30 37 H -1.338539 1.292191 4.249137 0
M  V30 38 H 0.022326 -0.937089 5.537739 0
M  V30 39 H 0.971729 -0.323491 4.159283 0
M  V30 40 H 0.507180 0.797833 5.461128 0
M  V30 41 H -1.962036 -1.726009 4.382127 0
M  V30 42 H -2.362354 -0.519307 5.639922 0
M  V30 END ATOM
M  V30 BEGIN BOND
M  V30 1 1 1 2
M  V30 2 2 2 3
M  V30 3 1 3 4
M  V30 4 1 4 5
M  V30 5 2 4 6
M  V30 6 1 3 7
M  V30 7 1 7 8
M  V30 8 2 8 9
M  V30 9 1 9 10
M  V30 10 2 10 11
M  V30 11 1 11 12
M  V30 12 1 12 13
M  V30 13 1 13 14
M  V30 14 2 14 15
M  V30 15 1 15 16
M  V30 16 2 16 17
M  V30 17 1 17 18
M  V30 18 1 17 19
M  V30 19 2 19 20
M  V30 20 1 20 21
M  V30 21 1 21 22
M  V30 22 1 22 23
M  V30 23 1 22 24
M  V30 24 1 24 25
M  V30 25 2 12 26
M  V30 26 1 26 2
M  V30 27 1 26 8
M  V30 28 1 20 14
M  V30 29 1 1 27
M  V30 30 1 1 28
M  V30 31 1 1 29
M  V30 32 1 5 30
M  V30 33 1 5 31
M  V30 34 1 10 32
M  V30 35 1 13 33
M  V30 36 1 15 34
M  V30 37 1 16 35
M  V30 38 1 19 36
M  V30 39 1 22 37
M  V30 40 1 23 38
M  V30 41 1 23 39
M  V30 42 1 23 40
M  V30 43 1 24 41
M  V30 44 1 24 42
M  V30 END BOND
M  V30 END CTAB
M  END
>  <Dataset>  (395) 
ChEMBL_Kinases

>  <Ligand_Instance>  (395) 
nan

>  <PDB_ID>  (395) 
nan

>  <Standardized_SMILES>  (395) 
Cc1c(C(N)=O)sc2ncnc(Nc3ccc(F)cc3OC(C)CF)c12

>  <Name>  (395) 
nan

>  <Pocket>  (395) 
nan

>  <ATP_Site>  (395) 
nan

>  <Peripheral>  (395) 
nan

>  <Num_H_Atoms_ProtBoundConf>  (395) 
nan

>  <Num_Resolved_Atoms>  (395) 
nan

>  <Num_Not_Resolved_Atoms>  (395) 
nan

$$$$
CHEMBL3702344
     RDKit          3D

  0  0  0  0  0  0  0  0  0  0999 V3000
M  V30 BEGIN CTAB
M  V30 COUNTS 51 53 0 0 0
M  V30 BEGIN ATOM
M  V30 1 C 0.556782 0.055379 1.628181 0
M  V30 2 C 1.145213 0.622478 0.397529 0
M  V30 3 C 2.502597 0.444959 0.358521 0
M  V30 4 C 3.658632 -0.081423 1.074787 0
M  V30 5 O 4.807805 0.006508 0.577348 0
M  V30 6 N 3.728508 -0.719319 2.317647 0
M  V30 7 C 4.704351 -1.283771 3.179182 0
M  V30 8 C 5.691936 -0.244053 3.636552 0
M  V30 9 O 6.344555 0.296978 2.572022 0
M  V30 10 S 2.980129 1.195803 -1.229796 0
M  V30 11 C 1.327555 1.686071 -1.707682 0
M  V30 12 N 0.817649 2.332034 -2.782106 0
M  V30 13 C -0.492671 2.597860 -2.892084 0
M  V30 14 N -1.236436 2.174231 -1.862781 0
M  V30 15 C -0.769672 1.536509 -0.792389 0
M  V30 16 N -1.826291 1.256761 0.101288 0
M  V30 17 C -2.982599 0.435750 0.306544 0
M  V30 18 C -4.089601 1.269361 0.496975 0
M  V30 19 C -5.346774 0.716753 0.717298 0
M  V30 20 C -5.440265 -0.638406 0.735745 0
M  V30 21 F -6.630014 -1.231471 0.946283 0
M  V30 22 C -4.340704 -1.435231 0.545409 0
M  V30 23 C -3.071352 -0.963011 0.323697 0
M  V30 24 O -1.890032 -1.618314 0.114867 0
M  V30 25 C -1.795094 -2.999144 0.095321 0
M  V30 26 C -1.560120 -3.499932 -1.347387 0
M  V30 27 O -0.370682 -2.974305 -1.859755 0
M  V30 28 C -0.649136 -3.556042 0.931181 0
M  V30 29 O -0.760398 -3.223835 2.271935 0
M  V30 30 C 0.559588 1.248695 -0.646239 0
M  V30 31 H -0.527856 0.099642 1.704972 0
M  V30 32 H 0.768968 -1.058870 1.692506 0
M  V30 33 H 0.947212 0.582860 2.525883 0
M  V30 34 H 2.784002 -0.824812 2.786356 0
M  V30 35 H 5.324237 -2.080798 2.652818 0
M  V30 36 H 4.286058 -1.851724 4.047362 0
M  V30 37 H 6.361894 -0.609136 4.443886 0
M  V30 38 H 5.073638 0.569499 4.105360 0
M  V30 39 H 6.519056 1.265513 2.646669 0
M  V30 40 H -0.679630 3.109746 -3.804899 0
M  V30 41 H -1.602799 1.975031 0.861552 0
M  V30 42 H -4.099518 2.346371 0.496471 0
M  V30 43 H -6.245034 1.291337 0.873111 0
M  V30 44 H -4.458964 -2.498527 0.566792 0
M  V30 45 H -2.739836 -3.453089 0.408747 0
M  V30 46 H -1.464986 -4.600391 -1.261023 0
M  V30 47 H -2.422841 -3.280972 -2.002550 0
M  V30 48 H 0.028161 -3.671992 -2.470969 0
M  V30 49 H 0.304800 -3.132340 0.547479 0
M  V30 50 H -0.642215 -4.662700 0.853167 0
M  V30 51 H -0.840101 -4.049228 2.842880 0
M  V30 END ATOM
M  V30 BEGIN BOND
M  V30 1 1 1 2
M  V30 2 2 2 3
M  V30 3 1 3 4
M  V30 4 2 4 5
M  V30 5 1 4 6
M  V30 6 1 6 7
M  V30 7 1 7 8
M  V30 8 1 8 9
M  V30 9 1 3 10
M  V30 10 1 10 11
M  V30 11 2 11 12
M  V30 12 1 12 13
M  V30 13 2 13 14
M  V30 14 1 14 15
M  V30 15 1 15 16
M  V30 16 1 16 17
M  V30 17 2 17 18
M  V30 18 1 18 19
M  V30 19 2 19 20
M  V30 20 1 20 21
M  V30 21 1 20 22
M  V30 22 2 22 23
M  V30 23 1 23 24
M  V30 24 1 24 25
M  V30 25 1 25 26
M  V30 26 1 26 27
M  V30 27 1 25 28
M  V30 28 1 28 29
M  V30 29 2 15 30
M  V30 30 1 30 2
M  V30 31 1 30 11
M  V30 32 1 23 17
M  V30 33 1 1 31
M  V30 34 1 1 32
M  V30 35 1 1 33
M  V30 36 1 6 34
M  V30 37 1 7 35
M  V30 38 1 7 36
M  V30 39 1 8 37
M  V30 40 1 8 38
M  V30 41 1 9 39
M  V30 42 1 13 40
M  V30 43 1 16 41
M  V30 44 1 18 42
M  V30 45 1 19 43
M  V30 46 1 22 44
M  V30 47 1 25 45
M  V30 48 1 26 46
M  V30 49 1 26 47
M  V30 50 1 27 48
M  V30 51 1 28 49
M  V30 52 1 28 50
M  V30 53 1 29 51
M  V30 END BOND
M  V30 END CTAB
M  END
>  <Dataset>  (396) 
ChEMBL_Kinases

>  <Ligand_Instance>  (396) 
nan

>  <PDB_ID>  (396) 
nan

>  <Standardized_SMILES>  (396) 
Cc1c(C(=O)NCCO)sc2ncnc(Nc3ccc(F)cc3OC(CO)CO)c12

>  <Name>  (396) 
nan

>  <Pocket>  (396) 
nan

>  <ATP_Site>  (396) 
nan

>  <Peripheral>  (396) 
nan

>  <Num_H_Atoms_ProtBoundConf>  (396) 
nan

>  <Num_Resolved_Atoms>  (396) 
nan

>  <Num_Not_Resolved_Atoms>  (396) 
nan

$$$$
CHEMBL3702345
     RDKit          3D

  0  0  0  0  0  0  0  0  0  0999 V3000
M  V30 BEGIN CTAB
M  V30 COUNTS 44 46 0 0 0
M  V30 BEGIN ATOM
M  V30 1 C 0.362848 -2.606226 -0.017753 0
M  V30 2 C 1.230773 -2.406149 -1.204743 0
M  V30 3 C 1.728809 -3.549564 -1.825430 0
M  V30 4 C 1.626525 -4.933815 -1.602447 0
M  V30 5 N 0.900094 -5.514854 -0.534972 0
M  V30 6 O 2.177460 -5.788961 -2.339216 0
M  V30 7 S 2.725677 -2.893631 -3.223748 0
M  V30 8 C 2.400249 -1.154896 -2.869581 0
M  V30 9 N 2.825730 -0.080206 -3.500642 0
M  V30 10 C 2.471331 1.141926 -3.069972 0
M  V30 11 N 1.681414 1.130802 -1.988316 0
M  V30 12 C 1.244708 0.050153 -1.341880 0
M  V30 13 N 0.434384 0.399200 -0.233645 0
M  V30 14 C 1.062890 0.532667 1.060963 0
M  V30 15 C 2.419120 0.291027 1.107361 0
M  V30 16 C 3.072643 0.403759 2.330854 0
M  V30 17 C 2.368413 0.748974 3.459081 0
M  V30 18 F 2.972163 0.868124 4.668615 0
M  V30 19 C 1.016202 0.977010 3.345038 0
M  V30 20 C 0.318048 0.881789 2.168825 0
M  V30 21 O -1.018437 1.089035 1.955790 0
M  V30 22 C -1.982617 1.446363 2.900607 0
M  V30 23 C -2.535573 2.823261 2.551119 0
M  V30 24 O -1.487626 3.758687 2.564180 0
M  V30 25 C -3.097525 0.409939 2.849500 0
M  V30 26 O -2.611980 -0.856796 3.134660 0
M  V30 27 C 1.591012 -1.209735 -1.759773 0
M  V30 28 H 0.917897 -2.860092 0.885582 0
M  V30 29 H -0.369663 -1.783450 0.113827 0
M  V30 30 H -0.303128 -3.497699 -0.223748 0
M  V30 31 H 0.116921 -6.209980 -0.427008 0
M  V30 32 H 0.944201 -5.408249 0.509646 0
M  V30 33 H 2.827213 1.988577 -3.595598 0
M  V30 34 H -0.562084 0.533381 -0.451205 0
M  V30 35 H 3.061317 0.016493 0.289302 0
M  V30 36 H 4.132585 0.234322 2.470255 0
M  V30 37 H 0.447200 1.249447 4.221182 0
M  V30 38 H -1.540821 1.514773 3.913347 0
M  V30 39 H -2.946316 2.807683 1.525318 0
M  V30 40 H -3.301928 3.156853 3.270347 0
M  V30 41 H -1.275516 4.072701 1.635756 0
M  V30 42 H -3.613853 0.472742 1.871108 0
M  V30 43 H -3.887132 0.643842 3.620826 0
M  V30 44 H -3.145742 -1.560046 2.664178 0
M  V30 END ATOM
M  V30 BEGIN BOND
M  V30 1 1 1 2
M  V30 2 2 2 3
M  V30 3 1 3 4
M  V30 4 1 4 5
M  V30 5 2 4 6
M  V30 6 1 3 7
M  V30 7 1 7 8
M  V30 8 2 8 9
M  V30 9 1 9 10
M  V30 10 2 10 11
M  V30 11 1 11 12
M  V30 12 1 12 13
M  V30 13 1 13 14
M  V30 14 2 14 15
M  V30 15 1 15 16
M  V30 16 2 16 17
M  V30 17 1 17 18
M  V30 18 1 17 19
M  V30 19 2 19 20
M  V30 20 1 20 21
M  V30 21 1 21 22
M  V30 22 1 22 23
M  V30 23 1 23 24
M  V30 24 1 22 25
M  V30 25 1 25 26
M  V30 26 2 12 27
M  V30 27 1 27 2
M  V30 28 1 27 8
M  V30 29 1 20 14
M  V30 30 1 1 28
M  V30 31 1 1 29
M  V30 32 1 1 30
M  V30 33 1 5 31
M  V30 34 1 5 32
M  V30 35 1 10 33
M  V30 36 1 13 34
M  V30 37 1 15 35
M  V30 38 1 16 36
M  V30 39 1 19 37
M  V30 40 1 22 38
M  V30 41 1 23 39
M  V30 42 1 23 40
M  V30 43 1 24 41
M  V30 44 1 25 42
M  V30 45 1 25 43
M  V30 46 1 26 44
M  V30 END BOND
M  V30 END CTAB
M  END
>  <Dataset>  (397) 
ChEMBL_Kinases

>  <Ligand_Instance>  (397) 
nan

>  <PDB_ID>  (397) 
nan

>  <Standardized_SMILES>  (397) 
Cc1c(C(N)=O)sc2ncnc(Nc3ccc(F)cc3OC(CO)CO)c12

>  <Name>  (397) 
nan

>  <Pocket>  (397) 
nan

>  <ATP_Site>  (397) 
nan

>  <Peripheral>  (397) 
nan

>  <Num_H_Atoms_ProtBoundConf>  (397) 
nan

>  <Num_Resolved_Atoms>  (397) 
nan

>  <Num_Not_Resolved_Atoms>  (397) 
nan

$$$$
CHEMBL5091700
     RDKit          3D

  0  0  0  0  0  0  0  0  0  0999 V3000
M  V30 BEGIN CTAB
M  V30 COUNTS 66 70 0 0 0
M  V30 BEGIN ATOM
M  V30 1 C 1.434618 -4.179311 3.085027 0
M  V30 2 C 1.105972 -2.731983 3.041471 0
M  V30 3 C 0.798595 -2.078680 4.214204 0
M  V30 4 C 0.486078 -0.739485 4.233288 0
M  V30 5 F 0.190917 -0.159544 5.441752 0
M  V30 6 C 0.460574 0.027355 3.091842 0
M  V30 7 N 0.131184 1.398187 3.183048 0
M  V30 8 C 0.034092 2.392148 2.181295 0
M  V30 9 O 0.270245 2.050229 0.997902 0
M  V30 10 N -0.314286 3.739347 2.457156 0
M  V30 11 C -0.397842 4.706154 1.398314 0
M  V30 12 C -0.587164 4.143364 3.810973 0
M  V30 13 C 0.524111 4.590737 4.523146 0
M  V30 14 C 0.318894 4.992821 5.833716 0
M  V30 15 N -0.914343 4.946863 6.383759 0
M  V30 16 C -1.982388 4.510692 5.680847 0
M  V30 17 C -3.325151 4.486577 6.357079 0
M  V30 18 F -3.313945 5.364330 7.421862 0
M  V30 19 F -3.555694 3.193386 6.818944 0
M  V30 20 F -4.299209 4.811392 5.437802 0
M  V30 21 C -1.850259 4.096800 4.375848 0
M  V30 22 C 0.773212 -0.665433 1.948260 0
M  V30 23 C 1.092795 -2.003265 1.873868 0
M  V30 24 C 1.412055 -2.649944 0.605872 0
M  V30 25 C 2.456995 -3.516587 0.359869 0
M  V30 26 C 2.650087 -4.063538 -0.892255 0
M  V30 27 C 1.794228 -3.750572 -1.928893 0
M  V30 28 C 0.735488 -2.874625 -1.686414 0
M  V30 29 C 0.535328 -2.320647 -0.428975 0
M  V30 30 O -0.207496 -2.472471 -2.649743 0
M  V30 31 C -0.440331 -2.846850 -3.970723 0
M  V30 32 C -1.071791 -4.227696 -4.108846 0
M  V30 33 C -1.919491 -4.146095 -5.384145 0
M  V30 34 O -3.050402 -3.426765 -5.054178 0
M  V30 35 C -2.792762 -2.196337 -4.502594 0
M  V30 36 C -1.339968 -1.783155 -4.599462 0
M  V30 37 C 0.823616 -2.876042 -4.824869 0
M  V30 38 C 1.581187 -4.125322 -4.458535 0
M  V30 39 O 1.836939 -5.099384 -5.238644 0
M  V30 40 N 2.127081 -4.399419 -3.170003 0
M  V30 41 H 2.456652 -4.385545 3.420299 0
M  V30 42 H 0.746568 -4.604786 3.873583 0
M  V30 43 H 1.137429 -4.725941 2.160376 0
M  V30 44 H 0.797340 -2.612965 5.152674 0
M  V30 45 H -0.085151 1.786628 4.135982 0
M  V30 46 H -0.852216 4.242222 0.483979 0
M  V30 47 H -1.066011 5.553715 1.662484 0
M  V30 48 H 0.601632 5.086522 1.056371 0
M  V30 49 H 1.520595 4.632330 4.091888 0
M  V30 50 H 1.181416 5.334836 6.370953 0
M  V30 51 H -2.668330 3.748445 3.795048 0
M  V30 52 H 0.780747 -0.152710 1.000546 0
M  V30 53 H 3.098783 -3.729545 1.203846 0
M  V30 54 H 3.476826 -4.741747 -1.063303 0
M  V30 55 H -0.326501 -1.655949 -0.382388 0
M  V30 56 H -1.695665 -4.502607 -3.237666 0
M  V30 57 H -0.323609 -5.023538 -4.270726 0
M  V30 58 H -2.241466 -5.172450 -5.607781 0
M  V30 59 H -1.310688 -3.663432 -6.168641 0
M  V30 60 H -3.095853 -2.218882 -3.429163 0
M  V30 61 H -3.378885 -1.400318 -5.016034 0
M  V30 62 H -1.242767 -0.823998 -4.036070 0
M  V30 63 H -1.081866 -1.605047 -5.651170 0
M  V30 64 H 0.564982 -2.860116 -5.883214 0
M  V30 65 H 1.497738 -2.048004 -4.529844 0
M  V30 66 H 2.853315 -5.148650 -3.073658 0
M  V30 END ATOM
M  V30 BEGIN BOND
M  V30 1 1 1 2
M  V30 2 2 2 3
M  V30 3 1 3 4
M  V30 4 1 4 5
M  V30 5 2 4 6
M  V30 6 1 6 7
M  V30 7 1 7 8
M  V30 8 2 8 9
M  V30 9 1 8 10
M  V30 10 1 10 11
M  V30 11 1 10 12
M  V30 12 2 12 13
M  V30 13 1 13 14
M  V30 14 2 14 15
M  V30 15 1 15 16
M  V30 16 1 16 17
M  V30 17 1 17 18
M  V30 18 1 17 19
M  V30 19 1 17 20
M  V30 20 2 16 21
M  V30 21 1 6 22
M  V30 22 2 22 23
M  V30 23 1 23 24
M  V30 24 2 24 25
M  V30 25 1 25 26
M  V30 26 2 26 27
M  V30 27 1 27 28
M  V30 28 2 28 29
M  V30 29 1 28 30
M  V30 30 1 30 31
M  V30 31 1 31 32
M  V30 32 1 32 33
M  V30 33 1 33 34
M  V30 34 1 34 35
M  V30 35 1 35 36
M  V30 36 1 31 37
M  V30 37 1 37 38
M  V30 38 2 38 39
M  V30 39 1 38 40
M  V30 40 1 23 2
M  V30 41 1 29 24
M  V30 42 1 36 31
M  V30 43 1 21 12
M  V30 44 1 40 27
M  V30 45 1 1 41
M  V30 46 1 1 42
M  V30 47 1 1 43
M  V30 48 1 3 44
M  V30 49 1 7 45
M  V30 50 1 11 46
M  V30 51 1 11 47
M  V30 52 1 11 48
M  V30 53 1 13 49
M  V30 54 1 14 50
M  V30 55 1 21 51
M  V30 56 1 22 52
M  V30 57 1 25 53
M  V30 58 1 26 54
M  V30 59 1 29 55
M  V30 60 1 32 56
M  V30 61 1 32 57
M  V30 62 1 33 58
M  V30 63 1 33 59
M  V30 64 1 35 60
M  V30 65 1 35 61
M  V30 66 1 36 62
M  V30 67 1 36 63
M  V30 68 1 37 64
M  V30 69 1 37 65
M  V30 70 1 40 66
M  V30 END BOND
M  V30 END CTAB
M  END
>  <Dataset>  (398) 
ChEMBL_Kinases

>  <Ligand_Instance>  (398) 
nan

>  <PDB_ID>  (398) 
nan

>  <Standardized_SMILES>  (398) 
Cc1cc(F)c(NC(=O)N(C)c2ccnc(C(F)(F)F)c2)cc1-c1ccc2c(c1)OC1(CCOCC1)CC(=O)N2

>  <Name>  (398) 
nan

>  <Pocket>  (398) 
nan

>  <ATP_Site>  (398) 
nan

>  <Peripheral>  (398) 
nan

>  <Num_H_Atoms_ProtBoundConf>  (398) 
nan

>  <Num_Resolved_Atoms>  (398) 
nan

>  <Num_Not_Resolved_Atoms>  (398) 
nan

$$$$
CHEMBL3702346
     RDKit          3D

  0  0  0  0  0  0  0  0  0  0999 V3000
M  V30 BEGIN CTAB
M  V30 COUNTS 61 63 0 0 0
M  V30 BEGIN ATOM
M  V30 1 C -0.047148 -1.031141 1.483868 0
M  V30 2 C -0.812063 0.074824 2.119612 0
M  V30 3 C -0.030300 1.049215 2.597939 0
M  V30 4 C 1.349737 1.480567 2.730894 0
M  V30 5 O 1.622891 2.586199 3.313925 0
M  V30 6 N 2.558873 0.900046 2.323289 0
M  V30 7 C 3.841860 1.478931 2.543012 0
M  V30 8 C 4.063776 2.824040 1.923617 0
M  V30 9 C 3.915494 2.804463 0.422336 0
M  V30 10 N 4.851486 1.910590 -0.218308 0
M  V30 11 C 6.219342 2.375278 -0.115193 0
M  V30 12 C 4.510608 1.823910 -1.618372 0
M  V30 13 S -1.180033 2.195354 3.306055 0
M  V30 14 C -2.677967 1.275983 2.906794 0
M  V30 15 N -3.991176 1.499933 3.118734 0
M  V30 16 C -4.919727 0.623959 2.700042 0
M  V30 17 N -4.414014 -0.430206 2.085490 0
M  V30 18 C -3.139871 -0.680970 1.861359 0
M  V30 19 N -2.977628 -1.903841 1.160714 0
M  V30 20 C -3.067275 -1.782434 -0.280465 0
M  V30 21 C -3.290786 -0.539455 -0.840672 0
M  V30 22 C -3.385219 -0.331544 -2.221213 0
M  V30 23 C -3.246295 -1.429441 -3.041516 0
M  V30 24 F -3.326621 -1.291950 -4.376455 0
M  V30 25 C -3.024634 -2.660922 -2.475505 0
M  V30 26 C -2.927201 -2.895125 -1.121716 0
M  V30 27 O -2.711235 -4.069593 -0.457631 0
M  V30 28 C -2.525281 -5.342603 -1.004421 0
M  V30 29 C -3.697425 -6.271691 -0.641711 0
M  V30 30 O -3.829264 -6.420090 0.729337 0
M  V30 31 C -1.280911 -6.028807 -0.516770 0
M  V30 32 O -0.149337 -5.280899 -0.834104 0
M  V30 33 C -2.158116 0.186063 2.273235 0
M  V30 34 H -0.644744 -1.898749 1.187610 0
M  V30 35 H 0.691886 -1.468800 2.225624 0
M  V30 36 H 0.547025 -0.695762 0.625501 0
M  V30 37 H 2.473049 -0.012678 1.828259 0
M  V30 38 H 4.643421 0.815581 2.137545 0
M  V30 39 H 4.076194 1.581585 3.624140 0
M  V30 40 H 3.470488 3.632497 2.347587 0
M  V30 41 H 5.141910 3.077011 2.127791 0
M  V30 42 H 4.217600 3.837512 0.075354 0
M  V30 43 H 2.891363 2.677862 0.060950 0
M  V30 44 H 6.859293 1.715557 -0.735999 0
M  V30 45 H 6.316376 3.399672 -0.540352 0
M  V30 46 H 6.598540 2.314572 0.921508 0
M  V30 47 H 3.607351 2.378064 -1.907286 0
M  V30 48 H 5.324921 2.116020 -2.305333 0
M  V30 49 H 4.250453 0.743554 -1.789171 0
M  V30 50 H -5.924546 0.929019 2.935796 0
M  V30 51 H -2.807203 -2.847688 1.572005 0
M  V30 52 H -3.410953 0.369077 -0.246728 0
M  V30 53 H -3.558318 0.624427 -2.679838 0
M  V30 54 H -2.913317 -3.532329 -3.102477 0
M  V30 55 H -2.504261 -5.243677 -2.111870 0
M  V30 56 H -4.634662 -5.883371 -1.133711 0
M  V30 57 H -3.462134 -7.270583 -1.066224 0
M  V30 58 H -4.165057 -7.321150 0.985128 0
M  V30 59 H -1.239770 -7.027944 -1.012452 0
M  V30 60 H -1.399625 -6.185687 0.580282 0
M  V30 61 H 0.402364 -5.182848 -0.004412 0
M  V30 END ATOM
M  V30 BEGIN BOND
M  V30 1 1 1 2
M  V30 2 2 2 3
M  V30 3 1 3 4
M  V30 4 2 4 5
M  V30 5 1 4 6
M  V30 6 1 6 7
M  V30 7 1 7 8
M  V30 8 1 8 9
M  V30 9 1 9 10
M  V30 10 1 10 11
M  V30 11 1 10 12
M  V30 12 1 3 13
M  V30 13 1 13 14
M  V30 14 2 14 15
M  V30 15 1 15 16
M  V30 16 2 16 17
M  V30 17 1 17 18
M  V30 18 1 18 19
M  V30 19 1 19 20
M  V30 20 2 20 21
M  V30 21 1 21 22
M  V30 22 2 22 23
M  V30 23 1 23 24
M  V30 24 1 23 25
M  V30 25 2 25 26
M  V30 26 1 26 27
M  V30 27 1 27 28
M  V30 28 1 28 29
M  V30 29 1 29 30
M  V30 30 1 28 31
M  V30 31 1 31 32
M  V30 32 2 18 33
M  V30 33 1 33 2
M  V30 34 1 33 14
M  V30 35 1 26 20
M  V30 36 1 1 34
M  V30 37 1 1 35
M  V30 38 1 1 36
M  V30 39 1 6 37
M  V30 40 1 7 38
M  V30 41 1 7 39
M  V30 42 1 8 40
M  V30 43 1 8 41
M  V30 44 1 9 42
M  V30 45 1 9 43
M  V30 46 1 11 44
M  V30 47 1 11 45
M  V30 48 1 11 46
M  V30 49 1 12 47
M  V30 50 1 12 48
M  V30 51 1 12 49
M  V30 52 1 16 50
M  V30 53 1 19 51
M  V30 54 1 21 52
M  V30 55 1 22 53
M  V30 56 1 25 54
M  V30 57 1 28 55
M  V30 58 1 29 56
M  V30 59 1 29 57
M  V30 60 1 30 58
M  V30 61 1 31 59
M  V30 62 1 31 60
M  V30 63 1 32 61
M  V30 END BOND
M  V30 END CTAB
M  END
>  <Dataset>  (399) 
ChEMBL_Kinases

>  <Ligand_Instance>  (399) 
nan

>  <PDB_ID>  (399) 
nan

>  <Standardized_SMILES>  (399) 
Cc1c(C(=O)NCCCN(C)C)sc2ncnc(Nc3ccc(F)cc3OC(CO)CO)c12

>  <Name>  (399) 
nan

>  <Pocket>  (399) 
nan

>  <ATP_Site>  (399) 
nan

>  <Peripheral>  (399) 
nan

>  <Num_H_Atoms_ProtBoundConf>  (399) 
nan

>  <Num_Resolved_Atoms>  (399) 
nan

>  <Num_Not_Resolved_Atoms>  (399) 
nan

$$$$
CHEMBL3702347
     RDKit          3D

  0  0  0  0  0  0  0  0  0  0999 V3000
M  V30 BEGIN CTAB
M  V30 COUNTS 40 42 0 0 0
M  V30 BEGIN ATOM
M  V30 1 C -0.446933 -2.139693 1.718884 0
M  V30 2 C -0.095880 -2.722448 0.415585 0
M  V30 3 C 0.491080 -3.965764 0.473059 0
M  V30 4 C 0.848568 -4.817381 1.523291 0
M  V30 5 N 0.609412 -4.384678 2.883705 0
M  V30 6 O 1.260059 -5.760533 2.167581 0
M  V30 7 S 0.832070 -4.516493 -1.198678 0
M  V30 8 C 0.136478 -2.972557 -1.969181 0
M  V30 9 N 0.001172 -2.569478 -3.250856 0
M  V30 10 C -0.556951 -1.379108 -3.508945 0
M  V30 11 N -0.936112 -0.687249 -2.432703 0
M  V30 12 C -0.795797 -1.096780 -1.183192 0
M  V30 13 N -1.336099 -0.049915 -0.368736 0
M  V30 14 C -0.816953 1.247726 0.015015 0
M  V30 15 C -1.769331 2.172443 -0.456860 0
M  V30 16 C -1.566953 3.535177 -0.252459 0
M  V30 17 C -0.446983 3.990038 0.405257 0
M  V30 18 F -0.167067 5.295848 0.648891 0
M  V30 19 C 0.439625 3.040231 0.838066 0
M  V30 20 C 0.331223 1.691426 0.687364 0
M  V30 21 O 1.037626 0.617268 1.008170 0
M  V30 22 C 2.197607 0.300186 1.646764 0
M  V30 23 C 2.323714 0.645426 3.101104 0
M  V30 24 O 2.215604 1.967931 3.423867 0
M  V30 25 C -0.237146 -2.298002 -0.837200 0
M  V30 26 H -0.904788 -1.164069 1.678476 0
M  V30 27 H 0.469258 -2.009274 2.367071 0
M  V30 28 H -1.111396 -2.827067 2.316416 0
M  V30 29 H 0.591126 -3.926699 3.831452 0
M  V30 30 H 0.577880 -3.937647 3.839610 0
M  V30 31 H -0.602411 -1.184600 -4.562462 0
M  V30 32 H -2.263548 -0.373555 -0.055024 0
M  V30 33 H -2.693050 2.022358 -0.984659 0
M  V30 34 H -2.236480 4.329398 -0.573378 0
M  V30 35 H 1.336378 3.345112 1.345148 0
M  V30 36 H 2.416054 -0.817987 1.592240 0
M  V30 37 H 3.077292 0.785813 1.145687 0
M  V30 38 H 1.627251 0.030396 3.732634 0
M  V30 39 H 3.342345 0.302058 3.458303 0
M  V30 40 H 3.025535 2.433697 3.076519 0
M  V30 END ATOM
M  V30 BEGIN BOND
M  V30 1 1 1 2
M  V30 2 2 2 3
M  V30 3 1 3 4
M  V30 4 1 4 5
M  V30 5 2 4 6
M  V30 6 1 3 7
M  V30 7 1 7 8
M  V30 8 2 8 9
M  V30 9 1 9 10
M  V30 10 2 10 11
M  V30 11 1 11 12
M  V30 12 1 12 13
M  V30 13 1 13 14
M  V30 14 2 14 15
M  V30 15 1 15 16
M  V30 16 2 16 17
M  V30 17 1 17 18
M  V30 18 1 17 19
M  V30 19 2 19 20
M  V30 20 1 20 21
M  V30 21 1 21 22
M  V30 22 1 22 23
M  V30 23 1 23 24
M  V30 24 2 12 25
M  V30 25 1 25 2
M  V30 26 1 25 8
M  V30 27 1 20 14
M  V30 28 1 1 26
M  V30 29 1 1 27
M  V30 30 1 1 28
M  V30 31 1 5 29
M  V30 32 1 5 30
M  V30 33 1 10 31
M  V30 34 1 13 32
M  V30 35 1 15 33
M  V30 36 1 16 34
M  V30 37 1 19 35
M  V30 38 1 22 36
M  V30 39 1 22 37
M  V30 40 1 23 38
M  V30 41 1 23 39
M  V30 42 1 24 40
M  V30 END BOND
M  V30 END CTAB
M  END
>  <Dataset>  (400) 
ChEMBL_Kinases

>  <Ligand_Instance>  (400) 
nan

>  <PDB_ID>  (400) 
nan

>  <Standardized_SMILES>  (400) 
Cc1c(C(N)=O)sc2ncnc(Nc3ccc(F)cc3OCCO)c12

>  <Name>  (400) 
nan

>  <Pocket>  (400) 
nan

>  <ATP_Site>  (400) 
nan

>  <Peripheral>  (400) 
nan

>  <Num_H_Atoms_ProtBoundConf>  (400) 
nan

>  <Num_Resolved_Atoms>  (400) 
nan

>  <Num_Not_Resolved_Atoms>  (400) 
nan

$$$$
CHEMBL3702348
     RDKit          3D

  0  0  0  0  0  0  0  0  0  0999 V3000
M  V30 BEGIN CTAB
M  V30 COUNTS 47 49 0 0 0
M  V30 BEGIN ATOM
M  V30 1 C 1.887598 -1.476249 1.157970 0
M  V30 2 C 1.769614 -0.037283 1.495863 0
M  V30 3 C 2.901566 0.675372 1.292093 0
M  V30 4 C 4.245679 0.543033 0.802495 0
M  V30 5 O 4.969214 1.595772 0.821108 0
M  V30 6 N 4.986458 -0.539717 0.277547 0
M  V30 7 C 6.310028 -0.746552 -0.228034 0
M  V30 8 C 6.546224 0.103913 -1.450043 0
M  V30 9 O 6.429339 1.445169 -1.239645 0
M  V30 10 S 2.470058 2.308593 1.837755 0
M  V30 11 C 0.773415 1.952723 2.315214 0
M  V30 12 N -0.237619 2.681456 2.829325 0
M  V30 13 C -1.428902 2.116606 3.083717 0
M  V30 14 N -1.519219 0.820491 2.792657 0
M  V30 15 C -0.533674 0.086705 2.285518 0
M  V30 16 N -1.061961 -1.229052 2.107773 0
M  V30 17 C -1.836897 -1.824380 1.043805 0
M  V30 18 C -1.451087 -2.923512 0.307224 0
M  V30 19 C -2.182322 -3.489634 -0.710176 0
M  V30 20 C -3.398121 -2.932437 -1.036400 0
M  V30 21 F -4.135086 -3.475190 -2.036913 0
M  V30 22 C -3.819337 -1.832431 -0.322718 0
M  V30 23 C -3.084463 -1.268249 0.695821 0
M  V30 24 O -3.488315 -0.192682 1.398660 0
M  V30 25 C -4.601122 0.607656 1.377966 0
M  V30 26 C -5.919122 -0.023109 1.670066 0
M  V30 27 O -5.957280 -0.602989 2.942969 0
M  V30 28 C 0.698318 0.618371 2.012017 0
M  V30 29 H 1.011731 -2.059633 1.515688 0
M  V30 30 H 2.736460 -1.951323 1.725569 0
M  V30 31 H 2.031361 -1.695996 0.108319 0
M  V30 32 H 4.386962 -1.419324 0.249797 0
M  V30 33 H 6.429805 -1.822173 -0.534542 0
M  V30 34 H 7.080269 -0.517627 0.560623 0
M  V30 35 H 7.532497 -0.149147 -1.925907 0
M  V30 36 H 5.800862 -0.159466 -2.259699 0
M  V30 37 H 5.931741 1.928880 -1.958180 0
M  V30 38 H -2.131591 2.824848 3.491661 0
M  V30 39 H -0.988179 -2.062593 2.765636 0
M  V30 40 H -0.527527 -3.423319 0.498094 0
M  V30 41 H -1.841052 -4.351123 -1.261317 0
M  V30 42 H -4.775297 -1.449892 -0.642202 0
M  V30 43 H -4.445055 1.410454 2.155833 0
M  V30 44 H -4.722725 1.178142 0.421156 0
M  V30 45 H -6.662053 0.833833 1.727984 0
M  V30 46 H -6.325234 -0.703731 0.930388 0
M  V30 47 H -5.265873 -1.317476 3.029064 0
M  V30 END ATOM
M  V30 BEGIN BOND
M  V30 1 1 1 2
M  V30 2 2 2 3
M  V30 3 1 3 4
M  V30 4 2 4 5
M  V30 5 1 4 6
M  V30 6 1 6 7
M  V30 7 1 7 8
M  V30 8 1 8 9
M  V30 9 1 3 10
M  V30 10 1 10 11
M  V30 11 2 11 12
M  V30 12 1 12 13
M  V30 13 2 13 14
M  V30 14 1 14 15
M  V30 15 1 15 16
M  V30 16 1 16 17
M  V30 17 2 17 18
M  V30 18 1 18 19
M  V30 19 2 19 20
M  V30 20 1 20 21
M  V30 21 1 20 22
M  V30 22 2 22 23
M  V30 23 1 23 24
M  V30 24 1 24 25
M  V30 25 1 25 26
M  V30 26 1 26 27
M  V30 27 2 15 28
M  V30 28 1 28 2
M  V30 29 1 28 11
M  V30 30 1 23 17
M  V30 31 1 1 29
M  V30 32 1 1 30
M  V30 33 1 1 31
M  V30 34 1 6 32
M  V30 35 1 7 33
M  V30 36 1 7 34
M  V30 37 1 8 35
M  V30 38 1 8 36
M  V30 39 1 9 37
M  V30 40 1 13 38
M  V30 41 1 16 39
M  V30 42 1 18 40
M  V30 43 1 19 41
M  V30 44 1 22 42
M  V30 45 1 25 43
M  V30 46 1 25 44
M  V30 47 1 26 45
M  V30 48 1 26 46
M  V30 49 1 27 47
M  V30 END BOND
M  V30 END CTAB
M  END
>  <Dataset>  (401) 
ChEMBL_Kinases

>  <Ligand_Instance>  (401) 
nan

>  <PDB_ID>  (401) 
nan

>  <Standardized_SMILES>  (401) 
Cc1c(C(=O)NCCO)sc2ncnc(Nc3ccc(F)cc3OCCO)c12

>  <Name>  (401) 
nan

>  <Pocket>  (401) 
nan

>  <ATP_Site>  (401) 
nan

>  <Peripheral>  (401) 
nan

>  <Num_H_Atoms_ProtBoundConf>  (401) 
nan

>  <Num_Resolved_Atoms>  (401) 
nan

>  <Num_Not_Resolved_Atoms>  (401) 
nan

$$$$
CHEMBL3702349
     RDKit          3D

  0  0  0  0  0  0  0  0  0  0999 V3000
M  V30 BEGIN CTAB
M  V30 COUNTS 57 59 0 0 0
M  V30 BEGIN ATOM
M  V30 1 C -0.328809 -1.507284 0.252032 0
M  V30 2 C -0.838923 -0.706925 1.394119 0
M  V30 3 C 0.074582 -0.007705 2.144955 0
M  V30 4 C 1.564194 0.066281 2.002548 0
M  V30 5 O 2.419568 -0.424224 1.250687 0
M  V30 6 N 2.248340 0.883602 2.919108 0
M  V30 7 C 3.667886 1.122511 2.964166 0
M  V30 8 C 4.083462 1.806397 1.682568 0
M  V30 9 C 5.571192 2.063094 1.672085 0
M  V30 10 N 5.971133 2.689644 0.458525 0
M  V30 11 C 7.406672 2.930791 0.397183 0
M  V30 12 C 5.214964 3.849948 0.116072 0
M  V30 13 S -0.835010 0.832549 3.345856 0
M  V30 14 C -2.471099 0.212109 2.800312 0
M  V30 15 N -3.695382 0.460082 3.281599 0
M  V30 16 C -4.790866 -0.103238 2.715357 0
M  V30 17 N -4.470331 -0.864923 1.706339 0
M  V30 18 C -3.275919 -1.142015 1.193048 0
M  V30 19 N -3.377267 -2.040976 0.129134 0
M  V30 20 C -4.459384 -2.393837 -0.687517 0
M  V30 21 C -5.712198 -1.791831 -0.680981 0
M  V30 22 C -6.856830 -2.106532 -1.420091 0
M  V30 23 C -6.605481 -3.173896 -2.237443 0
M  V30 24 F -7.632347 -3.626103 -3.039361 0
M  V30 25 C -5.452907 -3.881983 -2.378070 0
M  V30 26 C -4.408509 -3.464586 -1.589996 0
M  V30 27 O -3.192365 -4.101786 -1.639509 0
M  V30 28 C -2.822642 -5.191920 -2.416237 0
M  V30 29 C -1.353975 -5.500928 -2.089306 0
M  V30 30 O -0.879098 -6.585965 -2.817064 0
M  V30 31 C -2.147123 -0.599576 1.724264 0
M  V30 32 H -0.379326 -2.583871 0.365047 0
M  V30 33 H -0.850918 -1.148515 -0.670210 0
M  V30 34 H 0.743264 -1.286639 0.042867 0
M  V30 35 H 1.720237 1.405890 3.691337 0
M  V30 36 H 4.251751 0.176401 3.034127 0
M  V30 37 H 3.971374 1.735872 3.831784 0
M  V30 38 H 3.719693 1.291256 0.810505 0
M  V30 39 H 3.537014 2.796991 1.702615 0
M  V30 40 H 6.056237 1.079355 1.808862 0
M  V30 41 H 5.782276 2.748025 2.539097 0
M  V30 42 H 7.868070 2.006950 -0.007148 0
M  V30 43 H 7.812084 3.203744 1.395572 0
M  V30 44 H 7.593979 3.779543 -0.273240 0
M  V30 45 H 4.148109 3.617452 -0.016760 0
M  V30 46 H 5.572131 4.188378 -0.903592 0
M  V30 47 H 5.405359 4.643898 0.875177 0
M  V30 48 H -5.677063 0.202973 3.221710 0
M  V30 49 H -2.526860 -2.564039 -0.103894 0
M  V30 50 H -5.890940 -0.928274 -0.027849 0
M  V30 51 H -7.775093 -1.566443 -1.331171 0
M  V30 52 H -5.314151 -4.719167 -3.042605 0
M  V30 53 H -3.445304 -6.095500 -2.222404 0
M  V30 54 H -2.820618 -4.988131 -3.510508 0
M  V30 55 H -0.723446 -4.600986 -2.331357 0
M  V30 56 H -1.289606 -5.736069 -1.008084 0
M  V30 57 H -0.041767 -6.873623 -2.333166 0
M  V30 END ATOM
M  V30 BEGIN BOND
M  V30 1 1 1 2
M  V30 2 2 2 3
M  V30 3 1 3 4
M  V30 4 2 4 5
M  V30 5 1 4 6
M  V30 6 1 6 7
M  V30 7 1 7 8
M  V30 8 1 8 9
M  V30 9 1 9 10
M  V30 10 1 10 11
M  V30 11 1 10 12
M  V30 12 1 3 13
M  V30 13 1 13 14
M  V30 14 2 14 15
M  V30 15 1 15 16
M  V30 16 2 16 17
M  V30 17 1 17 18
M  V30 18 1 18 19
M  V30 19 1 19 20
M  V30 20 2 20 21
M  V30 21 1 21 22
M  V30 22 2 22 23
M  V30 23 1 23 24
M  V30 24 1 23 25
M  V30 25 2 25 26
M  V30 26 1 26 27
M  V30 27 1 27 28
M  V30 28 1 28 29
M  V30 29 1 29 30
M  V30 30 2 18 31
M  V30 31 1 31 2
M  V30 32 1 31 14
M  V30 33 1 26 20
M  V30 34 1 1 32
M  V30 35 1 1 33
M  V30 36 1 1 34
M  V30 37 1 6 35
M  V30 38 1 7 36
M  V30 39 1 7 37
M  V30 40 1 8 38
M  V30 41 1 8 39
M  V30 42 1 9 40
M  V30 43 1 9 41
M  V30 44 1 11 42
M  V30 45 1 11 43
M  V30 46 1 11 44
M  V30 47 1 12 45
M  V30 48 1 12 46
M  V30 49 1 12 47
M  V30 50 1 16 48
M  V30 51 1 19 49
M  V30 52 1 21 50
M  V30 53 1 22 51
M  V30 54 1 25 52
M  V30 55 1 28 53
M  V30 56 1 28 54
M  V30 57 1 29 55
M  V30 58 1 29 56
M  V30 59 1 30 57
M  V30 END BOND
M  V30 END CTAB
M  END
>  <Dataset>  (402) 
ChEMBL_Kinases

>  <Ligand_Instance>  (402) 
nan

>  <PDB_ID>  (402) 
nan

>  <Standardized_SMILES>  (402) 
Cc1c(C(=O)NCCCN(C)C)sc2ncnc(Nc3ccc(F)cc3OCCO)c12

>  <Name>  (402) 
nan

>  <Pocket>  (402) 
nan

>  <ATP_Site>  (402) 
nan

>  <Peripheral>  (402) 
nan

>  <Num_H_Atoms_ProtBoundConf>  (402) 
nan

>  <Num_Resolved_Atoms>  (402) 
nan

>  <Num_Not_Resolved_Atoms>  (402) 
nan

$$$$
CHEMBL3702350
     RDKit          3D

  0  0  0  0  0  0  0  0  0  0999 V3000
M  V30 BEGIN CTAB
M  V30 COUNTS 63 65 0 0 0
M  V30 BEGIN ATOM
M  V30 1 C 2.080166 -1.998470 2.305338 0
M  V30 2 O 2.226199 -0.634983 2.222735 0
M  V30 3 C 2.870969 -0.200381 1.063004 0
M  V30 4 C 2.969486 1.329992 1.101510 0
M  V30 5 C 3.847274 1.658727 2.299915 0
M  V30 6 O 1.725172 1.929110 1.163952 0
M  V30 7 C 1.226252 2.820579 0.261937 0
M  V30 8 C 1.950000 3.220408 -0.835946 0
M  V30 9 C 1.396065 4.122969 -1.711638 0
M  V30 10 F 2.080845 4.548335 -2.820814 0
M  V30 11 C 0.155743 4.684273 -1.599567 0
M  V30 12 C -0.560564 4.283336 -0.505326 0
M  V30 13 C -0.067399 3.363283 0.437941 0
M  V30 14 N -0.696894 2.867808 1.598459 0
M  V30 15 C -1.252509 1.862632 2.381478 0
M  V30 16 N -1.233661 2.175422 3.674454 0
M  V30 17 C -1.664086 1.447230 4.687022 0
M  V30 18 N -2.167132 0.268936 4.311624 0
M  V30 19 C -2.216169 -0.104841 3.023839 0
M  V30 20 S -2.862515 -1.634107 2.307042 0
M  V30 21 C -2.478483 -1.130665 0.590093 0
M  V30 22 C -2.770020 -1.971752 -0.539353 0
M  V30 23 O -2.619239 -1.890077 -1.804951 0
M  V30 24 N -3.378095 -3.234223 -0.325083 0
M  V30 25 C -3.698232 -4.129608 -1.384449 0
M  V30 26 C -2.560578 -4.635725 -2.207122 0
M  V30 27 C -1.551268 -5.406417 -1.429640 0
M  V30 28 N -0.885489 -4.689872 -0.375450 0
M  V30 29 C -0.025371 -5.701287 0.280529 0
M  V30 30 C 0.068279 -3.713902 -0.936638 0
M  V30 31 C -1.913865 0.111797 0.721421 0
M  V30 32 C -1.549958 0.786382 -0.551799 0
M  V30 33 C -1.764396 0.662630 1.961701 0
M  V30 34 H 1.551008 -2.210375 3.278932 0
M  V30 35 H 1.419328 -2.428912 1.530394 0
M  V30 36 H 3.068615 -2.519013 2.360656 0
M  V30 37 H 3.916575 -0.583160 1.057098 0
M  V30 38 H 2.277874 -0.491712 0.187592 0
M  V30 39 H 3.567863 1.605221 0.216283 0
M  V30 40 H 4.872397 1.259035 2.162636 0
M  V30 41 H 3.888040 2.739806 2.506283 0
M  V30 42 H 3.433944 1.174098 3.208208 0
M  V30 43 H 2.941144 2.902315 -1.109562 0
M  V30 44 H -0.326581 5.384721 -2.242602 0
M  V30 45 H -1.563741 4.611954 -0.236332 0
M  V30 46 H -0.684782 3.867530 1.995383 0
M  V30 47 H -1.666262 1.665438 5.735534 0
M  V30 48 H -3.621923 -3.563962 0.662947 0
M  V30 49 H -4.487040 -3.662408 -2.051847 0
M  V30 50 H -4.224934 -5.046383 -0.989209 0
M  V30 51 H -2.045694 -3.875409 -2.825300 0
M  V30 52 H -3.012466 -5.382918 -2.935488 0
M  V30 53 H -1.970258 -6.330714 -0.972483 0
M  V30 54 H -0.736982 -5.754340 -2.123500 0
M  V30 55 H 0.895260 -5.205565 0.656777 0
M  V30 56 H 0.307711 -6.465474 -0.443517 0
M  V30 57 H -0.539092 -6.112458 1.152825 0
M  V30 58 H -0.233381 -3.562590 -1.986002 0
M  V30 59 H 0.026126 -2.764298 -0.371748 0
M  V30 60 H 1.087590 -4.122994 -0.961111 0
M  V30 61 H -2.005515 1.795952 -0.630362 0
M  V30 62 H -0.486936 0.812967 -0.731616 0
M  V30 63 H -1.983879 0.263544 -1.446794 0
M  V30 END ATOM
M  V30 BEGIN BOND
M  V30 1 1 1 2
M  V30 2 1 2 3
M  V30 3 1 3 4
M  V30 4 1 4 5
M  V30 5 1 4 6
M  V30 6 1 6 7
M  V30 7 2 7 8
M  V30 8 1 8 9
M  V30 9 1 9 10
M  V30 10 2 9 11
M  V30 11 1 11 12
M  V30 12 2 12 13
M  V30 13 1 13 14
M  V30 14 1 14 15
M  V30 15 2 15 16
M  V30 16 1 16 17
M  V30 17 2 17 18
M  V30 18 1 18 19
M  V30 19 1 19 20
M  V30 20 1 20 21
M  V30 21 1 21 22
M  V30 22 2 22 23
M  V30 23 1 22 24
M  V30 24 1 24 25
M  V30 25 1 25 26
M  V30 26 1 26 27
M  V30 27 1 27 28
M  V30 28 1 28 29
M  V30 29 1 28 30
M  V30 30 2 21 31
M  V30 31 1 31 32
M  V30 32 1 31 33
M  V30 33 1 13 7
M  V30 34 1 33 15
M  V30 35 2 33 19
M  V30 36 1 1 34
M  V30 37 1 1 35
M  V30 38 1 1 36
M  V30 39 1 3 37
M  V30 40 1 3 38
M  V30 41 1 4 39
M  V30 42 1 5 40
M  V30 43 1 5 41
M  V30 44 1 5 42
M  V30 45 1 8 43
M  V30 46 1 11 44
M  V30 47 1 12 45
M  V30 48 1 14 46
M  V30 49 1 17 47
M  V30 50 1 24 48
M  V30 51 1 25 49
M  V30 52 1 25 50
M  V30 53 1 26 51
M  V30 54 1 26 52
M  V30 55 1 27 53
M  V30 56 1 27 54
M  V30 57 1 29 55
M  V30 58 1 29 56
M  V30 59 1 29 57
M  V30 60 1 30 58
M  V30 61 1 30 59
M  V30 62 1 30 60
M  V30 63 1 32 61
M  V30 64 1 32 62
M  V30 65 1 32 63
M  V30 END BOND
M  V30 END CTAB
M  END
>  <Dataset>  (403) 
ChEMBL_Kinases

>  <Ligand_Instance>  (403) 
nan

>  <PDB_ID>  (403) 
nan

>  <Standardized_SMILES>  (403) 
COCC(C)Oc1cc(F)ccc1Nc1ncnc2sc(C(=O)NCCCN(C)C)c(C)c12

>  <Name>  (403) 
nan

>  <Pocket>  (403) 
nan

>  <ATP_Site>  (403) 
nan

>  <Peripheral>  (403) 
nan

>  <Num_H_Atoms_ProtBoundConf>  (403) 
nan

>  <Num_Resolved_Atoms>  (403) 
nan

>  <Num_Not_Resolved_Atoms>  (403) 
nan

$$$$
CHEMBL5091739
     RDKit          3D

  0  0  0  0  0  0  0  0  0  0999 V3000
M  V30 BEGIN CTAB
M  V30 COUNTS 54 57 0 0 0
M  V30 BEGIN ATOM
M  V30 1 C 2.477937 0.791302 -2.375113 0
M  V30 2 C 3.004430 1.286471 -1.070967 0
M  V30 3 C 4.301905 1.802016 -1.024206 0
M  V30 4 N 4.819815 2.256805 0.106141 0
M  V30 5 C 4.026662 2.196810 1.216059 0
M  V30 6 N 4.541618 2.669822 2.470074 0
M  V30 7 C 5.079950 1.513439 3.132225 0
M  V30 8 C 4.023974 0.450870 3.375753 0
M  V30 9 C 6.273707 0.924743 2.458185 0
M  V30 10 N 2.753925 1.699806 1.208702 0
M  V30 11 C 2.201276 1.229278 0.069792 0
M  V30 12 C 0.864588 0.670546 -0.066723 0
M  V30 13 C 0.358666 -0.247706 0.865586 0
M  V30 14 C -0.926039 -0.583559 0.438143 0
M  V30 15 N -1.219313 0.086312 -0.703254 0
M  V30 16 C -0.130772 0.821468 -0.972583 0
M  V30 17 C -2.551978 -0.354670 -1.005719 0
M  V30 18 O -3.043909 0.153927 -2.062503 0
M  V30 19 N -3.047962 -1.294861 -0.025438 0
M  V30 20 C -4.398984 -1.757288 -0.259557 0 CFG=2
M  V30 21 C -5.244461 -1.256747 0.912943 0
M  V30 22 O -5.178004 0.129206 0.929491 0
M  V30 23 C -4.411429 -3.240626 -0.244612 0
M  V30 24 C -4.922830 -3.973228 -1.321681 0
M  V30 25 C -5.000796 -5.334595 -1.397656 0
M  V30 26 C -4.539779 -6.076790 -0.327149 0
M  V30 27 C -4.024626 -5.394758 0.762038 0
M  V30 28 Cl -3.443220 -6.349282 2.116213 0
M  V30 29 C -3.963201 -4.013307 0.800200 0
M  V30 30 C -2.002354 -1.504443 0.944542 0
M  V30 31 H 3.341685 0.388106 -2.954432 0
M  V30 32 H 2.091866 1.638916 -2.983194 0
M  V30 33 H 1.765442 -0.051386 -2.272140 0
M  V30 34 H 4.862901 1.808887 -1.966649 0
M  V30 35 H 4.401656 3.717118 2.591234 0
M  V30 36 H 5.407113 1.857040 4.155957 0
M  V30 37 H 3.944312 -0.277385 2.538083 0
M  V30 38 H 3.056520 0.916037 3.631047 0
M  V30 39 H 4.360905 -0.139545 4.251348 0
M  V30 40 H 7.208433 1.022408 3.079512 0
M  V30 41 H 6.125364 -0.182625 2.353203 0
M  V30 42 H 6.535005 1.365892 1.486750 0
M  V30 43 H 0.897993 -0.612952 1.754555 0
M  V30 44 H -0.053439 1.468748 -1.823788 0
M  V30 45 H -4.837539 -1.335550 -1.158972 0
M  V30 46 H -4.899631 -1.698965 1.864911 0
M  V30 47 H -6.298703 -1.544578 0.773284 0
M  V30 48 H -5.967853 0.504449 1.394854 0
M  V30 49 H -5.297919 -3.426086 -2.190994 0
M  V30 50 H -5.411195 -5.821842 -2.270236 0
M  V30 51 H -4.587733 -7.154732 -0.353819 0
M  V30 52 H -3.565236 -3.561547 1.674172 0
M  V30 53 H -1.591849 -2.550003 0.939359 0
M  V30 54 H -2.275935 -1.154818 1.945723 0
M  V30 END ATOM
M  V30 BEGIN BOND
M  V30 1 1 1 2
M  V30 2 2 2 3
M  V30 3 1 3 4
M  V30 4 2 4 5
M  V30 5 1 5 6
M  V30 6 1 6 7
M  V30 7 1 7 8
M  V30 8 1 7 9
M  V30 9 1 5 10
M  V30 10 2 10 11
M  V30 11 1 11 12
M  V30 12 1 12 13
M  V30 13 2 13 14
M  V30 14 1 14 15
M  V30 15 1 15 16
M  V30 16 1 15 17
M  V30 17 2 17 18
M  V30 18 1 17 19
M  V30 19 1 19 20
M  V30 20 1 20 21
M  V30 21 1 21 22
M  V30 22 1 20 23
M  V30 23 2 23 24
M  V30 24 1 24 25
M  V30 25 2 25 26
M  V30 26 1 26 27
M  V30 27 1 27 28
M  V30 28 2 27 29
M  V30 29 1 19 30
M  V30 30 1 11 2
M  V30 31 2 16 12
M  V30 32 1 29 23
M  V30 33 1 30 14
M  V30 34 1 1 31
M  V30 35 1 1 32
M  V30 36 1 1 33
M  V30 37 1 3 34
M  V30 38 1 6 35
M  V30 39 1 7 36
M  V30 40 1 8 37
M  V30 41 1 8 38
M  V30 42 1 8 39
M  V30 43 1 9 40
M  V30 44 1 9 41
M  V30 45 1 9 42
M  V30 46 1 13 43
M  V30 47 1 16 44
M  V30 48 1 20 45 CFG=3
M  V30 49 1 21 46
M  V30 50 1 21 47
M  V30 51 1 22 48
M  V30 52 1 24 49
M  V30 53 1 25 50
M  V30 54 1 26 51
M  V30 55 1 29 52
M  V30 56 1 30 53
M  V30 57 1 30 54
M  V30 END BOND
M  V30 END CTAB
M  END
>  <Dataset>  (404) 
ChEMBL_Kinases

>  <Ligand_Instance>  (404) 
nan

>  <PDB_ID>  (404) 
nan

>  <Standardized_SMILES>  (404) 
Cc1cnc(NC(C)C)nc1-c1cc2n(c1)C(=O)N([C@H](CO)c1cccc(Cl)c1)C2

>  <Name>  (404) 
nan

>  <Pocket>  (404) 
nan

>  <ATP_Site>  (404) 
nan

>  <Peripheral>  (404) 
nan

>  <Num_H_Atoms_ProtBoundConf>  (404) 
nan

>  <Num_Resolved_Atoms>  (404) 
nan

>  <Num_Not_Resolved_Atoms>  (404) 
nan

$$$$
CHEMBL5088856
     RDKit          3D

  0  0  0  0  0  0  0  0  0  0999 V3000
M  V30 BEGIN CTAB
M  V30 COUNTS 55 57 0 0 0
M  V30 BEGIN ATOM
M  V30 1 C 0.028901 -5.195984 6.477198 0
M  V30 2 C 0.853170 -4.494719 5.478362 0
M  V30 3 C 0.485986 -3.571163 4.564690 0
M  V30 4 C 1.379635 -2.951249 3.678140 0
M  V30 5 C 0.658091 -1.965718 2.803162 0
M  V30 6 C 1.487579 -2.170930 1.746674 0
M  V30 7 C 0.827891 -1.219167 0.798803 0
M  V30 8 C -0.327708 -0.339436 0.914390 0
M  V30 9 O -0.899904 0.523632 -0.033268 0
M  V30 10 C -0.233267 0.552600 -1.283590 0
M  V30 11 C -0.876971 1.422478 -2.321439 0 CFG=1
M  V30 12 C -2.220825 0.953683 -2.663981 0
M  V30 13 N -0.954836 2.762175 -1.678484 0
M  V30 14 C 0.077347 1.654885 -3.481847 0
M  V30 15 C 0.566721 0.433486 -4.166403 0
M  V30 16 C 1.486583 0.882734 -5.311345 0
M  V30 17 C -0.480938 -0.464147 -4.734297 0
M  V30 18 C -0.843375 -0.478532 2.177356 0
M  V30 19 C -2.070892 0.357975 2.489591 0
M  V30 20 C -1.935912 1.791169 2.730167 0
M  V30 21 C -2.285337 0.833975 3.863964 0
M  V30 22 C -0.423967 -1.263285 3.197740 0
M  V30 23 C 2.678555 -3.372147 3.823706 0
M  V30 24 C 3.108995 -4.330050 4.758822 0
M  V30 25 N 2.145189 -4.802901 5.501583 0
M  V30 26 H -0.704213 -4.434301 6.895713 0
M  V30 27 H -0.579942 -5.977927 6.016330 0
M  V30 28 H 0.643507 -5.594917 7.311186 0
M  V30 29 H -0.593926 -3.362666 4.599903 0
M  V30 30 H 2.122315 -2.326347 0.934584 0
M  V30 31 H 1.122648 -0.969018 -0.269602 0
M  V30 32 H -0.176876 -0.522300 -1.649912 0
M  V30 33 H 0.803970 0.855168 -1.060881 0
M  V30 34 H -2.579142 1.381357 -3.635573 0
M  V30 35 H -2.959920 1.422865 -1.927859 0
M  V30 36 H -2.422038 -0.117502 -2.577915 0
M  V30 37 H -0.955781 3.437503 -2.470575 0
M  V30 38 H -0.049646 2.932403 -1.155715 0
M  V30 39 H 0.985907 2.158153 -3.020355 0
M  V30 40 H -0.287746 2.378456 -4.222454 0
M  V30 41 H 1.289533 -0.151275 -3.514295 0
M  V30 42 H 1.843527 0.036618 -5.923340 0
M  V30 43 H 2.332333 1.465914 -4.885314 0
M  V30 44 H 0.886853 1.601431 -5.911121 0
M  V30 45 H -0.840454 -1.208141 -3.972575 0
M  V30 46 H -0.077282 -1.126611 -5.554128 0
M  V30 47 H -1.310095 0.104550 -5.191746 0
M  V30 48 H -2.970467 -0.086941 2.010904 0
M  V30 49 H -0.912704 2.209233 2.750943 0
M  V30 50 H -2.730749 2.487182 2.381867 0
M  V30 51 H -1.526792 0.628639 4.656407 0
M  V30 52 H -3.310588 0.975871 4.266778 0
M  V30 53 H -0.789726 -1.397934 4.180562 0
M  V30 54 H 3.301262 -2.839021 3.085654 0
M  V30 55 H 4.160602 -4.450742 4.630084 0
M  V30 END ATOM
M  V30 BEGIN BOND
M  V30 1 1 1 2
M  V30 2 2 2 3
M  V30 3 1 3 4
M  V30 4 1 4 5
M  V30 5 2 5 6
M  V30 6 1 6 7
M  V30 7 2 7 8
M  V30 8 1 8 9
M  V30 9 1 9 10
M  V30 10 1 10 11
M  V30 11 1 11 12
M  V30 12 1 11 13 CFG=1
M  V30 13 1 11 14
M  V30 14 1 14 15
M  V30 15 1 15 16
M  V30 16 1 15 17
M  V30 17 1 8 18
M  V30 18 1 18 19
M  V30 19 1 19 20
M  V30 20 1 20 21
M  V30 21 2 18 22
M  V30 22 2 4 23
M  V30 23 1 23 24
M  V30 24 2 24 25
M  V30 25 1 25 2
M  V30 26 1 22 5
M  V30 27 1 21 19
M  V30 28 1 1 26
M  V30 29 1 1 27
M  V30 30 1 1 28
M  V30 31 1 3 29
M  V30 32 1 6 30
M  V30 33 1 7 31
M  V30 34 1 10 32
M  V30 35 1 10 33
M  V30 36 1 12 34
M  V30 37 1 12 35
M  V30 38 1 12 36
M  V30 39 1 13 37
M  V30 40 1 13 38
M  V30 41 1 14 39
M  V30 42 1 14 40
M  V30 43 1 15 41
M  V30 44 1 16 42
M  V30 45 1 16 43
M  V30 46 1 16 44
M  V30 47 1 17 45
M  V30 48 1 17 46
M  V30 49 1 17 47
M  V30 50 1 19 48
M  V30 51 1 20 49
M  V30 52 1 20 50
M  V30 53 1 21 51
M  V30 54 1 21 52
M  V30 55 1 22 53
M  V30 56 1 23 54
M  V30 57 1 24 55
M  V30 END BOND
M  V30 END CTAB
M  END
>  <Dataset>  (405) 
ChEMBL_Kinases

>  <Ligand_Instance>  (405) 
nan

>  <PDB_ID>  (405) 
nan

>  <Standardized_SMILES>  (405) 
Cc1cc(-c2ccc(OC[C@@](C)(N)CC(C)C)c(C3CC3)c2)ccn1

>  <Name>  (405) 
nan

>  <Pocket>  (405) 
nan

>  <ATP_Site>  (405) 
nan

>  <Peripheral>  (405) 
nan

>  <Num_H_Atoms_ProtBoundConf>  (405) 
nan

>  <Num_Resolved_Atoms>  (405) 
nan

>  <Num_Not_Resolved_Atoms>  (405) 
nan

$$$$
CHEMBL5091798
     RDKit          3D

  0  0  0  0  0  0  0  0  0  0999 V3000
M  V30 BEGIN CTAB
M  V30 COUNTS 27 28 0 0 0
M  V30 BEGIN ATOM
M  V30 1 C -1.470897 -3.448829 2.155379 0
M  V30 2 C -0.508450 -2.647803 2.545770 0
M  V30 3 C 0.401598 -1.561302 2.336377 0
M  V30 4 O 0.951608 -1.619890 3.494355 0
M  V30 5 N 0.835138 -0.597094 1.446255 0
M  V30 6 C 1.819118 0.316366 1.995901 0
M  V30 7 O 2.422588 -0.161855 3.024407 0
M  V30 8 C 2.120114 1.659896 1.457094 0
M  V30 9 C 0.952349 2.549930 1.274501 0
M  V30 10 S 0.017343 2.320297 -0.241669 0
M  V30 11 C -0.088492 0.573894 -0.588303 0
M  V30 12 C -0.633606 0.359418 -1.841669 0
M  V30 13 C -0.796285 -0.947548 -2.314170 0
M  V30 14 C -0.426044 -2.062988 -1.563824 0
M  V30 15 C 0.120009 -1.881582 -0.311659 0
M  V30 16 C 0.273354 -0.563749 0.143133 0
M  V30 17 H -2.034327 -3.511134 1.211981 0
M  V30 18 H -2.034628 -3.510347 1.210036 0
M  V30 19 H -0.815437 -3.379620 3.258386 0
M  V30 20 H 2.838808 2.147816 2.140091 0
M  V30 21 H 2.620461 1.519048 0.476744 0
M  V30 22 H 1.300084 3.612057 1.386621 0
M  V30 23 H 0.237452 2.338037 2.122966 0
M  V30 24 H -0.919206 1.217413 -2.421477 0
M  V30 25 H -1.224169 -1.119374 -3.297428 0
M  V30 26 H -0.561105 -3.064121 -1.949714 0
M  V30 27 H 0.448281 -2.681299 0.328151 0
M  V30 END ATOM
M  V30 BEGIN BOND
M  V30 1 2 1 2
M  V30 2 1 2 3
M  V30 3 2 3 4
M  V30 4 1 3 5
M  V30 5 1 5 6
M  V30 6 2 6 7
M  V30 7 1 6 8
M  V30 8 1 8 9
M  V30 9 1 9 10
M  V30 10 1 10 11
M  V30 11 2 11 12
M  V30 12 1 12 13
M  V30 13 2 13 14
M  V30 14 1 14 15
M  V30 15 2 15 16
M  V30 16 1 16 5
M  V30 17 1 16 11
M  V30 18 1 1 17
M  V30 19 1 1 18
M  V30 20 1 2 19
M  V30 21 1 8 20
M  V30 22 1 8 21
M  V30 23 1 9 22
M  V30 24 1 9 23
M  V30 25 1 12 24
M  V30 26 1 13 25
M  V30 27 1 14 26
M  V30 28 1 15 27
M  V30 END BOND
M  V30 END CTAB
M  END
>  <Dataset>  (406) 
ChEMBL_Kinases

>  <Ligand_Instance>  (406) 
nan

>  <PDB_ID>  (406) 
nan

>  <Standardized_SMILES>  (406) 
C=CC(=O)N1C(=O)CCSc2ccccc21

>  <Name>  (406) 
nan

>  <Pocket>  (406) 
nan

>  <ATP_Site>  (406) 
nan

>  <Peripheral>  (406) 
nan

>  <Num_H_Atoms_ProtBoundConf>  (406) 
nan

>  <Num_Resolved_Atoms>  (406) 
nan

>  <Num_Not_Resolved_Atoms>  (406) 
nan

$$$$
CHEMBL5091819
     RDKit          3D

  0  0  0  0  0  0  0  0  0  0999 V3000
M  V30 BEGIN CTAB
M  V30 COUNTS 60 63 0 0 0
M  V30 BEGIN ATOM
M  V30 1 C 2.551595 3.823182 -2.369756 0
M  V30 2 C 2.678094 3.070424 -1.097029 0
M  V30 3 N 3.801439 2.869237 -0.400709 0
M  V30 4 N 3.569448 2.145022 0.699593 0
M  V30 5 C 4.514860 1.738652 1.681981 0
M  V30 6 C 5.188404 0.431923 1.461816 0
M  V30 7 C 5.981292 0.364483 0.173365 0
M  V30 8 C 6.188382 0.182338 2.587810 0
M  V30 9 O 4.292923 -0.643828 1.442943 0
M  V30 10 C 2.229326 1.890846 0.671340 0
M  V30 11 C 1.616779 2.445339 -0.430214 0
M  V30 12 N 0.247771 2.424818 -0.819120 0
M  V30 13 C -0.682451 1.696758 -0.029829 0
M  V30 14 N -1.374748 2.015957 1.102818 0
M  V30 15 C -2.210798 1.105679 1.636034 0
M  V30 16 N -2.907851 1.477681 2.807843 0
M  V30 17 C -2.435035 -0.154210 1.124488 0
M  V30 18 C -3.208960 -1.249321 1.452842 0
M  V30 19 C -4.077563 -1.336374 2.564996 0
M  V30 20 N -4.799347 -1.420607 3.471969 0
M  V30 21 C -2.947842 -2.197675 0.488356 0
M  V30 22 N -3.514290 -3.515748 0.395187 0
M  V30 23 C -2.976935 -4.726829 0.945876 0
M  V30 24 C -3.038174 -5.672578 -0.258632 0
M  V30 25 C -4.125998 -5.090144 -1.149227 0
M  V30 26 C -4.725401 -4.038351 -0.232310 0 CFG=1
M  V30 27 C -5.687315 -4.624631 0.754674 0
M  V30 28 N -2.052931 -1.719679 -0.401469 0
M  V30 29 C -1.526900 -2.389900 -1.545445 0
M  V30 30 C -1.710399 -0.449776 -0.037556 0
M  V30 31 N -0.874268 0.472160 -0.562900 0
M  V30 32 H 3.238165 3.344166 -3.130529 0
M  V30 33 H 1.536131 3.724922 -2.806242 0
M  V30 34 H 2.869919 4.876606 -2.302367 0
M  V30 35 H 4.036444 1.727066 2.679531 0
M  V30 36 H 5.332190 2.517787 1.707518 0
M  V30 37 H 5.221959 0.103658 -0.617531 0
M  V30 38 H 6.530232 1.285742 -0.066260 0
M  V30 39 H 6.678418 -0.501459 0.208700 0
M  V30 40 H 6.484761 1.169483 2.991439 0
M  V30 41 H 5.646551 -0.365997 3.378549 0
M  V30 42 H 7.087093 -0.356750 2.224939 0
M  V30 43 H 4.806539 -1.471182 1.233045 0
M  V30 44 H 1.712734 1.314448 1.436360 0
M  V30 45 H -0.015587 2.951549 -1.676471 0
M  V30 46 H -2.511011 1.361746 3.766562 0
M  V30 47 H -3.877131 1.889173 2.648027 0
M  V30 48 H -3.678192 -5.139045 1.696575 0
M  V30 49 H -1.996870 -4.654451 1.395249 0
M  V30 50 H -3.321456 -6.694068 0.071649 0
M  V30 51 H -2.087596 -5.706123 -0.793882 0
M  V30 52 H -3.665758 -4.586027 -2.020544 0
M  V30 53 H -4.871954 -5.859725 -1.433788 0
M  V30 54 H -5.234795 -3.230683 -0.834430 0
M  V30 55 H -5.588611 -4.117701 1.715197 0
M  V30 56 H -5.604880 -5.725672 0.842704 0
M  V30 57 H -6.729635 -4.406236 0.373901 0
M  V30 58 H -0.500771 -2.037409 -1.781201 0
M  V30 59 H -2.107560 -2.220719 -2.472609 0
M  V30 60 H -1.415762 -3.462908 -1.298956 0
M  V30 END ATOM
M  V30 BEGIN BOND
M  V30 1 1 1 2
M  V30 2 2 2 3
M  V30 3 1 3 4
M  V30 4 1 4 5
M  V30 5 1 5 6
M  V30 6 1 6 7
M  V30 7 1 6 8
M  V30 8 1 6 9
M  V30 9 1 4 10
M  V30 10 2 10 11
M  V30 11 1 11 12
M  V30 12 1 12 13
M  V30 13 2 13 14
M  V30 14 1 14 15
M  V30 15 1 15 16
M  V30 16 2 15 17
M  V30 17 1 17 18
M  V30 18 1 18 19
M  V30 19 3 19 20
M  V30 20 2 18 21
M  V30 21 1 21 22
M  V30 22 1 22 23
M  V30 23 1 23 24
M  V30 24 1 24 25
M  V30 25 1 25 26
M  V30 26 1 26 27
M  V30 27 1 21 28
M  V30 28 1 28 29
M  V30 29 1 28 30
M  V30 30 2 30 31
M  V30 31 1 11 2
M  V30 32 1 31 13
M  V30 33 1 30 17
M  V30 34 1 26 22
M  V30 35 1 1 32
M  V30 36 1 1 33
M  V30 37 1 1 34
M  V30 38 1 5 35
M  V30 39 1 5 36
M  V30 40 1 7 37
M  V30 41 1 7 38
M  V30 42 1 7 39
M  V30 43 1 8 40
M  V30 44 1 8 41
M  V30 45 1 8 42
M  V30 46 1 9 43
M  V30 47 1 10 44
M  V30 48 1 12 45
M  V30 49 1 16 46
M  V30 50 1 16 47
M  V30 51 1 23 48
M  V30 52 1 23 49
M  V30 53 1 24 50
M  V30 54 1 24 51
M  V30 55 1 25 52
M  V30 56 1 25 53
M  V30 57 1 26 54 CFG=3
M  V30 58 1 27 55
M  V30 59 1 27 56
M  V30 60 1 27 57
M  V30 61 1 29 58
M  V30 62 1 29 59
M  V30 63 1 29 60
M  V30 END BOND
M  V30 END CTAB
M  END
>  <Dataset>  (407) 
ChEMBL_Kinases

>  <Ligand_Instance>  (407) 
nan

>  <PDB_ID>  (407) 
nan

>  <Standardized_SMILES>  (407) 
Cc1nn(CC(C)(C)O)cc1Nc1nc(N)c2c(C#N)c(N3CCC[C@H]3C)n(C)c2n1

>  <Name>  (407) 
nan

>  <Pocket>  (407) 
nan

>  <ATP_Site>  (407) 
nan

>  <Peripheral>  (407) 
nan

>  <Num_H_Atoms_ProtBoundConf>  (407) 
nan

>  <Num_Resolved_Atoms>  (407) 
nan

>  <Num_Not_Resolved_Atoms>  (407) 
nan

$$$$
CHEMBL3702351
     RDKit          3D

  0  0  0  0  0  0  0  0  0  0999 V3000
M  V30 BEGIN CTAB
M  V30 COUNTS 53 55 0 0 0
M  V30 BEGIN ATOM
M  V30 1 C 1.895938 -3.566396 3.429783 0
M  V30 2 O 2.258982 -2.236139 3.368922 0
M  V30 3 C 1.738119 -1.448847 4.382075 0
M  V30 4 C 2.290108 -0.040190 4.124463 0
M  V30 5 C 1.865930 0.940499 5.188084 0
M  V30 6 O 1.862953 0.417031 2.881433 0
M  V30 7 C 2.606172 0.635523 1.754296 0
M  V30 8 C 3.952135 0.468195 1.520098 0
M  V30 9 C 4.562390 0.732911 0.314716 0
M  V30 10 F 5.888957 0.500285 0.310784 0
M  V30 11 C 3.799318 1.191857 -0.730773 0
M  V30 12 C 2.421641 1.389673 -0.578546 0
M  V30 13 C 1.888367 1.105755 0.648093 0
M  V30 14 N 0.490216 1.336900 0.752107 0
M  V30 15 C -0.338900 1.806856 -0.292389 0
M  V30 16 N -0.034778 3.060492 -0.593347 0
M  V30 17 C -0.606711 3.840811 -1.498687 0
M  V30 18 N -1.606571 3.222088 -2.151901 0
M  V30 19 C -1.930517 1.952194 -1.861755 0
M  V30 20 S -3.209634 0.840933 -2.517687 0
M  V30 21 C -2.830280 -0.541513 -1.505624 0
M  V30 22 C -3.706329 -1.674937 -1.751620 0
M  V30 23 O -4.619569 -1.531027 -2.646891 0
M  V30 24 N -3.830490 -2.976074 -1.239463 0
M  V30 25 C -4.742504 -3.997487 -1.587997 0
M  V30 26 C -4.588568 -4.373485 -3.042456 0
M  V30 27 O -3.277025 -4.834409 -3.301316 0
M  V30 28 C -1.799880 -0.126795 -0.748150 0
M  V30 29 C -1.233593 -1.104465 0.218236 0
M  V30 30 C -1.351067 1.134927 -0.933232 0
M  V30 31 H 2.386697 -4.109280 2.573108 0
M  V30 32 H 2.247207 -3.950099 4.418198 0
M  V30 33 H 0.821739 -3.772681 3.362500 0
M  V30 34 H 0.622795 -1.407674 4.395044 0
M  V30 35 H 2.108804 -1.798019 5.360770 0
M  V30 36 H 3.414680 -0.157465 4.162690 0
M  V30 37 H 1.769540 0.488045 6.200969 0
M  V30 38 H 0.922765 1.420038 4.844765 0
M  V30 39 H 2.664152 1.737226 5.232867 0
M  V30 40 H 4.488229 0.102349 2.390970 0
M  V30 41 H 4.338219 1.382380 -1.654972 0
M  V30 42 H 1.856975 1.750502 -1.424043 0
M  V30 43 H -0.052018 1.171049 1.654355 0
M  V30 44 H -0.427747 4.849939 -1.803108 0
M  V30 45 H -3.136656 -3.174371 -0.488715 0
M  V30 46 H -4.554209 -4.893539 -0.943737 0
M  V30 47 H -5.813094 -3.722351 -1.464455 0
M  V30 48 H -4.831842 -3.538175 -3.715965 0
M  V30 49 H -5.279598 -5.239216 -3.296115 0
M  V30 50 H -2.645742 -4.107269 -3.093997 0
M  V30 51 H -1.180781 -2.138696 -0.181099 0
M  V30 52 H -0.161211 -0.876697 0.451515 0
M  V30 53 H -1.787644 -1.155144 1.174803 0
M  V30 END ATOM
M  V30 BEGIN BOND
M  V30 1 1 1 2
M  V30 2 1 2 3
M  V30 3 1 3 4
M  V30 4 1 4 5
M  V30 5 1 4 6
M  V30 6 1 6 7
M  V30 7 2 7 8
M  V30 8 1 8 9
M  V30 9 1 9 10
M  V30 10 2 9 11
M  V30 11 1 11 12
M  V30 12 2 12 13
M  V30 13 1 13 14
M  V30 14 1 14 15
M  V30 15 2 15 16
M  V30 16 1 16 17
M  V30 17 2 17 18
M  V30 18 1 18 19
M  V30 19 1 19 20
M  V30 20 1 20 21
M  V30 21 1 21 22
M  V30 22 2 22 23
M  V30 23 1 22 24
M  V30 24 1 24 25
M  V30 25 1 25 26
M  V30 26 1 26 27
M  V30 27 2 21 28
M  V30 28 1 28 29
M  V30 29 1 28 30
M  V30 30 1 13 7
M  V30 31 1 30 15
M  V30 32 2 30 19
M  V30 33 1 1 31
M  V30 34 1 1 32
M  V30 35 1 1 33
M  V30 36 1 3 34
M  V30 37 1 3 35
M  V30 38 1 4 36
M  V30 39 1 5 37
M  V30 40 1 5 38
M  V30 41 1 5 39
M  V30 42 1 8 40
M  V30 43 1 11 41
M  V30 44 1 12 42
M  V30 45 1 14 43
M  V30 46 1 17 44
M  V30 47 1 24 45
M  V30 48 1 25 46
M  V30 49 1 25 47
M  V30 50 1 26 48
M  V30 51 1 26 49
M  V30 52 1 27 50
M  V30 53 1 29 51
M  V30 54 1 29 52
M  V30 55 1 29 53
M  V30 END BOND
M  V30 END CTAB
M  END
>  <Dataset>  (408) 
ChEMBL_Kinases

>  <Ligand_Instance>  (408) 
nan

>  <PDB_ID>  (408) 
nan

>  <Standardized_SMILES>  (408) 
COCC(C)Oc1cc(F)ccc1Nc1ncnc2sc(C(=O)NCCO)c(C)c12

>  <Name>  (408) 
nan

>  <Pocket>  (408) 
nan

>  <ATP_Site>  (408) 
nan

>  <Peripheral>  (408) 
nan

>  <Num_H_Atoms_ProtBoundConf>  (408) 
nan

>  <Num_Resolved_Atoms>  (408) 
nan

>  <Num_Not_Resolved_Atoms>  (408) 
nan

$$$$
CHEMBL3702352
     RDKit          3D

  0  0  0  0  0  0  0  0  0  0999 V3000
M  V30 BEGIN CTAB
M  V30 COUNTS 46 48 0 0 0
M  V30 BEGIN ATOM
M  V30 1 C 2.917684 -4.222692 -0.261694 0
M  V30 2 O 3.096144 -2.887311 0.094575 0
M  V30 3 C 3.311765 -2.055556 -0.978396 0
M  V30 4 C 3.489876 -0.633255 -0.447499 0
M  V30 5 C 4.668586 -0.653166 0.533803 0
M  V30 6 O 2.378606 -0.186283 0.250005 0
M  V30 7 C 1.599628 0.923255 -0.012938 0
M  V30 8 C 1.743775 1.842593 -1.034734 0
M  V30 9 C 0.896699 2.915758 -1.193432 0
M  V30 10 F 1.162306 3.733862 -2.242424 0
M  V30 11 C -0.154527 3.133138 -0.330118 0
M  V30 12 C -0.318048 2.232626 0.693370 0
M  V30 13 C 0.535394 1.167020 0.838749 0
M  V30 14 N 0.299026 0.300242 1.905663 0
M  V30 15 C -0.711336 0.342481 2.895423 0
M  V30 16 N -0.334139 0.972269 4.012996 0
M  V30 17 C -1.084378 1.150595 5.083153 0
M  V30 18 N -2.326156 0.647287 5.016666 0
M  V30 19 C -2.717936 0.007367 3.888137 0
M  V30 20 S -4.336559 -0.778423 3.490007 0
M  V30 21 C -3.845595 -1.291968 1.872186 0
M  V30 22 C -4.780725 -2.000190 1.050589 0
M  V30 23 N -4.619155 -2.496565 -0.267934 0
M  V30 24 O -5.928041 -2.255107 1.491849 0
M  V30 25 C -2.532181 -0.869998 1.697089 0
M  V30 26 C -1.799177 -1.142158 0.423672 0
M  V30 27 C -1.967094 -0.200938 2.748574 0
M  V30 28 H 2.751780 -4.772350 0.708295 0
M  V30 29 H 2.019408 -4.375421 -0.871574 0
M  V30 30 H 3.833316 -4.694903 -0.687232 0
M  V30 31 H 2.537537 -2.121125 -1.741468 0
M  V30 32 H 4.281419 -2.302296 -1.495984 0
M  V30 33 H 3.695435 0.058681 -1.287179 0
M  V30 34 H 4.242025 -0.945775 1.518624 0
M  V30 35 H 5.105660 0.347763 0.546028 0
M  V30 36 H 5.395930 -1.455088 0.262797 0
M  V30 37 H 2.566745 1.675517 -1.713524 0
M  V30 38 H -0.760655 4.002366 -0.540120 0
M  V30 39 H -1.157830 2.434032 1.357248 0
M  V30 40 H 0.877167 -0.559992 2.149540 0
M  V30 41 H -0.893978 1.630363 6.020570 0
M  V30 42 H -4.962649 -3.431743 -0.586094 0
M  V30 43 H -4.376867 -2.614350 -1.263233 0
M  V30 44 H -0.753636 -1.422018 0.667724 0
M  V30 45 H -1.825341 -0.249867 -0.264316 0
M  V30 46 H -2.331612 -1.945149 -0.109539 0
M  V30 END ATOM
M  V30 BEGIN BOND
M  V30 1 1 1 2
M  V30 2 1 2 3
M  V30 3 1 3 4
M  V30 4 1 4 5
M  V30 5 1 4 6
M  V30 6 1 6 7
M  V30 7 2 7 8
M  V30 8 1 8 9
M  V30 9 1 9 10
M  V30 10 2 9 11
M  V30 11 1 11 12
M  V30 12 2 12 13
M  V30 13 1 13 14
M  V30 14 1 14 15
M  V30 15 2 15 16
M  V30 16 1 16 17
M  V30 17 2 17 18
M  V30 18 1 18 19
M  V30 19 1 19 20
M  V30 20 1 20 21
M  V30 21 1 21 22
M  V30 22 1 22 23
M  V30 23 2 22 24
M  V30 24 2 21 25
M  V30 25 1 25 26
M  V30 26 1 25 27
M  V30 27 1 13 7
M  V30 28 1 27 15
M  V30 29 2 27 19
M  V30 30 1 1 28
M  V30 31 1 1 29
M  V30 32 1 1 30
M  V30 33 1 3 31
M  V30 34 1 3 32
M  V30 35 1 4 33
M  V30 36 1 5 34
M  V30 37 1 5 35
M  V30 38 1 5 36
M  V30 39 1 8 37
M  V30 40 1 11 38
M  V30 41 1 12 39
M  V30 42 1 14 40
M  V30 43 1 17 41
M  V30 44 1 23 42
M  V30 45 1 23 43
M  V30 46 1 26 44
M  V30 47 1 26 45
M  V30 48 1 26 46
M  V30 END BOND
M  V30 END CTAB
M  END
>  <Dataset>  (409) 
ChEMBL_Kinases

>  <Ligand_Instance>  (409) 
nan

>  <PDB_ID>  (409) 
nan

>  <Standardized_SMILES>  (409) 
COCC(C)Oc1cc(F)ccc1Nc1ncnc2sc(C(N)=O)c(C)c12

>  <Name>  (409) 
nan

>  <Pocket>  (409) 
nan

>  <ATP_Site>  (409) 
nan

>  <Peripheral>  (409) 
nan

>  <Num_H_Atoms_ProtBoundConf>  (409) 
nan

>  <Num_Resolved_Atoms>  (409) 
nan

>  <Num_Not_Resolved_Atoms>  (409) 
nan

$$$$
CHEMBL3702353
     RDKit          3D

  0  0  0  0  0  0  0  0  0  0999 V3000
M  V30 BEGIN CTAB
M  V30 COUNTS 59 61 0 0 0
M  V30 BEGIN ATOM
M  V30 1 C 0.457327 -1.292841 1.092005 0
M  V30 2 C 0.541727 -0.332441 2.222124 0
M  V30 3 C 1.715236 0.339744 2.321380 0
M  V30 4 C 2.969941 0.576727 1.695648 0
M  V30 5 O 3.799870 1.383774 2.258227 0
M  V30 6 N 3.617617 0.145996 0.536108 0
M  V30 7 C 4.915909 0.516182 0.087950 0
M  V30 8 C 5.113480 1.975053 -0.193167 0
M  V30 9 C 4.212891 2.533531 -1.236864 0
M  V30 10 N 4.313917 1.959878 -2.537011 0
M  V30 11 C 3.320918 2.608007 -3.416449 0
M  V30 12 C 5.614458 2.110247 -3.160962 0
M  V30 13 S 1.540381 1.265497 3.802354 0
M  V30 14 C -0.125754 0.714189 4.239264 0
M  V30 15 N -0.912056 1.031159 5.277581 0
M  V30 16 C -2.128872 0.488102 5.375853 0
M  V30 17 N -2.417091 -0.336122 4.379062 0
M  V30 18 C -1.663731 -0.652636 3.364506 0
M  V30 19 N -2.321466 -1.535856 2.500964 0
M  V30 20 C -3.419243 -2.407682 2.481874 0
M  V30 21 C -4.164223 -2.442503 3.659430 0
M  V30 22 C -5.278721 -3.259881 3.845271 0
M  V30 23 C -5.658557 -4.084852 2.784350 0
M  V30 24 F -6.719228 -4.926342 2.826740 0
M  V30 25 C -4.905978 -4.026571 1.644988 0
M  V30 26 C -3.803441 -3.240019 1.413614 0
M  V30 27 O -2.986313 -3.089671 0.355934 0
M  V30 28 C -2.917045 -3.647047 -0.900008 0
M  V30 29 C -4.096488 -3.445783 -1.808051 0
M  V30 30 C -3.834782 -4.109069 -3.170743 0
M  V30 31 F -3.625179 -5.457520 -2.974847 0
M  V30 32 F -4.888775 -3.865941 -4.025474 0
M  V30 33 F -2.685358 -3.566540 -3.738181 0
M  V30 34 C -0.405020 -0.149617 3.186582 0
M  V30 35 H 1.490763 -1.694905 0.810440 0
M  V30 36 H -0.101748 -0.971933 0.230136 0
M  V30 37 H 0.011882 -2.295378 1.417457 0
M  V30 38 H 3.085694 -0.503753 -0.066588 0
M  V30 39 H 5.677585 0.269686 0.894322 0
M  V30 40 H 5.219253 -0.135115 -0.754031 0
M  V30 41 H 5.058913 2.537552 0.752179 0
M  V30 42 H 6.199051 2.087984 -0.506093 0
M  V30 43 H 4.455873 3.621336 -1.346125 0
M  V30 44 H 3.149201 2.485929 -0.933592 0
M  V30 45 H 3.735465 2.786409 -4.403788 0
M  V30 46 H 2.451985 1.893578 -3.432353 0
M  V30 47 H 2.955957 3.528426 -2.919801 0
M  V30 48 H 5.461687 1.803572 -4.237022 0
M  V30 49 H 6.392782 1.458351 -2.772620 0
M  V30 50 H 5.952631 3.175041 -3.216417 0
M  V30 51 H -2.669484 0.802256 6.234609 0
M  V30 52 H -1.923599 -1.510286 1.567439 0
M  V30 53 H -4.048658 -1.896645 4.596150 0
M  V30 54 H -5.907388 -3.351739 4.708303 0
M  V30 55 H -5.175682 -4.655897 0.824258 0
M  V30 56 H -2.661367 -4.759082 -0.866530 0
M  V30 57 H -2.020616 -3.180930 -1.407846 0
M  V30 58 H -4.995325 -3.911965 -1.362898 0
M  V30 59 H -4.302338 -2.376581 -1.990088 0
M  V30 END ATOM
M  V30 BEGIN BOND
M  V30 1 1 1 2
M  V30 2 2 2 3
M  V30 3 1 3 4
M  V30 4 2 4 5
M  V30 5 1 4 6
M  V30 6 1 6 7
M  V30 7 1 7 8
M  V30 8 1 8 9
M  V30 9 1 9 10
M  V30 10 1 10 11
M  V30 11 1 10 12
M  V30 12 1 3 13
M  V30 13 1 13 14
M  V30 14 2 14 15
M  V30 15 1 15 16
M  V30 16 2 16 17
M  V30 17 1 17 18
M  V30 18 1 18 19
M  V30 19 1 19 20
M  V30 20 2 20 21
M  V30 21 1 21 22
M  V30 22 2 22 23
M  V30 23 1 23 24
M  V30 24 1 23 25
M  V30 25 2 25 26
M  V30 26 1 26 27
M  V30 27 1 27 28
M  V30 28 1 28 29
M  V30 29 1 29 30
M  V30 30 1 30 31
M  V30 31 1 30 32
M  V30 32 1 30 33
M  V30 33 2 18 34
M  V30 34 1 34 2
M  V30 35 1 34 14
M  V30 36 1 26 20
M  V30 37 1 1 35
M  V30 38 1 1 36
M  V30 39 1 1 37
M  V30 40 1 6 38
M  V30 41 1 7 39
M  V30 42 1 7 40
M  V30 43 1 8 41
M  V30 44 1 8 42
M  V30 45 1 9 43
M  V30 46 1 9 44
M  V30 47 1 11 45
M  V30 48 1 11 46
M  V30 49 1 11 47
M  V30 50 1 12 48
M  V30 51 1 12 49
M  V30 52 1 12 50
M  V30 53 1 16 51
M  V30 54 1 19 52
M  V30 55 1 21 53
M  V30 56 1 22 54
M  V30 57 1 25 55
M  V30 58 1 28 56
M  V30 59 1 28 57
M  V30 60 1 29 58
M  V30 61 1 29 59
M  V30 END BOND
M  V30 END CTAB
M  END
>  <Dataset>  (410) 
ChEMBL_Kinases

>  <Ligand_Instance>  (410) 
nan

>  <PDB_ID>  (410) 
nan

>  <Standardized_SMILES>  (410) 
Cc1c(C(=O)NCCCN(C)C)sc2ncnc(Nc3ccc(F)cc3OCCC(F)(F)F)c12

>  <Name>  (410) 
nan

>  <Pocket>  (410) 
nan

>  <ATP_Site>  (410) 
nan

>  <Peripheral>  (410) 
nan

>  <Num_H_Atoms_ProtBoundConf>  (410) 
nan

>  <Num_Resolved_Atoms>  (410) 
nan

>  <Num_Not_Resolved_Atoms>  (410) 
nan

$$$$
CHEMBL3702354
     RDKit          3D

  0  0  0  0  0  0  0  0  0  0999 V3000
M  V30 BEGIN CTAB
M  V30 COUNTS 59 61 0 0 0
M  V30 BEGIN ATOM
M  V30 1 C 0.307358 -1.266948 0.433826 0
M  V30 2 C 0.624086 -0.580887 1.697304 0
M  V30 3 C 1.388268 0.587697 1.549370 0
M  V30 4 C 2.045216 1.372892 0.522986 0
M  V30 5 O 2.666393 2.409848 0.918199 0
M  V30 6 N 2.145737 1.219330 -0.885337 0
M  V30 7 C 2.860088 2.112731 -1.763203 0
M  V30 8 C 2.336794 3.503535 -1.758641 0
M  V30 9 C 3.101583 4.421639 -2.691874 0
M  V30 10 N 2.529218 5.728759 -2.607769 0
M  V30 11 C 3.202843 6.689783 -3.464823 0
M  V30 12 C 1.132303 5.751346 -2.937349 0
M  V30 13 S 1.564428 1.195535 3.158329 0
M  V30 14 C 0.631024 -0.095766 4.025637 0
M  V30 15 N 0.363363 -0.286099 5.320105 0
M  V30 16 C -0.343137 -1.367512 5.690450 0
M  V30 17 N -0.711869 -2.161167 4.679440 0
M  V30 18 C -0.445154 -1.971482 3.383574 0
M  V30 19 N -0.967715 -3.032245 2.608218 0
M  V30 20 C -2.314612 -3.411513 2.348697 0
M  V30 21 C -3.294472 -2.678803 2.994366 0
M  V30 22 C -4.636347 -3.011751 2.774829 0
M  V30 23 C -4.950295 -4.047776 1.931896 0
M  V30 24 F -6.248301 -4.360283 1.730159 0
M  V30 25 C -3.925436 -4.723562 1.330390 0
M  V30 26 C -2.581154 -4.466724 1.486695 0
M  V30 27 O -1.505481 -5.065988 0.940676 0
M  V30 28 C -1.310106 -6.104550 0.075109 0
M  V30 29 C -1.774471 -7.465514 0.490809 0
M  V30 30 C -1.101469 -7.943549 1.752793 0
M  V30 31 F -1.450535 -8.325037 -0.551303 0
M  V30 32 C 0.276918 -0.870483 2.966405 0
M  V30 33 H -0.545730 -1.999301 0.570228 0
M  V30 34 H -0.193559 -0.524228 -0.269719 0
M  V30 35 H 1.109498 -1.836247 -0.024913 0
M  V30 36 H 1.655838 0.378701 -1.256228 0
M  V30 37 H 3.958382 2.075314 -1.601559 0
M  V30 38 H 2.733646 1.711595 -2.808798 0
M  V30 39 H 1.267128 3.536950 -2.051003 0
M  V30 40 H 2.412011 3.927688 -0.744460 0
M  V30 41 H 4.153245 4.442518 -2.376603 0
M  V30 42 H 3.052506 4.010056 -3.738833 0
M  V30 43 H 2.553797 7.587977 -3.505981 0
M  V30 44 H 4.177906 7.015987 -3.056218 0
M  V30 45 H 3.290999 6.299786 -4.506982 0
M  V30 46 H 0.542182 5.819454 -2.000783 0
M  V30 47 H 0.817870 4.874773 -3.538987 0
M  V30 48 H 0.885238 6.633489 -3.597859 0
M  V30 49 H -0.527464 -1.471874 6.734570 0
M  V30 50 H -0.141598 -3.581385 2.213231 0
M  V30 51 H -3.019792 -1.850440 3.669223 0
M  V30 52 H -5.430363 -2.460262 3.266074 0
M  V30 53 H -4.175247 -5.533358 0.664962 0
M  V30 54 H -1.694873 -5.856114 -0.954173 0
M  V30 55 H -0.191675 -6.187272 -0.097963 0
M  V30 56 H -2.864752 -7.494803 0.663127 0
M  V30 57 H -0.205080 -7.328983 1.986203 0
M  V30 58 H -0.766084 -8.986307 1.587721 0
M  V30 59 H -1.800224 -7.974111 2.635309 0
M  V30 END ATOM
M  V30 BEGIN BOND
M  V30 1 1 1 2
M  V30 2 2 2 3
M  V30 3 1 3 4
M  V30 4 2 4 5
M  V30 5 1 4 6
M  V30 6 1 6 7
M  V30 7 1 7 8
M  V30 8 1 8 9
M  V30 9 1 9 10
M  V30 10 1 10 11
M  V30 11 1 10 12
M  V30 12 1 3 13
M  V30 13 1 13 14
M  V30 14 2 14 15
M  V30 15 1 15 16
M  V30 16 2 16 17
M  V30 17 1 17 18
M  V30 18 1 18 19
M  V30 19 1 19 20
M  V30 20 2 20 21
M  V30 21 1 21 22
M  V30 22 2 22 23
M  V30 23 1 23 24
M  V30 24 1 23 25
M  V30 25 2 25 26
M  V30 26 1 26 27
M  V30 27 1 27 28
M  V30 28 1 28 29
M  V30 29 1 29 30
M  V30 30 1 29 31
M  V30 31 2 18 32
M  V30 32 1 32 2
M  V30 33 1 32 14
M  V30 34 1 26 20
M  V30 35 1 1 33
M  V30 36 1 1 34
M  V30 37 1 1 35
M  V30 38 1 6 36
M  V30 39 1 7 37
M  V30 40 1 7 38
M  V30 41 1 8 39
M  V30 42 1 8 40
M  V30 43 1 9 41
M  V30 44 1 9 42
M  V30 45 1 11 43
M  V30 46 1 11 44
M  V30 47 1 11 45
M  V30 48 1 12 46
M  V30 49 1 12 47
M  V30 50 1 12 48
M  V30 51 1 16 49
M  V30 52 1 19 50
M  V30 53 1 21 51
M  V30 54 1 22 52
M  V30 55 1 25 53
M  V30 56 1 28 54
M  V30 57 1 28 55
M  V30 58 1 29 56
M  V30 59 1 30 57
M  V30 60 1 30 58
M  V30 61 1 30 59
M  V30 END BOND
M  V30 END CTAB
M  END
>  <Dataset>  (411) 
ChEMBL_Kinases

>  <Ligand_Instance>  (411) 
nan

>  <PDB_ID>  (411) 
nan

>  <Standardized_SMILES>  (411) 
Cc1c(C(=O)NCCCN(C)C)sc2ncnc(Nc3ccc(F)cc3OCC(C)F)c12

>  <Name>  (411) 
nan

>  <Pocket>  (411) 
nan

>  <ATP_Site>  (411) 
nan

>  <Peripheral>  (411) 
nan

>  <Num_H_Atoms_ProtBoundConf>  (411) 
nan

>  <Num_Resolved_Atoms>  (411) 
nan

>  <Num_Not_Resolved_Atoms>  (411) 
nan

$$$$
CHEMBL3702355
     RDKit          3D

  0  0  0  0  0  0  0  0  0  0999 V3000
M  V30 BEGIN CTAB
M  V30 COUNTS 63 66 0 0 0
M  V30 BEGIN ATOM
M  V30 1 C 0.618268 -1.615683 -0.016628 0
M  V30 2 C 1.083561 -0.714301 1.072787 0
M  V30 3 C 2.158798 0.033348 0.842412 0
M  V30 4 C 3.163156 0.401129 -0.124807 0
M  V30 5 O 4.062320 1.255893 0.213478 0
M  V30 6 N 3.467355 0.073363 -1.429367 0
M  V30 7 C 4.553102 0.573451 -2.229069 0
M  V30 8 C 4.036596 1.437135 -3.344788 0
M  V30 9 C 3.628610 0.728046 -4.581408 0
M  V30 10 N 3.565701 -0.690008 -4.246669 0
M  V30 11 C 2.886406 -1.463618 -5.241635 0
M  V30 12 C 4.969011 -1.087899 -4.064760 0
M  V30 13 C 5.372747 -0.594551 -2.699059 0
M  V30 14 S 2.409810 0.892883 2.332160 0
M  V30 15 C 1.000010 0.184881 3.242041 0
M  V30 16 N 0.521311 0.364564 4.489939 0
M  V30 17 C -0.555326 -0.285807 4.925855 0
M  V30 18 N -1.060472 -1.087182 4.014940 0
M  V30 19 C -0.639743 -1.311613 2.772750 0
M  V30 20 N -1.413161 -2.263971 2.062097 0
M  V30 21 C -2.615283 -2.750607 2.645892 0
M  V30 22 C -2.688023 -4.081673 3.112045 0
M  V30 23 C -3.792744 -4.680682 3.668981 0
M  V30 24 C -4.918406 -3.863511 3.761849 0
M  V30 25 F -5.973525 -4.512440 4.324279 0
M  V30 26 C -4.886044 -2.560811 3.316099 0
M  V30 27 C -3.761382 -1.989749 2.760617 0
M  V30 28 O -3.829221 -0.667520 2.326778 0
M  V30 29 C -4.947386 0.148379 2.365069 0
M  V30 30 C -5.781432 -0.029572 1.067180 0
M  V30 31 C -4.754495 1.607198 2.504785 0
M  V30 32 C -4.045503 2.042338 3.746848 0
M  V30 33 F -2.796504 1.520165 3.819332 0
M  V30 34 F -4.781042 1.580455 4.845766 0
M  V30 35 F -4.022219 3.418521 3.872325 0
M  V30 36 C 0.468679 -0.661006 2.281119 0
M  V30 37 H -0.412271 -1.385906 -0.304579 0
M  V30 38 H 1.312288 -1.713057 -0.854277 0
M  V30 39 H 0.585847 -2.692178 0.372392 0
M  V30 40 H 2.870073 -0.601732 -1.930989 0
M  V30 41 H 5.200722 1.224524 -1.610857 0
M  V30 42 H 4.818227 2.215153 -3.596426 0
M  V30 43 H 3.158440 1.982595 -2.944394 0
M  V30 44 H 4.286590 0.893356 -5.460792 0
M  V30 45 H 2.591380 1.004342 -4.859027 0
M  V30 46 H 1.869708 -1.806930 -4.915210 0
M  V30 47 H 2.765278 -0.870384 -6.167899 0
M  V30 48 H 3.449743 -2.390245 -5.472733 0
M  V30 49 H 4.961937 -2.195443 -4.078831 0
M  V30 50 H 5.577042 -0.643681 -4.876756 0
M  V30 51 H 5.338796 -1.458935 -2.007845 0
M  V30 52 H 6.452314 -0.308161 -2.773585 0
M  V30 53 H -0.884705 -0.102402 5.918125 0
M  V30 54 H -1.509970 -2.825237 1.198334 0
M  V30 55 H -1.756039 -4.642313 2.994524 0
M  V30 56 H -3.690382 -5.711297 3.979341 0
M  V30 57 H -5.841424 -2.131440 3.479213 0
M  V30 58 H -5.657612 -0.223606 3.142274 0
M  V30 59 H -6.828984 0.282340 1.282830 0
M  V30 60 H -5.343581 0.689898 0.348831 0
M  V30 61 H -5.690610 -1.033981 0.657165 0
M  V30 62 H -4.235848 2.024580 1.600945 0
M  V30 63 H -5.745951 2.138027 2.491281 0
M  V30 END ATOM
M  V30 BEGIN BOND
M  V30 1 1 1 2
M  V30 2 2 2 3
M  V30 3 1 3 4
M  V30 4 2 4 5
M  V30 5 1 4 6
M  V30 6 1 6 7
M  V30 7 1 7 8
M  V30 8 1 8 9
M  V30 9 1 9 10
M  V30 10 1 10 11
M  V30 11 1 10 12
M  V30 12 1 12 13
M  V30 13 1 3 14
M  V30 14 1 14 15
M  V30 15 2 15 16
M  V30 16 1 16 17
M  V30 17 2 17 18
M  V30 18 1 18 19
M  V30 19 1 19 20
M  V30 20 1 20 21
M  V30 21 2 21 22
M  V30 22 1 22 23
M  V30 23 2 23 24
M  V30 24 1 24 25
M  V30 25 1 24 26
M  V30 26 2 26 27
M  V30 27 1 27 28
M  V30 28 1 28 29
M  V30 29 1 29 30
M  V30 30 1 29 31
M  V30 31 1 31 32
M  V30 32 1 32 33
M  V30 33 1 32 34
M  V30 34 1 32 35
M  V30 35 2 19 36
M  V30 36 1 36 2
M  V30 37 1 13 7
M  V30 38 1 36 15
M  V30 39 1 27 21
M  V30 40 1 1 37
M  V30 41 1 1 38
M  V30 42 1 1 39
M  V30 43 1 6 40
M  V30 44 1 7 41
M  V30 45 1 8 42
M  V30 46 1 8 43
M  V30 47 1 9 44
M  V30 48 1 9 45
M  V30 49 1 11 46
M  V30 50 1 11 47
M  V30 51 1 11 48
M  V30 52 1 12 49
M  V30 53 1 12 50
M  V30 54 1 13 51
M  V30 55 1 13 52
M  V30 56 1 17 53
M  V30 57 1 20 54
M  V30 58 1 22 55
M  V30 59 1 23 56
M  V30 60 1 26 57
M  V30 61 1 29 58
M  V30 62 1 30 59
M  V30 63 1 30 60
M  V30 64 1 30 61
M  V30 65 1 31 62
M  V30 66 1 31 63
M  V30 END BOND
M  V30 END CTAB
M  END
>  <Dataset>  (412) 
ChEMBL_Kinases

>  <Ligand_Instance>  (412) 
nan

>  <PDB_ID>  (412) 
nan

>  <Standardized_SMILES>  (412) 
Cc1c(C(=O)NC2CCN(C)CC2)sc2ncnc(Nc3ccc(F)cc3OC(C)CC(F)(F)F)c12

>  <Name>  (412) 
nan

>  <Pocket>  (412) 
nan

>  <ATP_Site>  (412) 
nan

>  <Peripheral>  (412) 
nan

>  <Num_H_Atoms_ProtBoundConf>  (412) 
nan

>  <Num_Resolved_Atoms>  (412) 
nan

>  <Num_Not_Resolved_Atoms>  (412) 
nan

$$$$
CHEMBL3702356
     RDKit          3D

  0  0  0  0  0  0  0  0  0  0999 V3000
M  V30 BEGIN CTAB
M  V30 COUNTS 66 69 0 0 0
M  V30 BEGIN ATOM
M  V30 1 C -0.355199 0.093389 1.629790 0
M  V30 2 C -0.016932 -1.341391 1.921494 0
M  V30 3 C 0.803001 -2.030962 1.031316 0
M  V30 4 C 1.398177 -1.561373 -0.196465 0
M  V30 5 O 1.402943 -0.462923 -0.847298 0
M  V30 6 N 2.194015 -2.474365 -0.939359 0
M  V30 7 C 2.787339 -1.984317 -2.188159 0
M  V30 8 C 3.609982 -3.086899 -2.865202 0
M  V30 9 C 4.177068 -2.535467 -4.126675 0
M  V30 10 N 4.981161 -3.464090 -4.883820 0
M  V30 11 C 4.221748 -4.547766 -5.448751 0
M  V30 12 C 3.735041 -4.106448 -6.791848 0
M  V30 13 C 4.332369 -2.754331 -7.046544 0
M  V30 14 C 5.465389 -2.691932 -6.043324 0
M  V30 15 S 0.957620 -3.648824 1.729454 0
M  V30 16 C -0.075263 -3.326012 3.165660 0
M  V30 17 N -0.437363 -4.150417 4.199938 0
M  V30 18 C -1.239199 -3.660182 5.161062 0
M  V30 19 N -1.643785 -2.386660 5.056376 0
M  V30 20 C -1.279369 -1.602865 4.041762 0
M  V30 21 N -1.841789 -0.300380 4.155717 0
M  V30 22 C -3.055386 -0.044798 3.427356 0
M  V30 23 C -3.581966 -1.093297 2.654833 0
M  V30 24 C -4.746650 -0.967352 1.894648 0
M  V30 25 C -5.391803 0.247514 1.918004 0
M  V30 26 F -6.511403 0.395529 1.196894 0
M  V30 27 C -4.873975 1.275599 2.676979 0
M  V30 28 C -3.708153 1.170725 3.446466 0
M  V30 29 O -3.197995 2.187360 4.196788 0
M  V30 30 C -3.681517 3.487662 4.341294 0
M  V30 31 C -4.216792 3.620987 5.782105 0
M  V30 32 C -2.594302 4.528563 4.236443 0
M  V30 33 C -3.109911 5.943475 4.384243 0
M  V30 34 F -3.725055 6.190401 5.573339 0
M  V30 35 F -3.884032 6.279008 3.290536 0
M  V30 36 F -1.987860 6.776851 4.314149 0
M  V30 37 C -0.465477 -2.001295 3.009891 0
M  V30 38 H 0.453636 0.573781 1.046145 0
M  V30 39 H -0.390769 0.705272 2.580070 0
M  V30 40 H -1.306590 0.231871 1.131868 0
M  V30 41 H 2.403060 -3.483366 -0.675782 0
M  V30 42 H 3.458050 -1.167814 -1.916143 0
M  V30 43 H 1.932877 -1.690490 -2.825161 0
M  V30 44 H 4.422090 -3.427251 -2.222250 0
M  V30 45 H 2.893490 -3.917974 -3.012908 0
M  V30 46 H 4.864796 -1.713927 -3.832362 0
M  V30 47 H 3.385144 -2.036587 -4.761881 0
M  V30 48 H 4.924949 -5.398711 -5.625229 0
M  V30 49 H 3.380893 -4.881085 -4.851900 0
M  V30 50 H 3.910394 -4.824340 -7.608264 0
M  V30 51 H 2.615185 -3.955962 -6.789060 0
M  V30 52 H 4.666723 -2.722404 -8.099556 0
M  V30 53 H 3.596761 -1.931323 -6.910100 0
M  V30 54 H 6.375721 -3.154044 -6.470969 0
M  V30 55 H 5.624202 -1.629313 -5.792554 0
M  V30 56 H -1.484717 -4.352620 5.940477 0
M  V30 57 H -1.424395 0.450007 4.726641 0
M  V30 58 H -3.108015 -2.062561 2.607256 0
M  V30 59 H -5.124683 -1.785434 1.314608 0
M  V30 60 H -5.422091 2.192549 2.652710 0
M  V30 61 H -4.523973 3.698729 3.659757 0
M  V30 62 H -5.051957 4.332743 5.790655 0
M  V30 63 H -3.426315 3.974370 6.453038 0
M  V30 64 H -4.622683 2.641960 6.128441 0
M  V30 65 H -1.784120 4.344539 4.978677 0
M  V30 66 H -2.125555 4.442370 3.241921 0
M  V30 END ATOM
M  V30 BEGIN BOND
M  V30 1 1 1 2
M  V30 2 2 2 3
M  V30 3 1 3 4
M  V30 4 2 4 5
M  V30 5 1 4 6
M  V30 6 1 6 7
M  V30 7 1 7 8
M  V30 8 1 8 9
M  V30 9 1 9 10
M  V30 10 1 10 11
M  V30 11 1 11 12
M  V30 12 1 12 13
M  V30 13 1 13 14
M  V30 14 1 3 15
M  V30 15 1 15 16
M  V30 16 2 16 17
M  V30 17 1 17 18
M  V30 18 2 18 19
M  V30 19 1 19 20
M  V30 20 1 20 21
M  V30 21 1 21 22
M  V30 22 2 22 23
M  V30 23 1 23 24
M  V30 24 2 24 25
M  V30 25 1 25 26
M  V30 26 1 25 27
M  V30 27 2 27 28
M  V30 28 1 28 29
M  V30 29 1 29 30
M  V30 30 1 30 31
M  V30 31 1 30 32
M  V30 32 1 32 33
M  V30 33 1 33 34
M  V30 34 1 33 35
M  V30 35 1 33 36
M  V30 36 2 20 37
M  V30 37 1 37 2
M  V30 38 1 14 10
M  V30 39 1 37 16
M  V30 40 1 28 22
M  V30 41 1 1 38
M  V30 42 1 1 39
M  V30 43 1 1 40
M  V30 44 1 6 41
M  V30 45 1 7 42
M  V30 46 1 7 43
M  V30 47 1 8 44
M  V30 48 1 8 45
M  V30 49 1 9 46
M  V30 50 1 9 47
M  V30 51 1 11 48
M  V30 52 1 11 49
M  V30 53 1 12 50
M  V30 54 1 12 51
M  V30 55 1 13 52
M  V30 56 1 13 53
M  V30 57 1 14 54
M  V30 58 1 14 55
M  V30 59 1 18 56
M  V30 60 1 21 57
M  V30 61 1 23 58
M  V30 62 1 24 59
M  V30 63 1 27 60
M  V30 64 1 30 61
M  V30 65 1 31 62
M  V30 66 1 31 63
M  V30 67 1 31 64
M  V30 68 1 32 65
M  V30 69 1 32 66
M  V30 END BOND
M  V30 END CTAB
M  END
>  <Dataset>  (413) 
ChEMBL_Kinases

>  <Ligand_Instance>  (413) 
nan

>  <PDB_ID>  (413) 
nan

>  <Standardized_SMILES>  (413) 
Cc1c(C(=O)NCCCN2CCCC2)sc2ncnc(Nc3ccc(F)cc3OC(C)CC(F)(F)F)c12

>  <Name>  (413) 
nan

>  <Pocket>  (413) 
nan

>  <ATP_Site>  (413) 
nan

>  <Peripheral>  (413) 
nan

>  <Num_H_Atoms_ProtBoundConf>  (413) 
nan

>  <Num_Resolved_Atoms>  (413) 
nan

>  <Num_Not_Resolved_Atoms>  (413) 
nan

$$$$
CHEMBL5091850
     RDKit          3D

  0  0  0  0  0  0  0  0  0  0999 V3000
M  V30 BEGIN CTAB
M  V30 COUNTS 93 97 0 0 0
M  V30 BEGIN ATOM
M  V30 1 C -2.383759 -4.962283 4.490737 0
M  V30 2 C -1.185833 -4.107501 4.282086 0
M  V30 3 N -0.065558 -4.909175 3.816257 0
M  V30 4 C 1.188543 -4.940597 4.492453 0
M  V30 5 O 1.255119 -4.223212 5.522089 0
M  V30 6 C 2.344803 -5.709104 4.090538 0
M  V30 7 C 3.549466 -5.662124 4.731659 0
M  V30 8 C 4.425677 -6.510081 4.098130 0
M  V30 9 C 5.804442 -6.741006 4.472659 0
M  V30 10 C 6.635051 -7.604493 3.798474 0
M  V30 11 C 7.965470 -7.838710 4.133143 0
M  V30 12 C 8.508228 -7.168591 5.212219 0
M  V30 13 C 7.704505 -6.286308 5.922258 0
M  V30 14 C 6.375431 -6.087275 5.545037 0
M  V30 15 N 3.749957 -7.055267 3.092505 0
M  V30 16 N 2.514745 -6.581928 3.085251 0
M  V30 17 C -1.424202 -2.951863 3.349629 0
M  V30 18 C -1.423089 -3.029586 1.972248 0
M  V30 19 C -1.646073 -1.903314 1.210537 0
M  V30 20 C -1.878630 -0.658110 1.752657 0
M  V30 21 C -2.108954 0.558570 0.948446 0
M  V30 22 O -2.301715 1.625639 1.616995 0
M  V30 23 N -2.134258 0.647914 -0.499736 0
M  V30 24 C -2.372442 1.945396 -1.082047 0 CFG=1
M  V30 25 C -1.167200 2.537928 -1.694702 0
M  V30 26 C -0.471911 1.908055 -2.819477 0
M  V30 27 C 0.096723 0.536554 -2.663965 0
M  V30 28 C 0.801250 0.161254 -3.982059 0
M  V30 29 C 1.369032 -1.217310 -3.909760 0
M  V30 30 C 2.323869 -1.373086 -2.776869 0
M  V30 31 C 2.373131 -0.162973 -1.903217 0
M  V30 32 C 0.997359 0.328069 -1.504522 0
M  V30 33 C -3.561070 1.933086 -1.979389 0
M  V30 34 O -4.170272 0.841467 -2.106677 0
M  V30 35 N -3.926178 3.143307 -2.625534 0
M  V30 36 C -5.039024 3.366006 -3.531765 0 CFG=1
M  V30 37 C -5.839953 4.498248 -2.912572 0
M  V30 38 C -5.062692 5.756018 -2.719476 0
M  V30 39 C -4.328501 6.117447 -3.963943 0
M  V30 40 N -3.590403 5.028728 -4.553629 0
M  V30 41 S -2.934644 5.570277 -6.058167 0
M  V30 42 C -1.832122 6.918902 -5.698629 0
M  V30 43 O -2.173426 4.449699 -6.694718 0
M  V30 44 O -4.084087 6.028931 -6.936078 0
M  V30 45 C -4.458896 3.899183 -4.827235 0
M  V30 46 C -1.882240 -0.567409 3.126158 0
M  V30 47 C -1.659255 -1.695476 3.878358 0
M  V30 48 H -2.371480 -5.447514 5.485953 0
M  V30 49 H -3.350972 -4.452235 4.293744 0
M  V30 50 H -2.378206 -5.805533 3.737200 0
M  V30 51 H -0.870723 -3.673237 5.241844 0
M  V30 52 H -0.142633 -5.502925 2.951139 0
M  V30 53 H 3.809893 -5.070537 5.595026 0
M  V30 54 H 6.206414 -8.132066 2.948788 0
M  V30 55 H 8.611933 -8.513748 3.605379 0
M  V30 56 H 9.530703 -7.292270 5.538836 0
M  V30 57 H 8.074814 -5.723755 6.786095 0
M  V30 58 H 5.784878 -5.395712 6.120449 0
M  V30 59 H 1.700920 -6.789964 2.433797 0
M  V30 60 H -1.241805 -4.002516 1.535410 0
M  V30 61 H -1.628042 -2.044743 0.142471 0
M  V30 62 H -1.976571 -0.331930 -0.801752 0
M  V30 63 H -2.685841 2.619914 -0.232690 0
M  V30 64 H -0.409231 2.735521 -0.871023 0
M  V30 65 H -1.411517 3.611035 -2.011574 0
M  V30 66 H -1.049323 1.971202 -3.789680 0
M  V30 67 H 0.428845 2.565990 -3.062672 0
M  V30 68 H -0.720844 -0.237188 -2.621833 0
M  V30 69 H 0.092584 0.194896 -4.830006 0
M  V30 70 H 1.592152 0.909032 -4.190055 0
M  V30 71 H 0.562414 -1.979892 -3.854293 0
M  V30 72 H 1.874853 -1.405525 -4.899886 0
M  V30 73 H 2.033073 -2.280238 -2.183002 0
M  V30 74 H 3.350074 -1.537021 -3.210194 0
M  V30 75 H 2.964853 0.661333 -2.344668 0
M  V30 76 H 2.889743 -0.455831 -0.947044 0
M  V30 77 H 1.164098 1.279779 -0.957892 0
M  V30 78 H 0.566196 -0.388307 -0.798250 0
M  V30 79 H -3.351095 3.995351 -2.454408 0
M  V30 80 H -5.625544 2.462776 -3.675211 0
M  V30 81 H -6.783619 4.658154 -3.453984 0
M  V30 82 H -6.100902 4.109593 -1.880652 0
M  V30 83 H -5.730727 6.622397 -2.477888 0
M  V30 84 H -4.322745 5.676871 -1.880322 0
M  V30 85 H -5.034531 6.527647 -4.733045 0
M  V30 86 H -3.587281 6.906194 -3.714384 0
M  V30 87 H -1.438501 6.800657 -4.653301 0
M  V30 88 H -0.974581 6.861702 -6.372198 0
M  V30 89 H -2.336966 7.906925 -5.736554 0
M  V30 90 H -3.876769 3.082845 -5.291231 0
M  V30 91 H -5.274748 4.184684 -5.522939 0
M  V30 92 H -2.059035 0.384620 3.655564 0
M  V30 93 H -1.662190 -1.619469 4.964401 0
M  V30 END ATOM
M  V30 BEGIN BOND
M  V30 1 1 1 2
M  V30 2 1 2 3
M  V30 3 1 3 4
M  V30 4 2 4 5
M  V30 5 1 4 6
M  V30 6 2 6 7
M  V30 7 1 7 8
M  V30 8 1 8 9
M  V30 9 2 9 10
M  V30 10 1 10 11
M  V30 11 2 11 12
M  V30 12 1 12 13
M  V30 13 2 13 14
M  V30 14 2 8 15
M  V30 15 1 15 16
M  V30 16 1 2 17
M  V30 17 2 17 18
M  V30 18 1 18 19
M  V30 19 2 19 20
M  V30 20 1 20 21
M  V30 21 2 21 22
M  V30 22 1 21 23
M  V30 23 1 23 24
M  V30 24 1 24 25
M  V30 25 1 25 26
M  V30 26 1 26 27
M  V30 27 1 27 28
M  V30 28 1 28 29
M  V30 29 1 29 30
M  V30 30 1 30 31
M  V30 31 1 31 32
M  V30 32 1 24 33
M  V30 33 2 33 34
M  V30 34 1 33 35
M  V30 35 1 35 36
M  V30 36 1 36 37
M  V30 37 1 37 38
M  V30 38 1 38 39
M  V30 39 1 39 40
M  V30 40 1 40 41
M  V30 41 1 41 42
M  V30 42 2 41 43
M  V30 43 2 41 44
M  V30 44 1 40 45
M  V30 45 1 20 46
M  V30 46 2 46 47
M  V30 47 1 16 6
M  V30 48 1 47 17
M  V30 49 1 14 9
M  V30 50 1 32 27
M  V30 51 1 45 36
M  V30 52 1 1 48
M  V30 53 1 1 49
M  V30 54 1 1 50
M  V30 55 1 2 51
M  V30 56 1 3 52
M  V30 57 1 7 53
M  V30 58 1 10 54
M  V30 59 1 11 55
M  V30 60 1 12 56
M  V30 61 1 13 57
M  V30 62 1 14 58
M  V30 63 1 16 59
M  V30 64 1 18 60
M  V30 65 1 19 61
M  V30 66 1 23 62
M  V30 67 1 24 63 CFG=1
M  V30 68 1 25 64
M  V30 69 1 25 65
M  V30 70 1 26 66
M  V30 71 1 26 67
M  V30 72 1 27 68
M  V30 73 1 28 69
M  V30 74 1 28 70
M  V30 75 1 29 71
M  V30 76 1 29 72
M  V30 77 1 30 73
M  V30 78 1 30 74
M  V30 79 1 31 75
M  V30 80 1 31 76
M  V30 81 1 32 77
M  V30 82 1 32 78
M  V30 83 1 35 79
M  V30 84 1 36 80 CFG=3
M  V30 85 1 37 81
M  V30 86 1 37 82
M  V30 87 1 38 83
M  V30 88 1 38 84
M  V30 89 1 39 85
M  V30 90 1 39 86
M  V30 91 1 42 87
M  V30 92 1 42 88
M  V30 93 1 42 89
M  V30 94 1 45 90
M  V30 95 1 45 91
M  V30 96 1 46 92
M  V30 97 1 47 93
M  V30 END BOND
M  V30 END CTAB
M  END
>  <Dataset>  (414) 
ChEMBL_Kinases

>  <Ligand_Instance>  (414) 
nan

>  <PDB_ID>  (414) 
nan

>  <Standardized_SMILES>  (414) 
CC(NC(=O)c1cc(-c2ccccc2)n[nH]1)c1ccc(C(=O)N[C@@H](CCC2CCCCC2)C(=O)N[C@H]2CCCN(S(C)(=O)=O)C2)cc1

>  <Name>  (414) 
nan

>  <Pocket>  (414) 
nan

>  <ATP_Site>  (414) 
nan

>  <Peripheral>  (414) 
nan

>  <Num_H_Atoms_ProtBoundConf>  (414) 
nan

>  <Num_Resolved_Atoms>  (414) 
nan

>  <Num_Not_Resolved_Atoms>  (414) 
nan

$$$$
CHEMBL5091909
     RDKit          3D

  0  0  0  0  0  0  0  0  0  0999 V3000
M  V30 BEGIN CTAB
M  V30 COUNTS 44 47 0 0 0
M  V30 BEGIN ATOM
M  V30 1 C 1.588008 -3.679323 -0.563069 0
M  V30 2 C 2.468748 -3.493924 0.621156 0 CFG=2
M  V30 3 C 2.027799 -4.315117 1.817088 0
M  V30 4 C 2.744562 -3.595755 2.966048 0
M  V30 5 C 3.349140 -2.353865 2.329967 0
M  V30 6 N 2.442795 -2.162904 1.190711 0
M  V30 7 C 1.719310 -1.021246 0.730869 0
M  V30 8 C 2.184331 -0.083011 -0.172939 0
M  V30 9 C 3.449089 -0.032481 -0.836900 0
M  V30 10 N 4.467118 0.004777 -1.393266 0
M  V30 11 C 1.193300 0.859875 -0.357464 0
M  V30 12 C 0.991846 2.012000 -1.083922 0
M  V30 13 N 2.070950 2.444539 -1.929721 0
M  V30 14 N -0.150299 2.716964 -1.022780 0
M  V30 15 C -1.169590 2.330751 -0.239887 0
M  V30 16 N -2.369834 3.089693 -0.188596 0
M  V30 17 C -3.489048 2.742259 0.615803 0
M  V30 18 C -3.666598 1.674329 1.468956 0
M  V30 19 N -4.898187 1.721232 2.046700 0
M  V30 20 N -5.495367 2.797915 1.571844 0
M  V30 21 C -4.678551 3.431818 0.712292 0
M  V30 22 N -0.961370 1.219934 0.453587 0
M  V30 23 C 0.152857 0.468349 0.439747 0
M  V30 24 N 0.489873 -0.666151 1.086302 0
M  V30 25 C -0.330792 -1.405414 2.023855 0
M  V30 26 H 0.601058 -4.114878 -0.260631 0
M  V30 27 H 1.494100 -2.795574 -1.210790 0
M  V30 28 H 2.068837 -4.475603 -1.200220 0
M  V30 29 H 3.523767 -3.769814 0.420668 0
M  V30 30 H 0.942875 -4.239939 2.022350 0
M  V30 31 H 2.388596 -5.367767 1.763485 0
M  V30 32 H 2.037182 -3.252394 3.748699 0
M  V30 33 H 3.526520 -4.256129 3.391293 0
M  V30 34 H 4.348272 -2.553534 1.899243 0
M  V30 35 H 3.352705 -1.494721 3.001717 0
M  V30 36 H 2.435684 2.660381 -2.886441 0
M  V30 37 H 3.063161 2.750527 -1.823446 0
M  V30 38 H -2.436391 3.954291 -0.775486 0
M  V30 39 H -2.959485 0.893889 1.676990 0
M  V30 40 H -6.464831 3.062775 1.863332 0
M  V30 41 H -4.963880 4.355074 0.192543 0
M  V30 42 H -0.621254 -2.344337 1.524176 0
M  V30 43 H 0.202385 -1.536840 2.984399 0
M  V30 44 H -1.271505 -0.851469 2.259327 0
M  V30 END ATOM
M  V30 BEGIN BOND
M  V30 1 1 1 2
M  V30 2 1 2 3
M  V30 3 1 3 4
M  V30 4 1 4 5
M  V30 5 1 5 6
M  V30 6 1 6 7
M  V30 7 2 7 8
M  V30 8 1 8 9
M  V30 9 3 9 10
M  V30 10 1 8 11
M  V30 11 2 11 12
M  V30 12 1 12 13
M  V30 13 1 12 14
M  V30 14 2 14 15
M  V30 15 1 15 16
M  V30 16 1 16 17
M  V30 17 1 17 18
M  V30 18 2 18 19
M  V30 19 1 19 20
M  V30 20 1 20 21
M  V30 21 1 15 22
M  V30 22 2 22 23
M  V30 23 1 23 24
M  V30 24 1 24 25
M  V30 25 1 6 2
M  V30 26 1 24 7
M  V30 27 1 23 11
M  V30 28 2 21 17
M  V30 29 1 1 26
M  V30 30 1 1 27
M  V30 31 1 1 28
M  V30 32 1 2 29 CFG=3
M  V30 33 1 3 30
M  V30 34 1 3 31
M  V30 35 1 4 32
M  V30 36 1 4 33
M  V30 37 1 5 34
M  V30 38 1 5 35
M  V30 39 1 13 36
M  V30 40 1 13 37
M  V30 41 1 16 38
M  V30 42 1 18 39
M  V30 43 1 20 40
M  V30 44 1 21 41
M  V30 45 1 25 42
M  V30 46 1 25 43
M  V30 47 1 25 44
M  V30 END BOND
M  V30 END CTAB
M  END
>  <Dataset>  (415) 
ChEMBL_Kinases

>  <Ligand_Instance>  (415) 
nan

>  <PDB_ID>  (415) 
nan

>  <Standardized_SMILES>  (415) 
C[C@@H]1CCCN1c1c(C#N)c2c(N)nc(Nc3cn[nH]c3)nc2n1C

>  <Name>  (415) 
nan

>  <Pocket>  (415) 
nan

>  <ATP_Site>  (415) 
nan

>  <Peripheral>  (415) 
nan

>  <Num_H_Atoms_ProtBoundConf>  (415) 
nan

>  <Num_Resolved_Atoms>  (415) 
nan

>  <Num_Not_Resolved_Atoms>  (415) 
nan

$$$$
CHEMBL370248
     RDKit          3D

  0  0  0  0  0  0  0  0  0  0999 V3000
M  V30 BEGIN CTAB
M  V30 COUNTS 43 46 0 0 0
M  V30 BEGIN ATOM
M  V30 1 C -1.159387 -4.213171 2.252813 0
M  V30 2 N 0.212556 -4.408661 1.937156 0
M  V30 3 C 1.165075 -4.086825 2.936584 0
M  V30 4 C 1.916094 -2.811169 2.768414 0
M  V30 5 C 2.152312 -2.378299 1.354272 0
M  V30 6 C 1.409944 -1.113972 1.003116 0
M  V30 7 C 2.024139 0.005228 0.446337 0
M  V30 8 C 1.098935 1.025632 0.234756 0
M  V30 9 C 1.291918 2.351853 -0.330712 0
M  V30 10 C 0.732248 2.572017 -1.595942 0
M  V30 11 C 0.870309 3.805815 -2.192347 0
M  V30 12 N 1.524110 4.827231 -1.616211 0
M  V30 13 C 2.062520 4.617033 -0.400531 0
M  V30 14 C 1.969636 3.395163 0.276743 0
M  V30 15 C -0.077589 0.483605 0.680325 0
M  V30 16 C -1.363779 1.171223 0.675848 0
M  V30 17 N -2.598983 0.532203 1.174886 0
M  V30 18 C -3.565780 1.442274 1.028315 0
M  V30 19 C -3.511972 2.932517 0.449722 0
M  V30 20 S -1.648634 2.801650 0.113655 0
M  V30 21 N 0.123183 -0.747312 1.117755 0
M  V30 22 C 1.881022 -3.487112 0.378723 0
M  V30 23 C 0.519171 -4.060977 0.593938 0
M  V30 24 H -1.365742 -3.848971 3.274254 0
M  V30 25 H -1.725245 -5.182546 2.119879 0
M  V30 26 H -1.648657 -3.533670 1.510960 0
M  V30 27 H 0.615292 -4.017085 3.924728 0
M  V30 28 H 1.848790 -4.965679 3.105704 0
M  V30 29 H 2.862918 -2.920217 3.345406 0
M  V30 30 H 1.332186 -1.994977 3.283267 0
M  V30 31 H 3.254004 -2.114818 1.270616 0
M  V30 32 H 3.082604 0.129315 0.187202 0
M  V30 33 H 0.184899 1.821478 -2.152319 0
M  V30 34 H 0.440913 3.983537 -3.168869 0
M  V30 35 H 2.594925 5.421499 0.088875 0
M  V30 36 H 2.390131 3.204952 1.245065 0
M  V30 37 H -4.413083 0.843096 1.432002 0
M  V30 38 H -4.633108 3.194475 0.582300 0
M  V30 39 H -0.592890 -1.391861 1.514722 0
M  V30 40 H 1.926435 -3.093771 -0.658265 0
M  V30 41 H 2.651497 -4.272626 0.563774 0
M  V30 42 H 0.364701 -4.968389 -0.055877 0
M  V30 43 H -0.222650 -3.329071 0.187751 0
M  V30 END ATOM
M  V30 BEGIN BOND
M  V30 1 1 1 2
M  V30 2 1 2 3
M  V30 3 1 3 4
M  V30 4 1 4 5
M  V30 5 1 5 6
M  V30 6 2 6 7
M  V30 7 1 7 8
M  V30 8 1 8 9
M  V30 9 2 9 10
M  V30 10 1 10 11
M  V30 11 2 11 12
M  V30 12 1 12 13
M  V30 13 2 13 14
M  V30 14 2 8 15
M  V30 15 1 15 16
M  V30 16 2 16 17
M  V30 17 1 17 18
M  V30 18 2 18 19
M  V30 19 1 19 20
M  V30 20 1 15 21
M  V30 21 1 5 22
M  V30 22 1 22 23
M  V30 23 1 23 2
M  V30 24 1 21 6
M  V30 25 1 14 9
M  V30 26 1 20 16
M  V30 27 1 1 24
M  V30 28 1 1 25
M  V30 29 1 1 26
M  V30 30 1 3 27
M  V30 31 1 3 28
M  V30 32 1 4 29
M  V30 33 1 4 30
M  V30 34 1 5 31
M  V30 35 1 7 32
M  V30 36 1 10 33
M  V30 37 1 11 34
M  V30 38 1 13 35
M  V30 39 1 14 36
M  V30 40 1 18 37
M  V30 41 1 19 38
M  V30 42 1 21 39
M  V30 43 1 22 40
M  V30 44 1 22 41
M  V30 45 1 23 42
M  V30 46 1 23 43
M  V30 END BOND
M  V30 END CTAB
M  END
>  <Dataset>  (416) 
ChEMBL_Kinases

>  <Ligand_Instance>  (416) 
nan

>  <PDB_ID>  (416) 
nan

>  <Standardized_SMILES>  (416) 
CN1CCC(c2cc(-c3ccncc3)c(-c3nccs3)[nH]2)CC1

>  <Name>  (416) 
nan

>  <Pocket>  (416) 
nan

>  <ATP_Site>  (416) 
nan

>  <Peripheral>  (416) 
nan

>  <Num_H_Atoms_ProtBoundConf>  (416) 
nan

>  <Num_Resolved_Atoms>  (416) 
nan

>  <Num_Not_Resolved_Atoms>  (416) 
nan

$$$$
CHEMBL5091780
     RDKit          3D

  0  0  0  0  0  0  0  0  0  0999 V3000
M  V30 BEGIN CTAB
M  V30 COUNTS 64 68 0 0 0
M  V30 BEGIN ATOM
M  V30 1 C 9.381525 1.283763 2.540544 0
M  V30 2 O 8.282687 0.812700 3.289405 0
M  V30 3 C 6.960242 1.060313 2.912930 0
M  V30 4 N 6.673003 1.775149 1.794444 0
M  V30 5 N 5.433983 2.029700 1.406289 0
M  V30 6 C 4.361946 1.587233 2.109775 0
M  V30 7 C 2.964156 1.819327 1.757848 0
M  V30 8 O 2.004288 1.386717 2.446125 0
M  V30 9 N 2.542311 2.546043 0.620187 0
M  V30 10 C 1.099330 2.575186 0.587708 0
M  V30 11 C 0.446062 3.605598 1.218360 0
M  V30 12 C -0.942519 3.600208 1.166565 0
M  V30 13 C -1.626162 2.604853 0.511546 0
M  V30 14 C -3.105551 2.571089 0.435546 0
M  V30 15 C -0.968424 1.575559 -0.118134 0
M  V30 16 C -1.547657 0.453946 -0.846010 0
M  V30 17 C -0.976790 0.143331 -2.084336 0
M  V30 18 C -1.385840 -0.873722 -2.904177 0
M  V30 19 C -2.441214 -1.654627 -2.481164 0
M  V30 20 C -3.014165 -1.358988 -1.260496 0
M  V30 21 C -2.599253 -0.344907 -0.452979 0
M  V30 22 O -4.089889 -2.052872 -0.688658 0
M  V30 23 C -4.483320 -3.418843 -0.891386 0
M  V30 24 C -5.584346 -3.693877 0.099165 0
M  V30 25 C -5.714624 -5.126315 0.499803 0
M  V30 26 O -4.469497 -5.664966 0.807970 0
M  V30 27 C -3.745531 -5.738446 -0.378927 0
M  V30 28 C -3.318306 -4.357685 -0.790578 0
M  V30 29 C -5.057073 -3.607256 -2.299943 0
M  V30 30 C -3.991981 -3.466392 -3.326962 0
M  V30 31 O -4.205378 -4.194112 -4.342529 0
M  V30 32 N -2.800455 -2.693217 -3.401163 0
M  V30 33 C 0.408911 1.577585 -0.068911 0
M  V30 34 C 4.609335 0.855972 3.254396 0
M  V30 35 C 5.892629 0.577256 3.680031 0
M  V30 36 C 6.181497 -0.214847 4.918744 0
M  V30 37 F 6.909527 -1.349648 4.565508 0
M  V30 38 F 6.846909 0.573488 5.804868 0
M  V30 39 F 4.949779 -0.664332 5.382655 0
M  V30 40 H 10.252525 0.609188 2.668081 0
M  V30 41 H 9.720833 2.287655 2.887413 0
M  V30 42 H 9.111429 1.395946 1.468662 0
M  V30 43 H 3.280882 2.953681 -0.026890 0
M  V30 44 H 0.945088 4.408230 1.744712 0
M  V30 45 H -1.552731 4.367054 1.631623 0
M  V30 46 H -3.579869 2.070140 1.315982 0
M  V30 47 H -3.488217 3.615797 0.376684 0
M  V30 48 H -3.449974 2.045068 -0.466749 0
M  V30 49 H -0.131975 0.730274 -2.475726 0
M  V30 50 H -0.929080 -1.086700 -3.845805 0
M  V30 51 H -3.034792 -0.111352 0.489826 0
M  V30 52 H -5.323875 -3.127551 1.036237 0
M  V30 53 H -6.531282 -3.307303 -0.319224 0
M  V30 54 H -6.338881 -5.136967 1.437621 0
M  V30 55 H -6.223565 -5.772787 -0.216214 0
M  V30 56 H -2.884401 -6.408607 -0.312104 0
M  V30 57 H -4.431684 -6.111862 -1.158592 0
M  V30 58 H -2.543039 -3.924662 -0.127532 0
M  V30 59 H -2.843945 -4.452471 -1.790640 0
M  V30 60 H -5.919702 -2.942249 -2.482967 0
M  V30 61 H -5.446607 -4.646012 -2.322551 0
M  V30 62 H -2.112876 -2.862366 -4.163994 0
M  V30 63 H 1.022126 0.802168 -0.539314 0
M  V30 64 H 3.763929 0.480340 3.851116 0
M  V30 END ATOM
M  V30 BEGIN BOND
M  V30 1 1 1 2
M  V30 2 1 2 3
M  V30 3 2 3 4
M  V30 4 1 4 5
M  V30 5 2 5 6
M  V30 6 1 6 7
M  V30 7 2 7 8
M  V30 8 1 7 9
M  V30 9 1 9 10
M  V30 10 2 10 11
M  V30 11 1 11 12
M  V30 12 2 12 13
M  V30 13 1 13 14
M  V30 14 1 13 15
M  V30 15 1 15 16
M  V30 16 2 16 17
M  V30 17 1 17 18
M  V30 18 2 18 19
M  V30 19 1 19 20
M  V30 20 2 20 21
M  V30 21 1 20 22
M  V30 22 1 22 23
M  V30 23 1 23 24
M  V30 24 1 24 25
M  V30 25 1 25 26
M  V30 26 1 26 27
M  V30 27 1 27 28
M  V30 28 1 23 29
M  V30 29 1 29 30
M  V30 30 2 30 31
M  V30 31 1 30 32
M  V30 32 2 15 33
M  V30 33 1 6 34
M  V30 34 2 34 35
M  V30 35 1 35 36
M  V30 36 1 36 37
M  V30 37 1 36 38
M  V30 38 1 36 39
M  V30 39 1 35 3
M  V30 40 1 33 10
M  V30 41 1 21 16
M  V30 42 1 28 23
M  V30 43 1 32 19
M  V30 44 1 1 40
M  V30 45 1 1 41
M  V30 46 1 1 42
M  V30 47 1 9 43
M  V30 48 1 11 44
M  V30 49 1 12 45
M  V30 50 1 14 46
M  V30 51 1 14 47
M  V30 52 1 14 48
M  V30 53 1 17 49
M  V30 54 1 18 50
M  V30 55 1 21 51
M  V30 56 1 24 52
M  V30 57 1 24 53
M  V30 58 1 25 54
M  V30 59 1 25 55
M  V30 60 1 27 56
M  V30 61 1 27 57
M  V30 62 1 28 58
M  V30 63 1 28 59
M  V30 64 1 29 60
M  V30 65 1 29 61
M  V30 66 1 32 62
M  V30 67 1 33 63
M  V30 68 1 34 64
M  V30 END BOND
M  V30 END CTAB
M  END
>  <Dataset>  (417) 
ChEMBL_Kinases

>  <Ligand_Instance>  (417) 
nan

>  <PDB_ID>  (417) 
nan

>  <Standardized_SMILES>  (417) 
COc1nnc(C(=O)Nc2ccc(C)c(-c3ccc4c(c3)OC3(CCOCC3)CC(=O)N4)c2)cc1C(F)(F)F

>  <Name>  (417) 
nan

>  <Pocket>  (417) 
nan

>  <ATP_Site>  (417) 
nan

>  <Peripheral>  (417) 
nan

>  <Num_H_Atoms_ProtBoundConf>  (417) 
nan

>  <Num_Resolved_Atoms>  (417) 
nan

>  <Num_Not_Resolved_Atoms>  (417) 
nan

$$$$
CHEMBL5091582
     RDKit          3D

  0  0  0  0  0  0  0  0  0  0999 V3000
M  V30 BEGIN CTAB
M  V30 COUNTS 43 45 0 0 0
M  V30 BEGIN ATOM
M  V30 1 C 2.980661 -3.279380 -0.675392 0
M  V30 2 C 3.105861 -1.838617 -1.004319 0
M  V30 3 N 4.093254 -1.418462 -1.798030 0
M  V30 4 N 4.003235 -0.094153 -1.961853 0
M  V30 5 C 4.997517 0.568384 -2.799547 0
M  V30 6 C 6.124866 0.954273 -1.838271 0
M  V30 7 F 7.151120 1.595719 -2.519046 0
M  V30 8 F 6.584951 -0.182849 -1.232109 0
M  V30 9 F 5.603720 1.795135 -0.856003 0
M  V30 10 C 2.947224 0.313512 -1.262189 0
M  V30 11 C 2.346398 -0.755376 -0.638371 0
M  V30 12 N 1.216925 -0.822533 0.206978 0
M  V30 13 C 0.383290 0.298814 0.572470 0
M  V30 14 N 0.583540 1.526399 0.080617 0
M  V30 15 C -0.227314 2.557903 0.446295 0
M  V30 16 C -1.269424 2.372051 1.326454 0
M  V30 17 C -1.468562 1.104235 1.829574 0
M  V30 18 N -2.415382 0.501341 2.739928 0
M  V30 19 C -3.461744 -0.092444 1.934371 0
M  V30 20 C -4.375149 -0.846293 2.898875 0
M  V30 21 C -3.572971 -1.900500 3.618775 0
M  V30 22 C -2.905882 -1.692435 4.815997 0
M  V30 23 N -2.285605 -2.832092 5.187845 0
M  V30 24 C -2.582234 -3.711477 4.217280 0
M  V30 25 N -3.360072 -3.194239 3.242714 0
M  V30 26 N -0.640055 0.086341 1.445865 0
M  V30 27 H 2.483810 -3.796603 -1.534659 0
M  V30 28 H 3.983275 -3.741608 -0.586754 0
M  V30 29 H 2.448586 -3.487857 0.250757 0
M  V30 30 H 5.364527 -0.084069 -3.604086 0
M  V30 31 H 4.544819 1.502059 -3.204555 0
M  V30 32 H 2.643332 1.335144 -1.220288 0
M  V30 33 H 0.944244 -1.754743 0.608602 0
M  V30 34 H -0.145358 3.577006 0.105172 0
M  V30 35 H -2.009773 3.022536 1.738254 0
M  V30 36 H -2.002244 0.710771 3.669418 0
M  V30 37 H -3.047378 -0.781547 1.168026 0
M  V30 38 H -4.047094 0.708345 1.461623 0
M  V30 39 H -5.235022 -1.283497 2.380304 0
M  V30 40 H -4.727740 -0.122075 3.638560 0
M  V30 41 H -2.843243 -0.798408 5.409779 0
M  V30 42 H -2.210782 -4.744930 4.238737 0
M  V30 43 H -3.727161 -3.653160 2.390991 0
M  V30 END ATOM
M  V30 BEGIN BOND
M  V30 1 1 1 2
M  V30 2 2 2 3
M  V30 3 1 3 4
M  V30 4 1 4 5
M  V30 5 1 5 6
M  V30 6 1 6 7
M  V30 7 1 6 8
M  V30 8 1 6 9
M  V30 9 1 4 10
M  V30 10 2 10 11
M  V30 11 1 11 12
M  V30 12 1 12 13
M  V30 13 2 13 14
M  V30 14 1 14 15
M  V30 15 2 15 16
M  V30 16 1 16 17
M  V30 17 1 17 18
M  V30 18 1 18 19
M  V30 19 1 19 20
M  V30 20 1 20 21
M  V30 21 2 21 22
M  V30 22 1 22 23
M  V30 23 2 23 24
M  V30 24 1 24 25
M  V30 25 2 17 26
M  V30 26 1 11 2
M  V30 27 1 26 13
M  V30 28 1 25 21
M  V30 29 1 1 27
M  V30 30 1 1 28
M  V30 31 1 1 29
M  V30 32 1 5 30
M  V30 33 1 5 31
M  V30 34 1 10 32
M  V30 35 1 12 33
M  V30 36 1 15 34
M  V30 37 1 16 35
M  V30 38 1 18 36
M  V30 39 1 19 37
M  V30 40 1 19 38
M  V30 41 1 20 39
M  V30 42 1 20 40
M  V30 43 1 22 41
M  V30 44 1 24 42
M  V30 45 1 25 43
M  V30 END BOND
M  V30 END CTAB
M  END
>  <Dataset>  (418) 
ChEMBL_Kinases

>  <Ligand_Instance>  (418) 
nan

>  <PDB_ID>  (418) 
nan

>  <Standardized_SMILES>  (418) 
Cc1nn(CC(F)(F)F)cc1Nc1nccc(NCCc2cnc[nH]2)n1

>  <Name>  (418) 
nan

>  <Pocket>  (418) 
nan

>  <ATP_Site>  (418) 
nan

>  <Peripheral>  (418) 
nan

>  <Num_H_Atoms_ProtBoundConf>  (418) 
nan

>  <Num_Resolved_Atoms>  (418) 
nan

>  <Num_Not_Resolved_Atoms>  (418) 
nan

$$$$
CHEMBL3702329
     RDKit          3D

  0  0  0  0  0  0  0  0  0  0999 V3000
M  V30 BEGIN CTAB
M  V30 COUNTS 60 63 0 0 0
M  V30 BEGIN ATOM
M  V30 1 C 0.091337 -1.846007 0.613595 0
M  V30 2 C 0.018120 -1.131823 1.908755 0
M  V30 3 C 0.985019 -0.244814 2.057699 0
M  V30 4 C 2.182269 0.356550 1.465126 0
M  V30 5 O 2.822778 1.248438 2.089780 0
M  V30 6 N 2.839022 0.128345 0.228568 0
M  V30 7 C 4.011159 0.794208 -0.201530 0
M  V30 8 C 4.050332 1.389247 -1.549241 0
M  V30 9 C 4.655011 0.364727 -2.489865 0
M  V30 10 N 4.009927 -0.889114 -2.154849 0
M  V30 11 C 4.032338 -1.839287 -3.215351 0
M  V30 12 C 4.605325 -1.445120 -0.972549 0
M  V30 13 C 5.112162 -0.283408 -0.146341 0
M  V30 14 S 0.712203 0.503764 3.674973 0
M  V30 15 C -0.774597 -0.497884 4.055651 0
M  V30 16 N -1.613488 -0.579787 5.110626 0
M  V30 17 C -2.634322 -1.448274 5.112488 0
M  V30 18 N -2.767921 -2.211594 4.026837 0
M  V30 19 C -1.940872 -2.130269 2.983464 0
M  V30 20 N -2.376668 -3.102870 2.009287 0
M  V30 21 C -3.647309 -2.651124 1.479318 0
M  V30 22 C -4.652057 -3.602689 1.729893 0
M  V30 23 C -5.988959 -3.441996 1.371141 0
M  V30 24 C -6.354797 -2.293615 0.736823 0
M  V30 25 F -7.601178 -1.964816 0.319169 0
M  V30 26 C -5.357103 -1.380912 0.503084 0
M  V30 27 C -4.022214 -1.461323 0.821930 0
M  V30 28 O -2.966037 -0.617037 0.634076 0
M  V30 29 C -3.057675 0.653303 0.049089 0
M  V30 30 C -2.327553 1.703309 0.818176 0
M  V30 31 C -2.548760 0.674317 -1.384219 0
M  V30 32 F -3.269329 -0.188849 -2.190238 0
M  V30 33 C -0.881654 -1.263884 2.927136 0
M  V30 34 H 1.083982 -2.383586 0.503097 0
M  V30 35 H 0.068610 -1.133494 -0.262747 0
M  V30 36 H -0.647907 -2.647331 0.478657 0
M  V30 37 H 2.369241 -0.605462 -0.372305 0
M  V30 38 H 4.267389 1.598519 0.545718 0
M  V30 39 H 3.050938 1.621932 -1.984503 0
M  V30 40 H 4.711313 2.289293 -1.550101 0
M  V30 41 H 5.759133 0.329280 -2.460991 0
M  V30 42 H 4.350589 0.634773 -3.514206 0
M  V30 43 H 2.977015 -1.881761 -3.616766 0
M  V30 44 H 4.260213 -2.867743 -2.873831 0
M  V30 45 H 4.661880 -1.519448 -4.077128 0
M  V30 46 H 3.834703 -2.013239 -0.420075 0
M  V30 47 H 5.480228 -2.098037 -1.184382 0
M  V30 48 H 6.080590 0.070926 -0.475191 0
M  V30 49 H 5.139861 -0.678216 0.911910 0
M  V30 50 H -3.207479 -1.392019 6.022915 0
M  V30 51 H -2.089485 -4.032343 1.565368 0
M  V30 52 H -4.474604 -4.568908 2.234440 0
M  V30 53 H -6.749607 -4.165787 1.564962 0
M  V30 54 H -5.589226 -0.447694 -0.000550 0
M  V30 55 H -4.133429 0.945022 -0.028840 0
M  V30 56 H -2.107584 2.604475 0.171805 0
M  V30 57 H -1.333190 1.335943 1.198482 0
M  V30 58 H -2.889088 2.111591 1.681247 0
M  V30 59 H -1.459901 0.555962 -1.460732 0
M  V30 60 H -2.802018 1.692677 -1.753887 0
M  V30 END ATOM
M  V30 BEGIN BOND
M  V30 1 1 1 2
M  V30 2 2 2 3
M  V30 3 1 3 4
M  V30 4 2 4 5
M  V30 5 1 4 6
M  V30 6 1 6 7
M  V30 7 1 7 8
M  V30 8 1 8 9
M  V30 9 1 9 10
M  V30 10 1 10 11
M  V30 11 1 10 12
M  V30 12 1 12 13
M  V30 13 1 3 14
M  V30 14 1 14 15
M  V30 15 2 15 16
M  V30 16 1 16 17
M  V30 17 2 17 18
M  V30 18 1 18 19
M  V30 19 1 19 20
M  V30 20 1 20 21
M  V30 21 2 21 22
M  V30 22 1 22 23
M  V30 23 2 23 24
M  V30 24 1 24 25
M  V30 25 1 24 26
M  V30 26 2 26 27
M  V30 27 1 27 28
M  V30 28 1 28 29
M  V30 29 1 29 30
M  V30 30 1 29 31
M  V30 31 1 31 32
M  V30 32 2 19 33
M  V30 33 1 33 2
M  V30 34 1 13 7
M  V30 35 1 33 15
M  V30 36 1 27 21
M  V30 37 1 1 34
M  V30 38 1 1 35
M  V30 39 1 1 36
M  V30 40 1 6 37
M  V30 41 1 7 38
M  V30 42 1 8 39
M  V30 43 1 8 40
M  V30 44 1 9 41
M  V30 45 1 9 42
M  V30 46 1 11 43
M  V30 47 1 11 44
M  V30 48 1 11 45
M  V30 49 1 12 46
M  V30 50 1 12 47
M  V30 51 1 13 48
M  V30 52 1 13 49
M  V30 53 1 17 50
M  V30 54 1 20 51
M  V30 55 1 22 52
M  V30 56 1 23 53
M  V30 57 1 26 54
M  V30 58 1 29 55
M  V30 59 1 30 56
M  V30 60 1 30 57
M  V30 61 1 30 58
M  V30 62 1 31 59
M  V30 63 1 31 60
M  V30 END BOND
M  V30 END CTAB
M  END
>  <Dataset>  (419) 
ChEMBL_Kinases

>  <Ligand_Instance>  (419) 
nan

>  <PDB_ID>  (419) 
nan

>  <Standardized_SMILES>  (419) 
Cc1c(C(=O)NC2CCN(C)CC2)sc2ncnc(Nc3ccc(F)cc3OC(C)CF)c12

>  <Name>  (419) 
nan

>  <Pocket>  (419) 
nan

>  <ATP_Site>  (419) 
nan

>  <Peripheral>  (419) 
nan

>  <Num_H_Atoms_ProtBoundConf>  (419) 
nan

>  <Num_Resolved_Atoms>  (419) 
nan

>  <Num_Not_Resolved_Atoms>  (419) 
nan

$$$$
CHEMBL3702330
     RDKit          3D

  0  0  0  0  0  0  0  0  0  0999 V3000
M  V30 BEGIN CTAB
M  V30 COUNTS 54 57 0 0 0
M  V30 BEGIN ATOM
M  V30 1 C 0.348822 0.434297 2.087608 0
M  V30 2 C 1.081920 0.649654 0.826975 0
M  V30 3 C 2.393529 0.167377 0.831563 0
M  V30 4 C 3.355965 -0.492747 1.655684 0
M  V30 5 O 4.502924 -0.722279 1.132460 0
M  V30 6 N 3.329293 -0.973508 2.984815 0
M  V30 7 C 4.461301 -1.623302 3.601522 0
M  V30 8 C 5.698153 -0.788599 3.691799 0
M  V30 9 O 6.727421 -1.528353 4.309437 0
M  V30 10 S 3.026329 0.539077 -0.774676 0
M  V30 11 C 1.455660 1.361306 -1.427697 0
M  V30 12 N 1.183964 1.930002 -2.643389 0
M  V30 13 C -0.037236 2.443238 -2.781286 0
M  V30 14 N -0.838269 2.344528 -1.736930 0
M  V30 15 C -0.572396 1.795068 -0.567195 0
M  V30 16 N -1.692924 1.902007 0.287570 0
M  V30 17 C -2.846826 1.046790 0.075110 0
M  V30 18 C -3.888414 1.954220 -0.194640 0
M  V30 19 C -5.193804 1.521139 -0.465595 0
M  V30 20 C -5.479359 0.175150 -0.471193 0
M  V30 21 F -6.684144 -0.394449 -0.715400 0
M  V30 22 C -4.426686 -0.650666 -0.202466 0
M  V30 23 C -3.133252 -0.323592 0.070818 0
M  V30 24 O -1.992175 -0.964709 0.357030 0
M  V30 25 C -1.626557 -2.277381 0.484606 0
M  V30 26 C -1.649036 -3.199183 -0.688607 0
M  V30 27 C -1.231759 -4.654990 -0.328636 0
M  V30 28 C 0.139045 -4.627932 0.211378 0
M  V30 29 N 1.201690 -4.621416 0.644519 0
M  V30 30 C -2.489104 -3.018176 -1.920166 0
M  V30 31 C -0.988233 -2.722982 -1.956740 0
M  V30 32 C 0.635504 1.237429 -0.299690 0
M  V30 33 H -0.654546 0.840096 2.136900 0
M  V30 34 H 0.923438 0.979047 2.893205 0
M  V30 35 H 0.366131 -0.664819 2.348474 0
M  V30 36 H 2.416448 -0.809295 3.469934 0
M  V30 37 H 4.160725 -1.893557 4.645264 0
M  V30 38 H 4.727589 -2.550777 3.024114 0
M  V30 39 H 5.504084 0.084716 4.355506 0
M  V30 40 H 6.129555 -0.476640 2.724758 0
M  V30 41 H 6.812672 -1.302682 5.279739 0
M  V30 42 H -0.202987 2.875052 -3.741012 0
M  V30 43 H -1.716392 2.607997 1.085438 0
M  V30 44 H -3.889074 3.050540 -0.239489 0
M  V30 45 H -6.049120 2.167262 -0.683115 0
M  V30 46 H -4.545239 -1.730410 -0.180042 0
M  V30 47 H -2.211253 -2.804990 1.314472 0
M  V30 48 H -0.573802 -2.311436 0.943424 0
M  V30 49 H -1.207366 -5.238711 -1.259767 0
M  V30 50 H -1.958540 -5.071709 0.365942 0
M  V30 51 H -3.143522 -2.162200 -2.065613 0
M  V30 52 H -2.732941 -3.964648 -2.508638 0
M  V30 53 H -0.723073 -1.660863 -2.081209 0
M  V30 54 H -0.313175 -3.402444 -2.498179 0
M  V30 END ATOM
M  V30 BEGIN BOND
M  V30 1 1 1 2
M  V30 2 2 2 3
M  V30 3 1 3 4
M  V30 4 2 4 5
M  V30 5 1 4 6
M  V30 6 1 6 7
M  V30 7 1 7 8
M  V30 8 1 8 9
M  V30 9 1 3 10
M  V30 10 1 10 11
M  V30 11 2 11 12
M  V30 12 1 12 13
M  V30 13 2 13 14
M  V30 14 1 14 15
M  V30 15 1 15 16
M  V30 16 1 16 17
M  V30 17 2 17 18
M  V30 18 1 18 19
M  V30 19 2 19 20
M  V30 20 1 20 21
M  V30 21 1 20 22
M  V30 22 2 22 23
M  V30 23 1 23 24
M  V30 24 1 24 25
M  V30 25 1 25 26
M  V30 26 1 26 27
M  V30 27 1 27 28
M  V30 28 3 28 29
M  V30 29 1 26 30
M  V30 30 1 30 31
M  V30 31 2 15 32
M  V30 32 1 32 2
M  V30 33 1 32 11
M  V30 34 1 23 17
M  V30 35 1 31 26
M  V30 36 1 1 33
M  V30 37 1 1 34
M  V30 38 1 1 35
M  V30 39 1 6 36
M  V30 40 1 7 37
M  V30 41 1 7 38
M  V30 42 1 8 39
M  V30 43 1 8 40
M  V30 44 1 9 41
M  V30 45 1 13 42
M  V30 46 1 16 43
M  V30 47 1 18 44
M  V30 48 1 19 45
M  V30 49 1 22 46
M  V30 50 1 25 47
M  V30 51 1 25 48
M  V30 52 1 27 49
M  V30 53 1 27 50
M  V30 54 1 30 51
M  V30 55 1 30 52
M  V30 56 1 31 53
M  V30 57 1 31 54
M  V30 END BOND
M  V30 END CTAB
M  END
>  <Dataset>  (420) 
ChEMBL_Kinases

>  <Ligand_Instance>  (420) 
nan

>  <PDB_ID>  (420) 
nan

>  <Standardized_SMILES>  (420) 
Cc1c(C(=O)NCCO)sc2ncnc(Nc3ccc(F)cc3OCC3(CC#N)CC3)c12

>  <Name>  (420) 
nan

>  <Pocket>  (420) 
nan

>  <ATP_Site>  (420) 
nan

>  <Peripheral>  (420) 
nan

>  <Num_H_Atoms_ProtBoundConf>  (420) 
nan

>  <Num_Resolved_Atoms>  (420) 
nan

>  <Num_Not_Resolved_Atoms>  (420) 
nan

$$$$
CHEMBL3751921
     RDKit          3D

  0  0  0  0  0  0  0  0  0  0999 V3000
M  V30 BEGIN CTAB
M  V30 COUNTS 54 57 0 0 0
M  V30 BEGIN ATOM
M  V30 1 C 1.492826 0.079111 5.092414 0
M  V30 2 C 2.948835 0.195461 5.502022 0
M  V30 3 O 3.818096 0.211462 4.371491 0
M  V30 4 C 3.795976 -0.879520 3.541031 0
M  V30 5 O 2.923262 -1.618998 4.106538 0
M  V30 6 N 4.515988 -1.164671 2.369097 0
M  V30 7 C 5.532684 -0.409478 1.626192 0
M  V30 8 C 5.028497 -0.295955 0.206614 0
M  V30 9 N 3.660240 -0.714774 0.073221 0
M  V30 10 C 2.643998 0.202592 -0.291747 0
M  V30 11 S 3.003674 1.833102 -0.586181 0
M  V30 12 N 1.264665 2.370980 -0.986553 0
M  V30 13 C 0.640278 1.160585 -0.826318 0
M  V30 14 C -0.722058 1.070138 -1.028963 0
M  V30 15 C -1.405396 -0.119873 -0.882596 0
M  V30 16 C -2.842887 -0.295632 -1.078579 0
M  V30 17 C -3.744503 0.711270 -0.802382 0
M  V30 18 C -5.106267 0.605211 -0.967068 0
M  V30 19 C -5.546128 -0.627739 -1.448902 0
M  V30 20 O -6.898357 -0.829803 -1.647073 0
M  V30 21 C -7.884286 0.147531 -1.389339 0
M  V30 22 C -4.709622 -1.679873 -1.747295 0
M  V30 23 O -5.214380 -2.876008 -2.222050 0
M  V30 24 C -4.319195 -3.933590 -2.517026 0
M  V30 25 C -3.353634 -1.486718 -1.552033 0
M  V30 26 C -0.705600 -1.259329 -0.521605 0
M  V30 27 N 0.617688 -1.123650 -0.335153 0
M  V30 28 C 1.308023 0.015029 -0.469210 0
M  V30 29 C 3.628902 -2.110557 0.370364 0
M  V30 30 C 4.247868 -2.427095 1.727398 0
M  V30 31 H 1.070435 -0.917548 5.347718 0
M  V30 32 H 1.431430 0.179868 3.989877 0
M  V30 33 H 0.882330 0.908313 5.512320 0
M  V30 34 H 3.241422 -0.677255 6.138177 0
M  V30 35 H 3.105544 1.138690 6.064364 0
M  V30 36 H 5.641185 0.558275 2.136418 0
M  V30 37 H 6.500157 -0.961200 1.687830 0
M  V30 38 H 5.702427 -0.842711 -0.509554 0
M  V30 39 H 5.116796 0.769215 -0.088398 0
M  V30 40 H -1.398691 1.863778 -1.311470 0
M  V30 41 H -3.338787 1.655383 -0.426725 0
M  V30 42 H -5.798296 1.408577 -0.744274 0
M  V30 43 H -7.928493 0.479896 -0.342388 0
M  V30 44 H -7.736058 0.982489 -2.114663 0
M  V30 45 H -8.878456 -0.337035 -1.592922 0
M  V30 46 H -4.883003 -4.893956 -2.643883 0
M  V30 47 H -3.616828 -4.077795 -1.684710 0
M  V30 48 H -3.786927 -3.711061 -3.482737 0
M  V30 49 H -2.651951 -2.272959 -1.768020 0
M  V30 50 H -1.122438 -2.256145 -0.373682 0
M  V30 51 H 2.618647 -2.552504 0.379796 0
M  V30 52 H 4.237709 -2.670656 -0.396327 0
M  V30 53 H 5.236929 -2.946817 1.619350 0
M  V30 54 H 3.626689 -3.099501 2.326295 0
M  V30 END ATOM
M  V30 BEGIN BOND
M  V30 1 1 1 2
M  V30 2 1 2 3
M  V30 3 1 3 4
M  V30 4 2 4 5
M  V30 5 1 4 6
M  V30 6 1 6 7
M  V30 7 1 7 8
M  V30 8 1 8 9
M  V30 9 1 9 10
M  V30 10 1 10 11
M  V30 11 1 11 12
M  V30 12 2 12 13
M  V30 13 1 13 14
M  V30 14 2 14 15
M  V30 15 1 15 16
M  V30 16 2 16 17
M  V30 17 1 17 18
M  V30 18 2 18 19
M  V30 19 1 19 20
M  V30 20 1 20 21
M  V30 21 1 19 22
M  V30 22 1 22 23
M  V30 23 1 23 24
M  V30 24 2 22 25
M  V30 25 1 15 26
M  V30 26 2 26 27
M  V30 27 1 27 28
M  V30 28 1 9 29
M  V30 29 1 29 30
M  V30 30 1 30 6
M  V30 31 2 28 10
M  V30 32 1 28 13
M  V30 33 1 25 16
M  V30 34 1 1 31
M  V30 35 1 1 32
M  V30 36 1 1 33
M  V30 37 1 2 34
M  V30 38 1 2 35
M  V30 39 1 7 36
M  V30 40 1 7 37
M  V30 41 1 8 38
M  V30 42 1 8 39
M  V30 43 1 14 40
M  V30 44 1 17 41
M  V30 45 1 18 42
M  V30 46 1 21 43
M  V30 47 1 21 44
M  V30 48 1 21 45
M  V30 49 1 24 46
M  V30 50 1 24 47
M  V30 51 1 24 48
M  V30 52 1 25 49
M  V30 53 1 26 50
M  V30 54 1 29 51
M  V30 55 1 29 52
M  V30 56 1 30 53
M  V30 57 1 30 54
M  V30 END BOND
M  V30 END CTAB
M  END
>  <Dataset>  (421) 
ChEMBL_Kinases

>  <Ligand_Instance>  (421) 
nan

>  <PDB_ID>  (421) 
nan

>  <Standardized_SMILES>  (421) 
CCOC(=O)N1CCN(c2snc3cc(-c4ccc(OC)c(OC)c4)cnc23)CC1

>  <Name>  (421) 
nan

>  <Pocket>  (421) 
nan

>  <ATP_Site>  (421) 
nan

>  <Peripheral>  (421) 
nan

>  <Num_H_Atoms_ProtBoundConf>  (421) 
nan

>  <Num_Resolved_Atoms>  (421) 
nan

>  <Num_Not_Resolved_Atoms>  (421) 
nan

$$$$
CHEMBL3702331
     RDKit          3D

  0  0  0  0  0  0  0  0  0  0999 V3000
M  V30 BEGIN CTAB
M  V30 COUNTS 64 67 0 0 0
M  V30 BEGIN ATOM
M  V30 1 C 1.105686 -1.068634 0.499820 0
M  V30 2 C 1.525693 0.007933 1.425969 0
M  V30 3 C 2.760012 0.480252 1.175083 0
M  V30 4 C 3.899297 0.322219 0.301594 0
M  V30 5 O 4.922116 1.077930 0.476761 0
M  V30 6 N 4.197225 -0.523767 -0.785077 0
M  V30 7 C 5.400014 -0.526045 -1.545656 0
M  V30 8 C 5.704199 0.723991 -2.331239 0
M  V30 9 C 4.687222 1.023878 -3.393129 0
M  V30 10 N 3.406747 1.251802 -2.848836 0
M  V30 11 C 3.186275 2.448751 -2.126224 0
M  V30 12 C 2.346594 1.018394 -3.790933 0
M  V30 13 S 2.996586 1.754763 2.400730 0
M  V30 14 C 1.392285 1.580759 3.200744 0
M  V30 15 N 0.772932 2.190182 4.232000 0
M  V30 16 C -0.466345 1.834647 4.606213 0
M  V30 17 N -1.001501 0.863766 3.892429 0
M  V30 18 C -0.432137 0.236077 2.872153 0
M  V30 19 N -1.328850 -0.739924 2.369769 0
M  V30 20 C -1.598080 -2.057965 2.833211 0
M  V30 21 C -0.922948 -2.551264 3.928301 0
M  V30 22 C -1.245924 -3.832917 4.316921 0
M  V30 23 C -2.186705 -4.631727 3.684883 0
M  V30 24 F -2.472051 -5.891432 4.105342 0
M  V30 25 C -2.818457 -4.048499 2.587649 0
M  V30 26 C -2.551483 -2.772874 2.136173 0
M  V30 27 O -3.161979 -2.302575 1.131133 0
M  V30 28 C -3.795095 -1.814917 0.088894 0
M  V30 29 C -5.313747 -1.716579 0.187983 0
M  V30 30 C -6.019897 -3.034729 0.407445 0
M  V30 31 C -7.471730 -2.801567 0.482542 0
M  V30 32 N -8.621876 -2.627895 0.537435 0
M  V30 33 C -6.043066 -0.737090 -0.710055 0
M  V30 34 C -5.915689 -0.472584 0.759382 0
M  V30 35 C 0.834569 0.571766 2.458704 0
M  V30 36 H 1.141555 -0.724345 -0.565519 0
M  V30 37 H 1.798543 -1.939098 0.568715 0
M  V30 38 H 0.108166 -1.480698 0.671972 0
M  V30 39 H 3.400208 -1.194395 -0.992509 0
M  V30 40 H 6.292895 -0.846795 -0.953183 0
M  V30 41 H 5.302434 -1.361590 -2.308737 0
M  V30 42 H 6.741446 0.692350 -2.740442 0
M  V30 43 H 5.667195 1.594973 -1.625997 0
M  V30 44 H 4.711514 0.122905 -4.079586 0
M  V30 45 H 5.080397 1.869857 -4.006490 0
M  V30 46 H 2.440834 2.221110 -1.307195 0
M  V30 47 H 4.054720 2.906337 -1.628401 0
M  V30 48 H 2.683872 3.246332 -2.753837 0
M  V30 49 H 1.892993 1.936425 -4.216503 0
M  V30 50 H 2.761029 0.445173 -4.670172 0
M  V30 51 H 1.566963 0.339145 -3.380490 0
M  V30 52 H -0.853332 2.394848 5.442149 0
M  V30 53 H -1.797683 -0.310330 1.543378 0
M  V30 54 H -0.166602 -1.981962 4.479004 0
M  V30 55 H -0.739031 -4.233669 5.159308 0
M  V30 56 H -3.553578 -4.659136 2.087145 0
M  V30 57 H -3.624548 -2.479170 -0.822735 0
M  V30 58 H -3.411801 -0.820339 -0.286530 0
M  V30 59 H -5.631352 -3.465600 1.351370 0
M  V30 60 H -5.829240 -3.780303 -0.392239 0
M  V30 61 H -5.463563 -0.122489 -1.416005 0
M  V30 62 H -7.069073 -0.988596 -1.039713 0
M  V30 63 H -5.250551 0.363766 1.030316 0
M  V30 64 H -6.813834 -0.564215 1.418528 0
M  V30 END ATOM
M  V30 BEGIN BOND
M  V30 1 1 1 2
M  V30 2 2 2 3
M  V30 3 1 3 4
M  V30 4 2 4 5
M  V30 5 1 4 6
M  V30 6 1 6 7
M  V30 7 1 7 8
M  V30 8 1 8 9
M  V30 9 1 9 10
M  V30 10 1 10 11
M  V30 11 1 10 12
M  V30 12 1 3 13
M  V30 13 1 13 14
M  V30 14 2 14 15
M  V30 15 1 15 16
M  V30 16 2 16 17
M  V30 17 1 17 18
M  V30 18 1 18 19
M  V30 19 1 19 20
M  V30 20 2 20 21
M  V30 21 1 21 22
M  V30 22 2 22 23
M  V30 23 1 23 24
M  V30 24 1 23 25
M  V30 25 2 25 26
M  V30 26 1 26 27
M  V30 27 1 27 28
M  V30 28 1 28 29
M  V30 29 1 29 30
M  V30 30 1 30 31
M  V30 31 3 31 32
M  V30 32 1 29 33
M  V30 33 1 33 34
M  V30 34 2 18 35
M  V30 35 1 35 2
M  V30 36 1 35 14
M  V30 37 1 26 20
M  V30 38 1 34 29
M  V30 39 1 1 36
M  V30 40 1 1 37
M  V30 41 1 1 38
M  V30 42 1 6 39
M  V30 43 1 7 40
M  V30 44 1 7 41
M  V30 45 1 8 42
M  V30 46 1 8 43
M  V30 47 1 9 44
M  V30 48 1 9 45
M  V30 49 1 11 46
M  V30 50 1 11 47
M  V30 51 1 11 48
M  V30 52 1 12 49
M  V30 53 1 12 50
M  V30 54 1 12 51
M  V30 55 1 16 52
M  V30 56 1 19 53
M  V30 57 1 21 54
M  V30 58 1 22 55
M  V30 59 1 25 56
M  V30 60 1 28 57
M  V30 61 1 28 58
M  V30 62 1 30 59
M  V30 63 1 30 60
M  V30 64 1 33 61
M  V30 65 1 33 62
M  V30 66 1 34 63
M  V30 67 1 34 64
M  V30 END BOND
M  V30 END CTAB
M  END
>  <Dataset>  (422) 
ChEMBL_Kinases

>  <Ligand_Instance>  (422) 
nan

>  <PDB_ID>  (422) 
nan

>  <Standardized_SMILES>  (422) 
Cc1c(C(=O)NCCCN(C)C)sc2ncnc(Nc3ccc(F)cc3OCC3(CC#N)CC3)c12

>  <Name>  (422) 
nan

>  <Pocket>  (422) 
nan

>  <ATP_Site>  (422) 
nan

>  <Peripheral>  (422) 
nan

>  <Num_H_Atoms_ProtBoundConf>  (422) 
nan

>  <Num_Resolved_Atoms>  (422) 
nan

>  <Num_Not_Resolved_Atoms>  (422) 
nan

$$$$
CHEMBL5091604
     RDKit          3D

  0  0  0  0  0  0  0  0  0  0999 V3000
M  V30 BEGIN CTAB
M  V30 COUNTS 62 66 0 0 0
M  V30 BEGIN ATOM
M  V30 1 C -1.114097 -3.763906 4.465477 0
M  V30 2 C 0.050512 -2.980274 4.000308 0
M  V30 3 C 1.005937 -2.560063 4.903705 0
M  V30 4 C 2.118806 -1.825807 4.543550 0
M  V30 5 C 2.280915 -1.496355 3.207317 0
M  V30 6 N 3.367625 -0.742656 2.643718 0
M  V30 7 C 3.060610 0.663175 2.643740 0
M  V30 8 O 1.927869 0.909986 3.129719 0
M  V30 9 C 3.999152 1.648753 2.124065 0
M  V30 10 C 5.245244 1.434366 1.583421 0
M  V30 11 C 5.978343 2.522685 1.146273 0
M  V30 12 N 5.525753 3.790793 1.225910 0
M  V30 13 C 4.324976 4.024723 1.744182 0
M  V30 14 C 3.866609 5.441782 1.811946 0
M  V30 15 F 2.682220 5.575613 2.519034 0
M  V30 16 F 4.803692 6.196097 2.499092 0
M  V30 17 F 3.741258 5.939422 0.542677 0
M  V30 18 C 3.548204 2.969100 2.197820 0
M  V30 19 C 1.319601 -1.916021 2.280167 0
M  V30 20 C 0.197881 -2.659106 2.660369 0
M  V30 21 C -0.771847 -3.070852 1.657899 0
M  V30 22 C -1.368110 -4.281664 1.485065 0
M  V30 23 C -2.277880 -4.487567 0.460993 0
M  V30 24 C -2.606540 -3.469178 -0.415147 0
M  V30 25 C -2.005452 -2.236471 -0.246569 0
M  V30 26 C -1.098736 -2.039266 0.777799 0
M  V30 27 O -2.220137 -1.099525 -1.037554 0
M  V30 28 C -2.992161 -0.902725 -2.195543 0
M  V30 29 C -4.262880 -1.694681 -2.227316 0
M  V30 30 C -4.082027 -3.152200 -2.565427 0
M  V30 31 N -3.560359 -3.875046 -1.400434 0
M  V30 32 C -2.109865 -1.159925 -3.387630 0
M  V30 33 C -1.537642 0.175131 -3.867318 0
M  V30 34 O -2.549108 0.866041 -4.502474 0
M  V30 35 C -3.584251 1.083895 -3.629255 0
M  V30 36 C -3.359524 0.566914 -2.235513 0
M  V30 37 H -0.899393 -4.843500 4.584578 0
M  V30 38 H -2.038178 -3.577751 3.845443 0
M  V30 39 H -1.445090 -3.436573 5.494428 0
M  V30 40 H 0.919089 -2.795395 5.959025 0
M  V30 41 H 2.887350 -1.476198 5.204020 0
M  V30 42 H 4.296899 -1.081345 2.258554 0
M  V30 43 H 5.544755 0.410069 1.548749 0
M  V30 44 H 6.952915 2.219010 0.736754 0
M  V30 45 H 2.579729 3.245511 2.607168 0
M  V30 46 H 1.405467 -1.679472 1.214641 0
M  V30 47 H -1.070602 -5.029613 2.197546 0
M  V30 48 H -2.723017 -5.466216 0.366459 0
M  V30 49 H -0.691824 -1.038662 0.814982 0
M  V30 50 H -4.914686 -1.256253 -3.012127 0
M  V30 51 H -4.816040 -1.607949 -1.271190 0
M  V30 52 H -3.424385 -3.287263 -3.424300 0
M  V30 53 H -5.058670 -3.583999 -2.807589 0
M  V30 54 H -3.895669 -4.839535 -1.202061 0
M  V30 55 H -2.666651 -1.584808 -4.251178 0
M  V30 56 H -1.270456 -1.847929 -3.162856 0
M  V30 57 H -1.037470 0.732108 -3.062520 0
M  V30 58 H -0.752300 -0.062615 -4.627291 0
M  V30 59 H -3.712669 2.184629 -3.532234 0
M  V30 60 H -4.552616 0.629715 -3.972701 0
M  V30 61 H -2.633193 1.188103 -1.671962 0
M  V30 62 H -4.329064 0.668502 -1.694693 0
M  V30 END ATOM
M  V30 BEGIN BOND
M  V30 1 1 1 2
M  V30 2 2 2 3
M  V30 3 1 3 4
M  V30 4 2 4 5
M  V30 5 1 5 6
M  V30 6 1 6 7
M  V30 7 2 7 8
M  V30 8 1 7 9
M  V30 9 2 9 10
M  V30 10 1 10 11
M  V30 11 2 11 12
M  V30 12 1 12 13
M  V30 13 1 13 14
M  V30 14 1 14 15
M  V30 15 1 14 16
M  V30 16 1 14 17
M  V30 17 2 13 18
M  V30 18 1 5 19
M  V30 19 2 19 20
M  V30 20 1 20 21
M  V30 21 2 21 22
M  V30 22 1 22 23
M  V30 23 2 23 24
M  V30 24 1 24 25
M  V30 25 2 25 26
M  V30 26 1 25 27
M  V30 27 1 27 28
M  V30 28 1 28 29
M  V30 29 1 29 30
M  V30 30 1 30 31
M  V30 31 1 28 32
M  V30 32 1 32 33
M  V30 33 1 33 34
M  V30 34 1 34 35
M  V30 35 1 35 36
M  V30 36 1 20 2
M  V30 37 1 26 21
M  V30 38 1 36 28
M  V30 39 1 18 9
M  V30 40 1 31 24
M  V30 41 1 1 37
M  V30 42 1 1 38
M  V30 43 1 1 39
M  V30 44 1 3 40
M  V30 45 1 4 41
M  V30 46 1 6 42
M  V30 47 1 10 43
M  V30 48 1 11 44
M  V30 49 1 18 45
M  V30 50 1 19 46
M  V30 51 1 22 47
M  V30 52 1 23 48
M  V30 53 1 26 49
M  V30 54 1 29 50
M  V30 55 1 29 51
M  V30 56 1 30 52
M  V30 57 1 30 53
M  V30 58 1 31 54
M  V30 59 1 32 55
M  V30 60 1 32 56
M  V30 61 1 33 57
M  V30 62 1 33 58
M  V30 63 1 35 59
M  V30 64 1 35 60
M  V30 65 1 36 61
M  V30 66 1 36 62
M  V30 END BOND
M  V30 END CTAB
M  END
>  <Dataset>  (423) 
ChEMBL_Kinases

>  <Ligand_Instance>  (423) 
nan

>  <PDB_ID>  (423) 
nan

>  <Standardized_SMILES>  (423) 
Cc1ccc(NC(=O)c2ccnc(C(F)(F)F)c2)cc1-c1ccc2c(c1)OC1(CCN2)CCOCC1

>  <Name>  (423) 
nan

>  <Pocket>  (423) 
nan

>  <ATP_Site>  (423) 
nan

>  <Peripheral>  (423) 
nan

>  <Num_H_Atoms_ProtBoundConf>  (423) 
nan

>  <Num_Resolved_Atoms>  (423) 
nan

>  <Num_Not_Resolved_Atoms>  (423) 
nan

$$$$
CHEMBL3702332
     RDKit          3D

  0  0  0  0  0  0  0  0  0  0999 V3000
M  V30 BEGIN CTAB
M  V30 COUNTS 56 58 0 0 0
M  V30 BEGIN ATOM
M  V30 1 C 0.172683 -1.346986 1.124549 0
M  V30 2 C -0.305778 0.022343 1.423458 0
M  V30 3 C 0.639383 0.968342 1.471059 0
M  V30 4 C 2.032755 1.281013 1.275067 0
M  V30 5 O 2.438059 2.480701 1.482220 0
M  V30 6 N 3.153680 0.549741 0.879702 0
M  V30 7 C 4.500678 1.016097 0.728898 0
M  V30 8 C 4.674083 2.108485 -0.304054 0
M  V30 9 C 4.234235 1.662907 -1.674350 0
M  V30 10 N 4.381169 2.676686 -2.682950 0
M  V30 11 C 3.936462 2.180129 -3.971622 0
M  V30 12 C 3.640809 3.885852 -2.420854 0
M  V30 13 S -0.215423 2.510161 1.984030 0
M  V30 14 C -1.878369 1.663244 2.084356 0
M  V30 15 N -3.074183 2.191022 2.417662 0
M  V30 16 C -4.157051 1.404251 2.420462 0
M  V30 17 N -3.914194 0.152836 2.080460 0
M  V30 18 C -2.742648 -0.354462 1.755767 0
M  V30 19 N -2.889813 -1.712600 1.423605 0
M  V30 20 C -3.771084 -2.742763 1.739993 0
M  V30 21 C -4.806713 -2.449621 2.615438 0
M  V30 22 C -5.743869 -3.388373 3.000611 0
M  V30 23 C -5.669028 -4.694318 2.502955 0
M  V30 24 F -6.555915 -5.664820 2.840226 0
M  V30 25 C -4.638421 -4.933426 1.649343 0
M  V30 26 C -3.673419 -4.050208 1.225427 0
M  V30 27 O -2.633506 -4.201617 0.393607 0
M  V30 28 C -2.025273 -5.140200 -0.362264 0
M  V30 29 C -1.415095 -6.335145 0.285807 0
M  V30 30 F -0.849489 -7.131466 -0.716662 0
M  V30 31 F -2.308127 -7.086122 0.998486 0
M  V30 32 F -0.387834 -5.967320 1.142831 0
M  V30 33 C -1.583910 0.366796 1.729089 0
M  V30 34 H -0.334291 -2.128572 1.793128 0
M  V30 35 H 1.241039 -1.514174 1.488248 0
M  V30 36 H 0.058426 -1.685382 0.103935 0
M  V30 37 H 2.968205 -0.445967 0.659464 0
M  V30 38 H 4.828560 1.371749 1.733811 0
M  V30 39 H 5.156568 0.141207 0.481327 0
M  V30 40 H 4.074504 2.978014 0.002330 0
M  V30 41 H 5.757444 2.436477 -0.329284 0
M  V30 42 H 4.922478 0.831966 -1.974478 0
M  V30 43 H 3.215507 1.284473 -1.694845 0
M  V30 44 H 4.702859 1.591032 -4.488690 0
M  V30 45 H 3.734622 3.076892 -4.601687 0
M  V30 46 H 2.978616 1.652868 -3.841287 0
M  V30 47 H 4.304238 4.764299 -2.259977 0
M  V30 48 H 2.935510 4.154640 -3.255345 0
M  V30 49 H 2.974896 3.689466 -1.556367 0
M  V30 50 H -5.036454 1.945485 2.703537 0
M  V30 51 H -2.182662 -1.991068 0.722272 0
M  V30 52 H -5.049153 -1.524160 3.117897 0
M  V30 53 H -6.584826 -3.229441 3.683580 0
M  V30 54 H -4.590423 -5.934141 1.252794 0
M  V30 55 H -1.249890 -4.636209 -1.032442 0
M  V30 56 H -2.767122 -5.556481 -1.127425 0
M  V30 END ATOM
M  V30 BEGIN BOND
M  V30 1 1 1 2
M  V30 2 2 2 3
M  V30 3 1 3 4
M  V30 4 2 4 5
M  V30 5 1 4 6
M  V30 6 1 6 7
M  V30 7 1 7 8
M  V30 8 1 8 9
M  V30 9 1 9 10
M  V30 10 1 10 11
M  V30 11 1 10 12
M  V30 12 1 3 13
M  V30 13 1 13 14
M  V30 14 2 14 15
M  V30 15 1 15 16
M  V30 16 2 16 17
M  V30 17 1 17 18
M  V30 18 1 18 19
M  V30 19 1 19 20
M  V30 20 2 20 21
M  V30 21 1 21 22
M  V30 22 2 22 23
M  V30 23 1 23 24
M  V30 24 1 23 25
M  V30 25 2 25 26
M  V30 26 1 26 27
M  V30 27 1 27 28
M  V30 28 1 28 29
M  V30 29 1 29 30
M  V30 30 1 29 31
M  V30 31 1 29 32
M  V30 32 2 18 33
M  V30 33 1 33 2
M  V30 34 1 33 14
M  V30 35 1 26 20
M  V30 36 1 1 34
M  V30 37 1 1 35
M  V30 38 1 1 36
M  V30 39 1 6 37
M  V30 40 1 7 38
M  V30 41 1 7 39
M  V30 42 1 8 40
M  V30 43 1 8 41
M  V30 44 1 9 42
M  V30 45 1 9 43
M  V30 46 1 11 44
M  V30 47 1 11 45
M  V30 48 1 11 46
M  V30 49 1 12 47
M  V30 50 1 12 48
M  V30 51 1 12 49
M  V30 52 1 16 50
M  V30 53 1 19 51
M  V30 54 1 21 52
M  V30 55 1 22 53
M  V30 56 1 25 54
M  V30 57 1 28 55
M  V30 58 1 28 56
M  V30 END BOND
M  V30 END CTAB
M  END
>  <Dataset>  (424) 
ChEMBL_Kinases

>  <Ligand_Instance>  (424) 
nan

>  <PDB_ID>  (424) 
nan

>  <Standardized_SMILES>  (424) 
Cc1c(C(=O)NCCCN(C)C)sc2ncnc(Nc3ccc(F)cc3OCC(F)(F)F)c12

>  <Name>  (424) 
nan

>  <Pocket>  (424) 
nan

>  <ATP_Site>  (424) 
nan

>  <Peripheral>  (424) 
nan

>  <Num_H_Atoms_ProtBoundConf>  (424) 
nan

>  <Num_Resolved_Atoms>  (424) 
nan

>  <Num_Not_Resolved_Atoms>  (424) 
nan

$$$$
CHEMBL3702333
     RDKit          3D

  0  0  0  0  0  0  0  0  0  0999 V3000
M  V30 BEGIN CTAB
M  V30 COUNTS 39 41 0 0 0
M  V30 BEGIN ATOM
M  V30 1 C 1.292347 -2.162417 0.777633 0
M  V30 2 C 1.646485 -1.776068 -0.611081 0
M  V30 3 C 2.792026 -2.383852 -1.109530 0
M  V30 4 C 3.720413 -3.280198 -0.612128 0
M  V30 5 N 4.818185 -3.753294 -1.368388 0
M  V30 6 O 3.759475 -3.802047 0.518269 0
M  V30 7 S 2.922562 -1.704254 -2.812741 0
M  V30 8 C 1.448566 -0.680112 -2.701716 0
M  V30 9 N 0.853844 0.153946 -3.570387 0
M  V30 10 C -0.262810 0.833296 -3.260324 0
M  V30 11 N -0.714114 0.606676 -2.037032 0
M  V30 12 C -0.180910 -0.203418 -1.122704 0
M  V30 13 N -0.903836 -0.212963 0.085887 0
M  V30 14 C -0.495016 0.688433 1.107353 0
M  V30 15 C 0.574896 1.541022 0.940788 0
M  V30 16 C 1.044139 2.443442 1.873366 0
M  V30 17 C 0.360175 2.477572 3.081147 0
M  V30 18 F 0.795013 3.357193 4.029826 0
M  V30 19 C -0.720131 1.642087 3.296981 0
M  V30 20 C -1.155909 0.743874 2.316732 0
M  V30 21 O -2.248002 -0.063416 2.604128 0
M  V30 22 C -2.935518 -0.018747 3.835729 0
M  V30 23 C -4.057988 -1.033165 3.770800 0
M  V30 24 F -4.778892 -1.043005 4.952776 0
M  V30 25 F -4.849491 -0.816861 2.667766 0
M  V30 26 C 0.957534 -0.908260 -1.413412 0
M  V30 27 H 1.559898 -3.234224 0.996955 0
M  V30 28 H 0.196035 -2.100820 0.960584 0
M  V30 29 H 1.837058 -1.553397 1.525824 0
M  V30 30 H 5.853998 -3.765800 -1.185119 0
M  V30 31 H 5.382920 -4.174286 -2.122951 0
M  V30 32 H -0.668236 1.478497 -4.020939 0
M  V30 33 H -1.727211 -0.843595 0.280673 0
M  V30 34 H 1.083108 1.481595 -0.020556 0
M  V30 35 H 1.893462 3.052592 1.614583 0
M  V30 36 H -1.256156 1.660349 4.227714 0
M  V30 37 H -2.249873 -0.225869 4.673200 0
M  V30 38 H -3.370175 0.992801 3.927267 0
M  V30 39 H -3.630907 -2.054109 3.649140 0
M  V30 END ATOM
M  V30 BEGIN BOND
M  V30 1 1 1 2
M  V30 2 2 2 3
M  V30 3 1 3 4
M  V30 4 1 4 5
M  V30 5 2 4 6
M  V30 6 1 3 7
M  V30 7 1 7 8
M  V30 8 2 8 9
M  V30 9 1 9 10
M  V30 10 2 10 11
M  V30 11 1 11 12
M  V30 12 1 12 13
M  V30 13 1 13 14
M  V30 14 2 14 15
M  V30 15 1 15 16
M  V30 16 2 16 17
M  V30 17 1 17 18
M  V30 18 1 17 19
M  V30 19 2 19 20
M  V30 20 1 20 21
M  V30 21 1 21 22
M  V30 22 1 22 23
M  V30 23 1 23 24
M  V30 24 1 23 25
M  V30 25 2 12 26
M  V30 26 1 26 2
M  V30 27 1 26 8
M  V30 28 1 20 14
M  V30 29 1 1 27
M  V30 30 1 1 28
M  V30 31 1 1 29
M  V30 32 1 5 30
M  V30 33 1 5 31
M  V30 34 1 10 32
M  V30 35 1 13 33
M  V30 36 1 15 34
M  V30 37 1 16 35
M  V30 38 1 19 36
M  V30 39 1 22 37
M  V30 40 1 22 38
M  V30 41 1 23 39
M  V30 END BOND
M  V30 END CTAB
M  END
>  <Dataset>  (425) 
ChEMBL_Kinases

>  <Ligand_Instance>  (425) 
nan

>  <PDB_ID>  (425) 
nan

>  <Standardized_SMILES>  (425) 
Cc1c(C(N)=O)sc2ncnc(Nc3ccc(F)cc3OCC(F)F)c12

>  <Name>  (425) 
nan

>  <Pocket>  (425) 
nan

>  <ATP_Site>  (425) 
nan

>  <Peripheral>  (425) 
nan

>  <Num_H_Atoms_ProtBoundConf>  (425) 
nan

>  <Num_Resolved_Atoms>  (425) 
nan

>  <Num_Not_Resolved_Atoms>  (425) 
nan

$$$$
CHEMBL5091627
     RDKit          3D

  0  0  0  0  0  0  0  0  0  0999 V3000
M  V30 BEGIN CTAB
M  V30 COUNTS 35 38 0 0 0
M  V30 BEGIN ATOM
M  V30 1 N 4.598720 -0.590649 2.369670 0
M  V30 2 C 3.467173 -0.462242 2.649755 0
M  V30 3 C 2.078204 -0.309679 3.014701 0
M  V30 4 C 1.726387 -0.350206 4.348079 0
M  V30 5 C 0.421444 -0.211366 4.766036 0
M  V30 6 C -0.554708 -0.025955 3.800864 0
M  V30 7 C -0.231128 0.018641 2.459672 0
M  V30 8 C -1.216223 0.212136 1.387570 0
M  V30 9 C -2.376296 0.978554 1.560208 0
M  V30 10 N -3.237267 1.113667 0.534651 0
M  V30 11 C -3.009667 0.528364 -0.656250 0
M  V30 12 N -3.729321 0.532186 -1.803900 0
M  V30 13 C -3.092132 -0.201868 -2.732247 0
M  V30 14 C -1.907155 -0.723747 -2.214217 0
M  V30 15 C -0.898775 -1.570226 -2.840645 0
M  V30 16 C -0.383700 -2.673137 -2.167580 0
M  V30 17 C 0.582000 -3.508667 -2.730970 0
M  V30 18 C 0.999316 -3.176903 -4.000318 0
M  V30 19 N 0.514623 -2.116098 -4.667629 0
M  V30 20 C -0.423445 -1.303458 -4.122025 0
M  V30 21 C -1.897380 -0.243838 -0.921279 0
M  V30 22 C -1.031643 -0.366251 0.145630 0
M  V30 23 C 1.096968 -0.123310 2.045517 0
M  V30 24 H 2.450332 -0.492429 5.134570 0
M  V30 25 H 0.089496 -0.234996 5.794782 0
M  V30 26 H -1.628858 0.098418 3.989703 0
M  V30 27 H -2.506854 1.425050 2.538004 0
M  V30 28 H -4.641087 1.046467 -1.902938 0
M  V30 29 H -3.427884 -0.382881 -3.754726 0
M  V30 30 H -0.704583 -2.942535 -1.171023 0
M  V30 31 H 0.970470 -4.361679 -2.192394 0
M  V30 32 H 1.757821 -3.825904 -4.454150 0
M  V30 33 H -0.791536 -0.463772 -4.679368 0
M  V30 34 H -0.133050 -0.950658 0.034470 0
M  V30 35 H 1.457350 -0.103897 1.026992 0
M  V30 END ATOM
M  V30 BEGIN BOND
M  V30 1 3 1 2
M  V30 2 1 2 3
M  V30 3 2 3 4
M  V30 4 1 4 5
M  V30 5 2 5 6
M  V30 6 1 6 7
M  V30 7 1 7 8
M  V30 8 2 8 9
M  V30 9 1 9 10
M  V30 10 2 10 11
M  V30 11 1 11 12
M  V30 12 1 12 13
M  V30 13 2 13 14
M  V30 14 1 14 15
M  V30 15 2 15 16
M  V30 16 1 16 17
M  V30 17 2 17 18
M  V30 18 1 18 19
M  V30 19 2 19 20
M  V30 20 1 14 21
M  V30 21 2 21 22
M  V30 22 2 7 23
M  V30 23 1 23 3
M  V30 24 1 22 8
M  V30 25 1 21 11
M  V30 26 1 20 15
M  V30 27 1 4 24
M  V30 28 1 5 25
M  V30 29 1 6 26
M  V30 30 1 9 27
M  V30 31 1 12 28
M  V30 32 1 13 29
M  V30 33 1 16 30
M  V30 34 1 17 31
M  V30 35 1 18 32
M  V30 36 1 20 33
M  V30 37 1 22 34
M  V30 38 1 23 35
M  V30 END BOND
M  V30 END CTAB
M  END
>  <Dataset>  (426) 
ChEMBL_Kinases

>  <Ligand_Instance>  (426) 
nan

>  <PDB_ID>  (426) 
nan

>  <Standardized_SMILES>  (426) 
N#Cc1cccc(-c2cnc3[nH]cc(-c4cccnc4)c3c2)c1

>  <Name>  (426) 
nan

>  <Pocket>  (426) 
nan

>  <ATP_Site>  (426) 
nan

>  <Peripheral>  (426) 
nan

>  <Num_H_Atoms_ProtBoundConf>  (426) 
nan

>  <Num_Resolved_Atoms>  (426) 
nan

>  <Num_Not_Resolved_Atoms>  (426) 
nan

$$$$
CHEMBL5091638
     RDKit          3D

  0  0  0  0  0  0  0  0  0  0999 V3000
M  V30 BEGIN CTAB
M  V30 COUNTS 65 69 0 0 0
M  V30 BEGIN ATOM
M  V30 1 C 0.042368 0.346369 6.120737 0
M  V30 2 C 1.271414 0.051959 5.303022 0
M  V30 3 C 1.497763 -0.012905 3.926174 0
M  V30 4 C 2.830825 -0.329505 3.772858 0
M  V30 5 N 3.355719 -0.458901 2.461024 0
M  V30 6 C 2.594395 -0.159897 1.304537 0
M  V30 7 C 1.791172 0.940823 1.102954 0
M  V30 8 C 1.076088 1.100479 -0.063110 0
M  V30 9 N 0.249079 2.243094 -0.227077 0
M  V30 10 C -0.290276 2.751109 -1.483097 0
M  V30 11 C -1.795677 2.728285 -1.452284 0
M  V30 12 N -2.303478 2.511639 -0.112185 0
M  V30 13 C -3.704174 2.940511 -0.064954 0
M  V30 14 C -1.602079 3.386003 0.838636 0
M  V30 15 C -0.147345 3.028849 0.949849 0
M  V30 16 N 1.206188 0.124153 -0.990976 0
M  V30 17 C 1.972621 -0.955760 -0.834914 0
M  V30 18 N 2.089967 -1.994885 -1.801289 0
M  V30 19 C 1.347113 -1.958101 -3.033040 0 CFG=1
M  V30 20 C 1.653290 -3.219741 -3.854203 0
M  V30 21 C 1.077929 -4.353631 -3.017469 0
M  V30 22 N 0.031981 -3.656453 -2.249149 0
M  V30 23 C -0.600191 -4.497075 -1.259086 0
M  V30 24 O -0.000453 -5.595176 -1.412792 0
M  V30 25 C -1.663728 -4.082835 -0.350999 0
M  V30 26 C -2.986393 -4.205145 -0.744800 0
M  V30 27 C -3.957034 -3.791735 0.157855 0
M  V30 28 C -3.702919 -3.271428 1.409903 0
M  V30 29 C -2.370949 -3.152459 1.796725 0
M  V30 30 Cl -1.998841 -2.498586 3.376206 0
M  V30 31 C -1.372281 -3.557215 0.916746 0
M  V30 32 F -0.059807 -3.432127 1.315357 0
M  V30 33 C -0.120617 -2.254750 -2.682092 0
M  V30 34 N 2.652651 -1.067399 0.321913 0
M  V30 35 N 3.404706 -0.454968 4.979116 0
M  V30 36 N 2.458767 -0.223718 5.908600 0
M  V30 37 H -0.658747 0.969359 5.525468 0
M  V30 38 H -0.421110 -0.591262 6.491681 0
M  V30 39 H 0.319968 0.943925 7.010067 0
M  V30 40 H 0.617957 0.184875 3.348393 0
M  V30 41 H 4.351718 -0.795119 2.398449 0
M  V30 42 H 1.795077 1.642558 1.926419 0
M  V30 43 H 0.039566 2.131056 -2.341268 0
M  V30 44 H 0.098097 3.781562 -1.681051 0
M  V30 45 H -2.164446 3.722127 -1.824942 0
M  V30 46 H -2.189224 1.978384 -2.133687 0
M  V30 47 H -4.120922 2.748458 -1.070954 0
M  V30 48 H -3.730682 4.042808 0.131926 0
M  V30 49 H -4.256932 2.419325 0.727503 0
M  V30 50 H -2.123084 3.206309 1.808326 0
M  V30 51 H -1.768537 4.443855 0.529829 0
M  V30 52 H -0.046111 2.419678 1.874500 0
M  V30 53 H 0.422688 3.950265 1.067427 0
M  V30 54 H 2.724432 -2.800487 -1.613609 0
M  V30 55 H 1.450081 -1.049447 -3.626277 0
M  V30 56 H 1.094556 -3.164805 -4.810110 0
M  V30 57 H 2.719481 -3.350685 -4.036666 0
M  V30 58 H 1.867830 -4.734573 -2.369021 0
M  V30 59 H 0.648197 -5.136600 -3.674671 0
M  V30 60 H -3.222119 -4.612508 -1.726120 0
M  V30 61 H -5.002502 -3.894066 -0.165530 0
M  V30 62 H -4.542183 -2.980660 2.037661 0
M  V30 63 H -0.473744 -1.623360 -1.873090 0
M  V30 64 H -0.722310 -2.159908 -3.595412 0
M  V30 65 H 2.684150 -0.267746 6.940856 0
M  V30 END ATOM
M  V30 BEGIN BOND
M  V30 1 1 1 2
M  V30 2 2 2 3
M  V30 3 1 3 4
M  V30 4 1 4 5
M  V30 5 1 5 6
M  V30 6 2 6 7
M  V30 7 1 7 8
M  V30 8 1 8 9
M  V30 9 1 9 10
M  V30 10 1 10 11
M  V30 11 1 11 12
M  V30 12 1 12 13
M  V30 13 1 12 14
M  V30 14 1 14 15
M  V30 15 2 8 16
M  V30 16 1 16 17
M  V30 17 1 17 18
M  V30 18 1 18 19
M  V30 19 1 19 20
M  V30 20 1 20 21
M  V30 21 1 21 22
M  V30 22 1 22 23
M  V30 23 2 23 24
M  V30 24 1 23 25
M  V30 25 2 25 26
M  V30 26 1 26 27
M  V30 27 2 27 28
M  V30 28 1 28 29
M  V30 29 1 29 30
M  V30 30 2 29 31
M  V30 31 1 31 32
M  V30 32 1 22 33
M  V30 33 2 17 34
M  V30 34 2 4 35
M  V30 35 1 35 36
M  V30 36 1 36 2
M  V30 37 1 34 6
M  V30 38 1 15 9
M  V30 39 1 33 19
M  V30 40 1 31 25
M  V30 41 1 1 37
M  V30 42 1 1 38
M  V30 43 1 1 39
M  V30 44 1 3 40
M  V30 45 1 5 41
M  V30 46 1 7 42
M  V30 47 1 10 43
M  V30 48 1 10 44
M  V30 49 1 11 45
M  V30 50 1 11 46
M  V30 51 1 13 47
M  V30 52 1 13 48
M  V30 53 1 13 49
M  V30 54 1 14 50
M  V30 55 1 14 51
M  V30 56 1 15 52
M  V30 57 1 15 53
M  V30 58 1 18 54
M  V30 59 1 19 55 CFG=3
M  V30 60 1 20 56
M  V30 61 1 20 57
M  V30 62 1 21 58
M  V30 63 1 21 59
M  V30 64 1 26 60
M  V30 65 1 27 61
M  V30 66 1 28 62
M  V30 67 1 33 63
M  V30 68 1 33 64
M  V30 69 1 36 65
M  V30 END BOND
M  V30 END CTAB
M  END
>  <Dataset>  (427) 
ChEMBL_Kinases

>  <Ligand_Instance>  (427) 
nan

>  <PDB_ID>  (427) 
nan

>  <Standardized_SMILES>  (427) 
Cc1cc(Nc2cc(N3CCN(C)CC3)nc(N[C@H]3CCN(C(=O)c4cccc(Cl)c4F)C3)n2)n[nH]1

>  <Name>  (427) 
nan

>  <Pocket>  (427) 
nan

>  <ATP_Site>  (427) 
nan

>  <Peripheral>  (427) 
nan

>  <Num_H_Atoms_ProtBoundConf>  (427) 
nan

>  <Num_Resolved_Atoms>  (427) 
nan

>  <Num_Not_Resolved_Atoms>  (427) 
nan

$$$$
CHEMBL5091689
     RDKit          3D

  0  0  0  0  0  0  0  0  0  0999 V3000
M  V30 BEGIN CTAB
M  V30 COUNTS 93 98 0 0 0
M  V30 BEGIN ATOM
M  V30 1 C 2.824495 -0.790448 0.907873 0
M  V30 2 C 3.629868 0.478251 0.973403 0
M  V30 3 C 4.054254 0.768948 2.372106 0
M  V30 4 C 5.357048 0.535289 2.757182 0
M  V30 5 C 5.755390 0.806674 4.060003 0
M  V30 6 C 4.803603 1.306285 4.916813 0
M  V30 7 C 3.484091 1.550559 4.553579 0
M  V30 8 C 2.515109 2.093123 5.536786 0
M  V30 9 C 1.573132 1.030946 6.045987 0
M  V30 10 C 3.112620 1.271939 3.249563 0
M  V30 11 N 1.751326 1.534399 2.912487 0
M  V30 12 C 1.435038 2.831712 2.423599 0
M  V30 13 O 2.332305 3.674115 2.309400 0
M  V30 14 C 0.050401 3.120402 2.072279 0
M  V30 15 C -1.030185 2.238947 2.163570 0
M  V30 16 C -2.216086 2.857334 1.736698 0
M  V30 17 C -3.485114 2.143532 1.714177 0
M  V30 18 N -3.401232 0.948034 1.122581 0
M  V30 19 C -4.411763 0.095023 0.969493 0
M  V30 20 N -4.357618 -1.179960 0.351549 0
M  V30 21 C -3.232260 -1.793766 -0.251585 0
M  V30 22 C -1.984698 -1.222826 -0.370869 0
M  V30 23 C -0.894403 -1.819087 -0.964595 0
M  V30 24 C -1.025301 -3.082456 -1.490143 0
M  V30 25 N 0.041399 -3.783037 -2.143470 0
M  V30 26 C 0.098508 -5.202121 -2.495588 0
M  V30 27 C 0.351503 -5.370902 -3.979030 0
M  V30 28 N 0.572921 -4.047101 -4.587989 0
M  V30 29 C 1.005108 -4.320101 -5.964940 0
M  V30 30 C 1.073952 -3.127587 -6.805508 0
M  V30 31 O 1.508798 -3.554100 -7.929903 0
M  V30 32 N 0.788093 -1.722364 -6.663075 0
M  V30 33 C 0.272522 -0.878791 -5.590297 0
M  V30 34 C 1.046694 -0.877165 -7.816960 0
M  V30 35 C 1.767784 -3.498703 -3.879980 0
M  V30 36 C 1.249274 -3.043301 -2.554317 0
M  V30 37 C -2.258023 -3.687308 -1.390193 0
M  V30 38 C -3.338379 -3.065812 -0.788097 0
M  V30 39 O -4.568403 -3.701373 -0.702938 0
M  V30 40 C -4.701905 -4.995584 -1.240713 0
M  V30 41 N -5.568567 0.537623 1.470933 0
M  V30 42 C -5.732944 1.708669 2.071713 0
M  V30 43 N -6.792321 2.333651 2.643160 0
M  V30 44 C -6.394632 3.534966 3.122374 0
M  V30 45 C -5.033241 3.720009 2.865208 0
M  V30 46 C -4.665525 2.572982 2.216954 0
M  V30 47 N -1.794797 4.088467 1.406115 0
M  V30 48 C -2.683768 5.097095 0.890007 0
M  V30 49 N -0.507995 4.245615 1.594381 0
M  V30 50 H 3.028529 -1.451466 1.793927 0
M  V30 51 H 3.132124 -1.375103 0.025789 0
M  V30 52 H 1.722006 -0.581773 0.862784 0
M  V30 53 H 4.540303 0.333320 0.346951 0
M  V30 54 H 2.981399 1.290850 0.556409 0
M  V30 55 H 6.100585 0.144867 2.088892 0
M  V30 56 H 6.767994 0.647653 4.437200 0
M  V30 57 H 5.121209 1.520943 5.950439 0
M  V30 58 H 1.960864 2.967658 5.136081 0
M  V30 59 H 3.093573 2.468622 6.405733 0
M  V30 60 H 1.945666 0.015100 5.809877 0
M  V30 61 H 1.348585 1.216765 7.099947 0
M  V30 62 H 0.617628 1.180941 5.470965 0
M  V30 63 H 0.994005 0.815130 3.011297 0
M  V30 64 H -0.939259 1.221699 2.519617 0
M  V30 65 H -5.250033 -1.728648 0.340082 0
M  V30 66 H -1.795107 -0.242768 0.009064 0
M  V30 67 H 0.055086 -1.311529 -1.018404 0
M  V30 68 H 0.976990 -5.617081 -1.963971 0
M  V30 69 H -0.779140 -5.740409 -2.127185 0
M  V30 70 H -0.564389 -5.772951 -4.439642 0
M  V30 71 H 1.178008 -6.072590 -4.179243 0
M  V30 72 H 2.010424 -4.780582 -5.853519 0
M  V30 73 H 0.259217 -5.028808 -6.429049 0
M  V30 74 H -0.162269 -1.588762 -4.828498 0
M  V30 75 H -0.492801 -0.176621 -5.953332 0
M  V30 76 H 1.067706 -0.324015 -5.062174 0
M  V30 77 H 1.618632 -1.415988 -8.588118 0
M  V30 78 H 1.557410 0.076046 -7.555397 0
M  V30 79 H 0.023553 -0.570869 -8.175094 0
M  V30 80 H 2.147696 -2.668011 -4.451662 0
M  V30 81 H 2.513524 -4.325365 -3.767485 0
M  V30 82 H 1.984567 -3.165907 -1.733614 0
M  V30 83 H 0.922478 -1.988144 -2.689450 0
M  V30 84 H -2.457851 -4.674296 -1.771925 0
M  V30 85 H -4.397712 -5.070198 -2.300749 0
M  V30 86 H -4.013860 -5.714124 -0.704243 0
M  V30 87 H -5.714261 -5.386230 -1.082584 0
M  V30 88 H -7.765432 1.983889 2.721521 0
M  V30 89 H -6.996141 4.271309 3.631097 0
M  V30 90 H -4.367126 4.535718 3.097504 0
M  V30 91 H -2.151242 5.695374 0.096091 0
M  V30 92 H -2.846757 5.850086 1.709638 0
M  V30 93 H -3.634025 4.676429 0.514465 0
M  V30 END ATOM
M  V30 BEGIN BOND
M  V30 1 1 1 2
M  V30 2 1 2 3
M  V30 3 2 3 4
M  V30 4 1 4 5
M  V30 5 2 5 6
M  V30 6 1 6 7
M  V30 7 1 7 8
M  V30 8 1 8 9
M  V30 9 2 7 10
M  V30 10 1 10 11
M  V30 11 1 11 12
M  V30 12 2 12 13
M  V30 13 1 12 14
M  V30 14 1 14 15
M  V30 15 2 15 16
M  V30 16 1 16 17
M  V30 17 2 17 18
M  V30 18 1 18 19
M  V30 19 1 19 20
M  V30 20 1 20 21
M  V30 21 2 21 22
M  V30 22 1 22 23
M  V30 23 2 23 24
M  V30 24 1 24 25
M  V30 25 1 25 26
M  V30 26 1 26 27
M  V30 27 1 27 28
M  V30 28 1 28 29
M  V30 29 1 29 30
M  V30 30 2 30 31
M  V30 31 1 30 32
M  V30 32 1 32 33
M  V30 33 1 32 34
M  V30 34 1 28 35
M  V30 35 1 35 36
M  V30 36 1 24 37
M  V30 37 2 37 38
M  V30 38 1 38 39
M  V30 39 1 39 40
M  V30 40 2 19 41
M  V30 41 1 41 42
M  V30 42 1 42 43
M  V30 43 1 43 44
M  V30 44 2 44 45
M  V30 45 1 45 46
M  V30 46 1 16 47
M  V30 47 1 47 48
M  V30 48 1 47 49
M  V30 49 1 10 3
M  V30 50 2 49 14
M  V30 51 1 46 17
M  V30 52 1 38 21
M  V30 53 2 46 42
M  V30 54 1 36 25
M  V30 55 1 1 50
M  V30 56 1 1 51
M  V30 57 1 1 52
M  V30 58 1 2 53
M  V30 59 1 2 54
M  V30 60 1 4 55
M  V30 61 1 5 56
M  V30 62 1 6 57
M  V30 63 1 8 58
M  V30 64 1 8 59
M  V30 65 1 9 60
M  V30 66 1 9 61
M  V30 67 1 9 62
M  V30 68 1 11 63
M  V30 69 1 15 64
M  V30 70 1 20 65
M  V30 71 1 22 66
M  V30 72 1 23 67
M  V30 73 1 26 68
M  V30 74 1 26 69
M  V30 75 1 27 70
M  V30 76 1 27 71
M  V30 77 1 29 72
M  V30 78 1 29 73
M  V30 79 1 33 74
M  V30 80 1 33 75
M  V30 81 1 33 76
M  V30 82 1 34 77
M  V30 83 1 34 78
M  V30 84 1 34 79
M  V30 85 1 35 80
M  V30 86 1 35 81
M  V30 87 1 36 82
M  V30 88 1 36 83
M  V30 89 1 37 84
M  V30 90 1 40 85
M  V30 91 1 40 86
M  V30 92 1 40 87
M  V30 93 1 43 88
M  V30 94 1 44 89
M  V30 95 1 45 90
M  V30 96 1 48 91
M  V30 97 1 48 92
M  V30 98 1 48 93
M  V30 END BOND
M  V30 END CTAB
M  END
>  <Dataset>  (428) 
ChEMBL_Kinases

>  <Ligand_Instance>  (428) 
nan

>  <PDB_ID>  (428) 
nan

>  <Standardized_SMILES>  (428) 
CCc1cccc(CC)c1NC(=O)c1cc(-c2nc(Nc3ccc(N4CCN(CC(=O)N(C)C)CC4)cc3OC)nc3[nH]ccc23)n(C)n1

>  <Name>  (428) 
nan

>  <Pocket>  (428) 
nan

>  <ATP_Site>  (428) 
nan

>  <Peripheral>  (428) 
nan

>  <Num_H_Atoms_ProtBoundConf>  (428) 
nan

>  <Num_Resolved_Atoms>  (428) 
nan

>  <Num_Not_Resolved_Atoms>  (428) 
nan

$$$$
CHEMBL5091644
     RDKit          3D

  0  0  0  0  0  0  0  0  0  0999 V3000
M  V30 BEGIN CTAB
M  V30 COUNTS 51 53 0 0 0
M  V30 BEGIN ATOM
M  V30 1 C -0.291243 -6.794114 2.880443 0
M  V30 2 C -0.614114 -5.295295 2.863872 0
M  V30 3 C -1.684432 -5.007840 1.843679 0
M  V30 4 C -2.061259 -3.565583 1.762334 0
M  V30 5 C -0.907104 -2.710841 1.383172 0
M  V30 6 N 0.387685 -2.934306 1.095714 0
M  V30 7 C 1.029275 -1.794652 0.811264 0
M  V30 8 C 2.356738 -1.628174 0.477176 0
M  V30 9 C 2.766187 -0.332341 0.237658 0
M  V30 10 C 1.833962 0.675453 0.348950 0
M  V30 11 C 2.189561 2.068935 0.111833 0
M  V30 12 C 1.225955 3.051649 0.233375 0
M  V30 13 C 1.494755 4.403508 0.021421 0
M  V30 14 N 0.499940 5.411323 0.147653 0
M  V30 15 N 2.750187 4.751945 -0.315288 0
M  V30 16 C 3.738690 3.845487 -0.451099 0
M  V30 17 N 5.055666 4.258742 -0.809527 0
M  V30 18 C 3.444062 2.524085 -0.236336 0
M  V30 19 N 0.550749 0.447741 0.678995 0
M  V30 20 C 0.080030 -0.801144 0.927671 0
M  V30 21 N -1.112800 -1.363635 1.279501 0
M  V30 22 C -2.275096 -0.572608 1.462860 0
M  V30 23 C -3.204126 -0.395168 0.330533 0
M  V30 24 C -2.704985 0.202766 -0.927078 0
M  V30 25 C -1.640432 -0.539440 -1.655102 0
M  V30 26 H -1.065698 -7.358714 2.316336 0
M  V30 27 H 0.703624 -6.924085 2.412828 0
M  V30 28 H -0.192314 -7.167375 3.930679 0
M  V30 29 H -0.948443 -5.040532 3.892088 0
M  V30 30 H 0.302633 -4.713039 2.646211 0
M  V30 31 H -1.416110 -5.431343 0.860449 0
M  V30 32 H -2.613695 -5.546910 2.194328 0
M  V30 33 H -2.906072 -3.359878 1.107686 0
M  V30 34 H -2.405777 -3.262271 2.795167 0
M  V30 35 H 3.048686 -2.435156 0.401041 0
M  V30 36 H 3.792423 -0.148156 -0.026704 0
M  V30 37 H 0.194665 2.848816 0.500840 0
M  V30 38 H 0.192213 5.995378 -0.661466 0
M  V30 39 H 0.205824 5.394707 1.164779 0
M  V30 40 H 5.808922 3.930651 -0.137116 0
M  V30 41 H 5.220213 4.834093 -1.668376 0
M  V30 42 H 4.230706 1.807998 -0.344997 0
M  V30 43 H -2.869538 -1.095376 2.280005 0
M  V30 44 H -2.028066 0.409459 1.939419 0
M  V30 45 H -3.736810 -1.353602 0.111152 0
M  V30 46 H -4.050074 0.274244 0.693121 0
M  V30 47 H -2.350157 1.262576 -0.801126 0
M  V30 48 H -3.596089 0.311530 -1.616284 0
M  V30 49 H -1.531791 -1.590626 -1.289581 0
M  V30 50 H -0.680001 0.005890 -1.741337 0
M  V30 51 H -1.969421 -0.681479 -2.738158 0
M  V30 END ATOM
M  V30 BEGIN BOND
M  V30 1 1 1 2
M  V30 2 1 2 3
M  V30 3 1 3 4
M  V30 4 1 4 5
M  V30 5 2 5 6
M  V30 6 1 6 7
M  V30 7 2 7 8
M  V30 8 1 8 9
M  V30 9 2 9 10
M  V30 10 1 10 11
M  V30 11 2 11 12
M  V30 12 1 12 13
M  V30 13 1 13 14
M  V30 14 2 13 15
M  V30 15 1 15 16
M  V30 16 1 16 17
M  V30 17 2 16 18
M  V30 18 1 10 19
M  V30 19 2 19 20
M  V30 20 1 20 21
M  V30 21 1 21 22
M  V30 22 1 22 23
M  V30 23 1 23 24
M  V30 24 1 24 25
M  V30 25 1 21 5
M  V30 26 1 20 7
M  V30 27 1 18 11
M  V30 28 1 1 26
M  V30 29 1 1 27
M  V30 30 1 1 28
M  V30 31 1 2 29
M  V30 32 1 2 30
M  V30 33 1 3 31
M  V30 34 1 3 32
M  V30 35 1 4 33
M  V30 36 1 4 34
M  V30 37 1 8 35
M  V30 38 1 9 36
M  V30 39 1 12 37
M  V30 40 1 14 38
M  V30 41 1 14 39
M  V30 42 1 17 40
M  V30 43 1 17 41
M  V30 44 1 18 42
M  V30 45 1 22 43
M  V30 46 1 22 44
M  V30 47 1 23 45
M  V30 48 1 23 46
M  V30 49 1 24 47
M  V30 50 1 24 48
M  V30 51 1 25 49
M  V30 52 1 25 50
M  V30 53 1 25 51
M  V30 END BOND
M  V30 END CTAB
M  END
>  <Dataset>  (429) 
ChEMBL_Kinases

>  <Ligand_Instance>  (429) 
nan

>  <PDB_ID>  (429) 
nan

>  <Standardized_SMILES>  (429) 
CCCCc1nc2ccc(-c3cc(N)nc(N)c3)nc2n1CCCC

>  <Name>  (429) 
nan

>  <Pocket>  (429) 
nan

>  <ATP_Site>  (429) 
nan

>  <Peripheral>  (429) 
nan

>  <Num_H_Atoms_ProtBoundConf>  (429) 
nan

>  <Num_Resolved_Atoms>  (429) 
nan

>  <Num_Not_Resolved_Atoms>  (429) 
nan

$$$$
CHEMBL3702335
     RDKit          3D

  0  0  0  0  0  0  0  0  0  0999 V3000
M  V30 BEGIN CTAB
M  V30 COUNTS 56 58 0 0 0
M  V30 BEGIN ATOM
M  V30 1 C -0.269251 -0.386641 0.940275 0
M  V30 2 C 0.629922 -0.384282 2.115176 0
M  V30 3 C 1.892571 0.055502 1.847943 0
M  V30 4 C 2.721016 0.545466 0.786769 0
M  V30 5 O 3.936680 0.861181 1.052400 0
M  V30 6 N 2.518214 0.789697 -0.599471 0
M  V30 7 C 3.692657 1.295080 -1.217384 0
M  V30 8 C 3.496772 1.547617 -2.675116 0
M  V30 9 C 2.427849 2.515331 -3.036432 0
M  V30 10 N 1.094650 2.179363 -2.651830 0
M  V30 11 C 0.260426 3.320257 -3.021298 0
M  V30 12 C 0.596042 1.080571 -3.505519 0
M  V30 13 S 2.745519 -0.036977 3.422367 0
M  V30 14 C 1.319651 -0.675911 4.363451 0
M  V30 15 N 1.150607 -1.012442 5.671622 0
M  V30 16 C -0.033895 -1.461153 6.109092 0
M  V30 17 N -0.963748 -1.535079 5.179736 0
M  V30 18 C -0.858814 -1.220998 3.885852 0
M  V30 19 N -2.080491 -1.423687 3.217139 0
M  V30 20 C -2.883932 -2.494701 2.671076 0
M  V30 21 C -4.094229 -2.404883 3.363776 0
M  V30 22 C -5.147317 -3.290946 3.115848 0
M  V30 23 C -4.952614 -4.258853 2.164655 0
M  V30 24 F -5.884105 -5.163581 1.839737 0
M  V30 25 C -3.761730 -4.328530 1.499843 0
M  V30 26 C -2.702162 -3.489002 1.702253 0
M  V30 27 O -1.464023 -3.345300 1.205029 0
M  V30 28 C -0.664154 -3.918679 0.277449 0
M  V30 29 C -1.078715 -3.866630 -1.163072 0
M  V30 30 F -2.269850 -4.485223 -1.349967 0
M  V30 31 F -1.261352 -2.540659 -1.583944 0
M  V30 32 C 0.326918 -0.757953 3.384357 0
M  V30 33 H -1.318021 -0.623656 1.143334 0
M  V30 34 H -0.298595 0.668279 0.551788 0
M  V30 35 H 0.145532 -1.002448 0.106619 0
M  V30 36 H 1.550786 0.551820 -0.891814 0
M  V30 37 H 4.516899 0.528012 -1.142492 0
M  V30 38 H 4.118762 2.181652 -0.687820 0
M  V30 39 H 4.455377 1.994419 -3.098558 0
M  V30 40 H 3.348078 0.606180 -3.242237 0
M  V30 41 H 2.423999 2.584032 -4.157451 0
M  V30 42 H 2.678144 3.571978 -2.723140 0
M  V30 43 H 0.884139 4.208884 -3.287588 0
M  V30 44 H -0.455203 3.573308 -2.211400 0
M  V30 45 H -0.335956 3.094428 -3.921428 0
M  V30 46 H 0.157475 1.457823 -4.447749 0
M  V30 47 H -0.222348 0.539007 -2.988325 0
M  V30 48 H 1.405949 0.369717 -3.721132 0
M  V30 49 H -0.046303 -1.690853 7.146443 0
M  V30 50 H -2.419616 -0.415515 3.169142 0
M  V30 51 H -4.424878 -1.709260 4.146527 0
M  V30 52 H -6.115062 -3.314151 3.584540 0
M  V30 53 H -3.585027 -5.085512 0.766703 0
M  V30 54 H -0.343469 -4.979324 0.542677 0
M  V30 55 H 0.338261 -3.372204 0.312958 0
M  V30 56 H -0.274529 -4.250437 -1.838568 0
M  V30 END ATOM
M  V30 BEGIN BOND
M  V30 1 1 1 2
M  V30 2 2 2 3
M  V30 3 1 3 4
M  V30 4 2 4 5
M  V30 5 1 4 6
M  V30 6 1 6 7
M  V30 7 1 7 8
M  V30 8 1 8 9
M  V30 9 1 9 10
M  V30 10 1 10 11
M  V30 11 1 10 12
M  V30 12 1 3 13
M  V30 13 1 13 14
M  V30 14 2 14 15
M  V30 15 1 15 16
M  V30 16 2 16 17
M  V30 17 1 17 18
M  V30 18 1 18 19
M  V30 19 1 19 20
M  V30 20 2 20 21
M  V30 21 1 21 22
M  V30 22 2 22 23
M  V30 23 1 23 24
M  V30 24 1 23 25
M  V30 25 2 25 26
M  V30 26 1 26 27
M  V30 27 1 27 28
M  V30 28 1 28 29
M  V30 29 1 29 30
M  V30 30 1 29 31
M  V30 31 2 18 32
M  V30 32 1 32 2
M  V30 33 1 32 14
M  V30 34 1 26 20
M  V30 35 1 1 33
M  V30 36 1 1 34
M  V30 37 1 1 35
M  V30 38 1 6 36
M  V30 39 1 7 37
M  V30 40 1 7 38
M  V30 41 1 8 39
M  V30 42 1 8 40
M  V30 43 1 9 41
M  V30 44 1 9 42
M  V30 45 1 11 43
M  V30 46 1 11 44
M  V30 47 1 11 45
M  V30 48 1 12 46
M  V30 49 1 12 47
M  V30 50 1 12 48
M  V30 51 1 16 49
M  V30 52 1 19 50
M  V30 53 1 21 51
M  V30 54 1 22 52
M  V30 55 1 25 53
M  V30 56 1 28 54
M  V30 57 1 28 55
M  V30 58 1 29 56
M  V30 END BOND
M  V30 END CTAB
M  END
>  <Dataset>  (430) 
ChEMBL_Kinases

>  <Ligand_Instance>  (430) 
nan

>  <PDB_ID>  (430) 
nan

>  <Standardized_SMILES>  (430) 
Cc1c(C(=O)NCCCN(C)C)sc2ncnc(Nc3ccc(F)cc3OCC(F)F)c12

>  <Name>  (430) 
nan

>  <Pocket>  (430) 
nan

>  <ATP_Site>  (430) 
nan

>  <Peripheral>  (430) 
nan

>  <Num_H_Atoms_ProtBoundConf>  (430) 
nan

>  <Num_Resolved_Atoms>  (430) 
nan

>  <Num_Not_Resolved_Atoms>  (430) 
nan

$$$$
CHEMBL3702336
     RDKit          3D

  0  0  0  0  0  0  0  0  0  0999 V3000
M  V30 BEGIN CTAB
M  V30 COUNTS 50 53 0 0 0
M  V30 BEGIN ATOM
M  V30 1 C 1.229634 -0.960256 1.087498 0
M  V30 2 C 1.837927 0.348658 0.727835 0
M  V30 3 C 3.189044 0.542550 0.956071 0
M  V30 4 C 4.165707 -0.416479 1.603221 0
M  V30 5 O 4.107866 -1.574128 2.090158 0
M  V30 6 N 5.478776 0.046822 1.715836 0
M  V30 7 C 6.604409 -0.644857 2.291183 0
M  V30 8 C 6.303378 -0.907925 3.745913 0
M  V30 9 O 6.098064 0.341373 4.379894 0
M  V30 10 S 3.571150 2.110988 0.370100 0
M  V30 11 C 1.880900 2.507671 -0.188251 0
M  V30 12 N 1.405978 3.633408 -0.787087 0
M  V30 13 C 0.113378 3.725145 -1.127860 0
M  V30 14 N -0.558929 2.648427 -0.815569 0
M  V30 15 C -0.145307 1.530864 -0.233642 0
M  V30 16 N -1.178874 0.604848 -0.051780 0
M  V30 17 C -2.435090 0.430413 -0.651540 0
M  V30 18 C -2.858310 1.261338 -1.668291 0
M  V30 19 C -4.083856 1.154157 -2.301504 0
M  V30 20 C -4.971291 0.153009 -1.910805 0
M  V30 21 F -6.181461 -0.016553 -2.478819 0
M  V30 22 C -4.548242 -0.675653 -0.896368 0
M  V30 23 C -3.331715 -0.576477 -0.261461 0
M  V30 24 O -2.900578 -1.396649 0.750937 0
M  V30 25 C -3.530744 -2.470656 1.354334 0
M  V30 26 C -3.865381 -3.627957 0.440803 0
M  V30 27 C -2.714739 -4.264613 -0.242952 0
M  V30 28 C -3.387575 -5.012850 0.872265 0
M  V30 29 F -4.080249 -6.118860 0.466864 0
M  V30 30 F -2.760310 -5.103593 2.098091 0
M  V30 31 C 1.158322 1.369485 0.135838 0
M  V30 32 H 0.662320 -0.935253 2.026911 0
M  V30 33 H 0.655467 -1.428518 0.253766 0
M  V30 34 H 2.039519 -1.735958 1.253076 0
M  V30 35 H 5.744901 1.009712 1.356431 0
M  V30 36 H 6.820919 -1.605226 1.771313 0
M  V30 37 H 7.538447 -0.057920 2.270745 0
M  V30 38 H 7.161786 -1.400937 4.261043 0
M  V30 39 H 5.397824 -1.502714 3.938228 0
M  V30 40 H 5.132662 0.492504 4.553113 0
M  V30 41 H -0.079983 4.669459 -1.584215 0
M  V30 42 H -1.010893 -0.073866 0.701168 0
M  V30 43 H -2.322424 2.074696 -2.104574 0
M  V30 44 H -4.458375 1.791454 -3.110391 0
M  V30 45 H -5.237337 -1.438632 -0.598753 0
M  V30 46 H -2.850439 -2.871999 2.163038 0
M  V30 47 H -4.445100 -2.159769 1.946801 0
M  V30 48 H -4.883566 -3.683169 -0.005424 0
M  V30 49 H -2.879998 -4.580405 -1.291666 0
M  V30 50 H -1.696090 -3.846546 -0.102259 0
M  V30 END ATOM
M  V30 BEGIN BOND
M  V30 1 1 1 2
M  V30 2 2 2 3
M  V30 3 1 3 4
M  V30 4 2 4 5
M  V30 5 1 4 6
M  V30 6 1 6 7
M  V30 7 1 7 8
M  V30 8 1 8 9
M  V30 9 1 3 10
M  V30 10 1 10 11
M  V30 11 2 11 12
M  V30 12 1 12 13
M  V30 13 2 13 14
M  V30 14 1 14 15
M  V30 15 1 15 16
M  V30 16 1 16 17
M  V30 17 2 17 18
M  V30 18 1 18 19
M  V30 19 2 19 20
M  V30 20 1 20 21
M  V30 21 1 20 22
M  V30 22 2 22 23
M  V30 23 1 23 24
M  V30 24 1 24 25
M  V30 25 1 25 26
M  V30 26 1 26 27
M  V30 27 1 27 28
M  V30 28 1 28 29
M  V30 29 1 28 30
M  V30 30 2 15 31
M  V30 31 1 31 2
M  V30 32 1 31 11
M  V30 33 1 23 17
M  V30 34 1 28 26
M  V30 35 1 1 32
M  V30 36 1 1 33
M  V30 37 1 1 34
M  V30 38 1 6 35
M  V30 39 1 7 36
M  V30 40 1 7 37
M  V30 41 1 8 38
M  V30 42 1 8 39
M  V30 43 1 9 40
M  V30 44 1 13 41
M  V30 45 1 16 42
M  V30 46 1 18 43
M  V30 47 1 19 44
M  V30 48 1 22 45
M  V30 49 1 25 46
M  V30 50 1 25 47
M  V30 51 1 26 48
M  V30 52 1 27 49
M  V30 53 1 27 50
M  V30 END BOND
M  V30 END CTAB
M  END
>  <Dataset>  (431) 
ChEMBL_Kinases

>  <Ligand_Instance>  (431) 
nan

>  <PDB_ID>  (431) 
nan

>  <Standardized_SMILES>  (431) 
Cc1c(C(=O)NCCO)sc2ncnc(Nc3ccc(F)cc3OCC3CC3(F)F)c12

>  <Name>  (431) 
nan

>  <Pocket>  (431) 
nan

>  <ATP_Site>  (431) 
nan

>  <Peripheral>  (431) 
nan

>  <Num_H_Atoms_ProtBoundConf>  (431) 
nan

>  <Num_Resolved_Atoms>  (431) 
nan

>  <Num_Not_Resolved_Atoms>  (431) 
nan

$$$$
CHEMBL3702337
     RDKit          3D

  0  0  0  0  0  0  0  0  0  0999 V3000
M  V30 BEGIN CTAB
M  V30 COUNTS 43 46 0 0 0
M  V30 BEGIN ATOM
M  V30 1 C 0.126997 -0.128815 -1.656328 0
M  V30 2 C 1.254636 0.808304 -1.893732 0
M  V30 3 C 1.663314 1.046768 -3.184850 0
M  V30 4 C 1.220280 0.562282 -4.455405 0
M  V30 5 N 0.178953 -0.351198 -4.736224 0
M  V30 6 O 1.735716 0.912609 -5.538043 0
M  V30 7 S 3.015816 2.203786 -3.065932 0
M  V30 8 C 2.965223 2.312389 -1.254368 0
M  V30 9 N 3.743774 3.038982 -0.412035 0
M  V30 10 C 3.515831 2.950732 0.903389 0
M  V30 11 N 2.523652 2.141399 1.294573 0
M  V30 12 C 1.756686 1.425835 0.465681 0
M  V30 13 N 0.784542 0.653512 1.145571 0
M  V30 14 C 1.019250 -0.697589 1.540622 0
M  V30 15 C 2.295221 -1.150907 1.183892 0
M  V30 16 C 2.626289 -2.448246 1.516708 0
M  V30 17 C 1.775080 -3.309437 2.174067 0
M  V30 18 F 2.037866 -4.574208 2.522565 0
M  V30 19 C 0.547775 -2.770413 2.479887 0
M  V30 20 C 0.086314 -1.503352 2.211624 0
M  V30 21 O -1.035319 -0.826432 2.424032 0
M  V30 22 C -2.259768 -0.954328 2.977662 0
M  V30 23 C -2.403158 -1.224733 4.434573 0
M  V30 24 C -1.904049 -2.381709 5.163180 0
M  V30 25 C -3.429034 -2.108549 5.022610 0
M  V30 26 F -4.094061 -1.762802 6.181484 0
M  V30 27 F -4.117095 -2.928382 4.154820 0
M  V30 28 C 1.931429 1.465189 -0.899690 0
M  V30 29 H -0.493314 0.139110 -0.773454 0
M  V30 30 H -0.573769 -0.066703 -2.513738 0
M  V30 31 H 0.482387 -1.176734 -1.597944 0
M  V30 32 H -0.820524 -0.570393 -4.903210 0
M  V30 33 H 0.443668 -1.362168 -4.859226 0
M  V30 34 H 4.184435 3.563710 1.482197 0
M  V30 35 H -0.094470 1.226259 1.302833 0
M  V30 36 H 3.034734 -0.556697 0.668264 0
M  V30 37 H 3.605118 -2.823026 1.253017 0
M  V30 38 H -0.183063 -3.376831 2.983202 0
M  V30 39 H -2.778518 -1.829249 2.450809 0
M  V30 40 H -2.937038 -0.094319 2.673516 0
M  V30 41 H -2.305093 -0.245118 5.027885 0
M  V30 42 H -1.623435 -3.357966 4.771040 0
M  V30 43 H -1.528311 -2.249948 6.223268 0
M  V30 END ATOM
M  V30 BEGIN BOND
M  V30 1 1 1 2
M  V30 2 2 2 3
M  V30 3 1 3 4
M  V30 4 1 4 5
M  V30 5 2 4 6
M  V30 6 1 3 7
M  V30 7 1 7 8
M  V30 8 2 8 9
M  V30 9 1 9 10
M  V30 10 2 10 11
M  V30 11 1 11 12
M  V30 12 1 12 13
M  V30 13 1 13 14
M  V30 14 2 14 15
M  V30 15 1 15 16
M  V30 16 2 16 17
M  V30 17 1 17 18
M  V30 18 1 17 19
M  V30 19 2 19 20
M  V30 20 1 20 21
M  V30 21 1 21 22
M  V30 22 1 22 23
M  V30 23 1 23 24
M  V30 24 1 24 25
M  V30 25 1 25 26
M  V30 26 1 25 27
M  V30 27 2 12 28
M  V30 28 1 28 2
M  V30 29 1 28 8
M  V30 30 1 20 14
M  V30 31 1 25 23
M  V30 32 1 1 29
M  V30 33 1 1 30
M  V30 34 1 1 31
M  V30 35 1 5 32
M  V30 36 1 5 33
M  V30 37 1 10 34
M  V30 38 1 13 35
M  V30 39 1 15 36
M  V30 40 1 16 37
M  V30 41 1 19 38
M  V30 42 1 22 39
M  V30 43 1 22 40
M  V30 44 1 23 41
M  V30 45 1 24 42
M  V30 46 1 24 43
M  V30 END BOND
M  V30 END CTAB
M  END
>  <Dataset>  (432) 
ChEMBL_Kinases

>  <Ligand_Instance>  (432) 
nan

>  <PDB_ID>  (432) 
nan

>  <Standardized_SMILES>  (432) 
Cc1c(C(N)=O)sc2ncnc(Nc3ccc(F)cc3OCC3CC3(F)F)c12

>  <Name>  (432) 
nan

>  <Pocket>  (432) 
nan

>  <ATP_Site>  (432) 
nan

>  <Peripheral>  (432) 
nan

>  <Num_H_Atoms_ProtBoundConf>  (432) 
nan

>  <Num_Resolved_Atoms>  (432) 
nan

>  <Num_Not_Resolved_Atoms>  (432) 
nan

$$$$
CHEMBL3702338
     RDKit          3D

  0  0  0  0  0  0  0  0  0  0999 V3000
M  V30 BEGIN CTAB
M  V30 COUNTS 60 63 0 0 0
M  V30 BEGIN ATOM
M  V30 1 C 0.404791 -1.102839 1.194980 0
M  V30 2 C -0.251999 0.078709 1.794807 0
M  V30 3 C 0.434680 1.221727 1.678615 0
M  V30 4 C 1.652566 1.775184 1.135385 0
M  V30 5 O 1.863872 3.035650 1.285773 0
M  V30 6 N 2.736640 1.256273 0.438185 0
M  V30 7 C 3.978010 1.402842 -0.222747 0
M  V30 8 C 3.916111 2.196816 -1.475781 0
M  V30 9 C 3.427898 3.581421 -1.356777 0
M  V30 10 N 3.486449 4.306194 -2.630902 0
M  V30 11 C 2.996154 5.640140 -2.565451 0
M  V30 12 C 3.058941 3.558163 -3.759254 0
M  V30 13 S -0.571577 2.439896 2.481198 0
M  V30 14 C -1.917545 1.350054 2.959298 0
M  V30 15 N -3.094292 1.475487 3.601782 0
M  V30 16 C -3.911354 0.429942 3.794042 0
M  V30 17 N -3.510876 -0.736335 3.323957 0
M  V30 18 C -2.354394 -0.881974 2.688066 0
M  V30 19 N -2.245570 -2.243148 2.303282 0
M  V30 20 C -1.965196 -3.513298 2.927798 0
M  V30 21 C -1.767852 -3.556340 4.287898 0
M  V30 22 C -1.492811 -4.811851 4.845641 0
M  V30 23 C -1.431560 -5.938965 4.019889 0
M  V30 24 F -1.175789 -7.195117 4.451098 0
M  V30 25 C -1.643867 -5.788574 2.666781 0
M  V30 26 C -1.917899 -4.581533 2.062155 0
M  V30 27 O -2.129504 -4.418057 0.717287 0
M  V30 28 C -2.090151 -5.463072 -0.217620 0
M  V30 29 C -2.352314 -4.950210 -1.627401 0
M  V30 30 C -3.718623 -4.278056 -1.815809 0
M  V30 31 C -3.380406 -5.582443 -2.462430 0
M  V30 32 F -3.244606 -5.501383 -3.857007 0
M  V30 33 F -4.065746 -6.707857 -2.078912 0
M  V30 34 C -1.449305 0.120084 2.440397 0
M  V30 35 H 1.385401 -1.333580 1.715362 0
M  V30 36 H 0.512978 -1.009353 0.092917 0
M  V30 37 H -0.140528 -2.058614 1.319346 0
M  V30 38 H 2.471180 0.217079 0.382231 0
M  V30 39 H 4.434973 0.390776 -0.446837 0
M  V30 40 H 4.726512 1.944635 0.457713 0
M  V30 41 H 4.928801 2.198249 -1.971236 0
M  V30 42 H 3.277600 1.586891 -2.182725 0
M  V30 43 H 2.335515 3.629510 -1.122193 0
M  V30 44 H 3.966829 4.159764 -0.601954 0
M  V30 45 H 2.076660 5.816508 -3.197998 0
M  V30 46 H 2.704884 5.977025 -1.548126 0
M  V30 47 H 3.747282 6.362283 -2.950989 0
M  V30 48 H 2.542604 4.290904 -4.447876 0
M  V30 49 H 2.376261 2.732401 -3.595206 0
M  V30 50 H 3.937753 3.191676 -4.356700 0
M  V30 51 H -4.783595 0.758289 4.321008 0
M  V30 52 H -2.464880 -2.146603 1.270807 0
M  V30 53 H -1.811016 -2.702720 4.939141 0
M  V30 54 H -1.320419 -4.982842 5.896864 0
M  V30 55 H -1.598589 -6.667836 2.002298 0
M  V30 56 H -2.880975 -6.237841 -0.025493 0
M  V30 57 H -1.090307 -5.942250 -0.187783 0
M  V30 58 H -1.490645 -4.482704 -2.154336 0
M  V30 59 H -3.732599 -3.334482 -2.405843 0
M  V30 60 H -4.427882 -4.319658 -0.965745 0
M  V30 END ATOM
M  V30 BEGIN BOND
M  V30 1 1 1 2
M  V30 2 2 2 3
M  V30 3 1 3 4
M  V30 4 2 4 5
M  V30 5 1 4 6
M  V30 6 1 6 7
M  V30 7 1 7 8
M  V30 8 1 8 9
M  V30 9 1 9 10
M  V30 10 1 10 11
M  V30 11 1 10 12
M  V30 12 1 3 13
M  V30 13 1 13 14
M  V30 14 2 14 15
M  V30 15 1 15 16
M  V30 16 2 16 17
M  V30 17 1 17 18
M  V30 18 1 18 19
M  V30 19 1 19 20
M  V30 20 2 20 21
M  V30 21 1 21 22
M  V30 22 2 22 23
M  V30 23 1 23 24
M  V30 24 1 23 25
M  V30 25 2 25 26
M  V30 26 1 26 27
M  V30 27 1 27 28
M  V30 28 1 28 29
M  V30 29 1 29 30
M  V30 30 1 30 31
M  V30 31 1 31 32
M  V30 32 1 31 33
M  V30 33 2 18 34
M  V30 34 1 34 2
M  V30 35 1 34 14
M  V30 36 1 26 20
M  V30 37 1 31 29
M  V30 38 1 1 35
M  V30 39 1 1 36
M  V30 40 1 1 37
M  V30 41 1 6 38
M  V30 42 1 7 39
M  V30 43 1 7 40
M  V30 44 1 8 41
M  V30 45 1 8 42
M  V30 46 1 9 43
M  V30 47 1 9 44
M  V30 48 1 11 45
M  V30 49 1 11 46
M  V30 50 1 11 47
M  V30 51 1 12 48
M  V30 52 1 12 49
M  V30 53 1 12 50
M  V30 54 1 16 51
M  V30 55 1 19 52
M  V30 56 1 21 53
M  V30 57 1 22 54
M  V30 58 1 25 55
M  V30 59 1 28 56
M  V30 60 1 28 57
M  V30 61 1 29 58
M  V30 62 1 30 59
M  V30 63 1 30 60
M  V30 END BOND
M  V30 END CTAB
M  END
>  <Dataset>  (433) 
ChEMBL_Kinases

>  <Ligand_Instance>  (433) 
nan

>  <PDB_ID>  (433) 
nan

>  <Standardized_SMILES>  (433) 
Cc1c(C(=O)NCCCN(C)C)sc2ncnc(Nc3ccc(F)cc3OCC3CC3(F)F)c12

>  <Name>  (433) 
nan

>  <Pocket>  (433) 
nan

>  <ATP_Site>  (433) 
nan

>  <Peripheral>  (433) 
nan

>  <Num_H_Atoms_ProtBoundConf>  (433) 
nan

>  <Num_Resolved_Atoms>  (433) 
nan

>  <Num_Not_Resolved_Atoms>  (433) 
nan

$$$$
CHEMBL3702339
     RDKit          3D

  0  0  0  0  0  0  0  0  0  0999 V3000
M  V30 BEGIN CTAB
M  V30 COUNTS 53 55 0 0 0
M  V30 BEGIN ATOM
M  V30 1 C 6.123823 -0.428988 2.206040 0
M  V30 2 O 5.369186 0.664139 2.549232 0
M  V30 3 C 4.424422 0.446623 3.519430 0
M  V30 4 C 3.382208 -0.575192 3.187773 0
M  V30 5 C 2.535212 -0.789854 4.430990 0
M  V30 6 F 1.904977 0.341667 4.865729 0
M  V30 7 O 2.617333 -0.287686 2.063829 0
M  V30 8 C 2.464772 -1.031829 0.923734 0
M  V30 9 C 3.021415 -2.248136 0.595386 0
M  V30 10 C 2.790947 -2.902556 -0.592260 0
M  V30 11 F 3.412589 -4.103931 -0.778983 0
M  V30 12 C 1.958194 -2.329678 -1.525598 0
M  V30 13 C 1.390783 -1.111988 -1.215614 0
M  V30 14 C 1.627058 -0.447467 -0.005434 0
M  V30 15 N 0.977717 0.801933 0.194159 0
M  V30 16 C 0.135484 1.317424 -0.826534 0
M  V30 17 N 0.757242 2.156345 -1.631623 0
M  V30 18 C 0.219743 2.777999 -2.661732 0
M  V30 19 N -1.080265 2.501566 -2.871679 0
M  V30 20 C -1.753970 1.645477 -2.067548 0
M  V30 21 S -3.461128 1.064092 -2.075029 0
M  V30 22 C -3.297515 0.019263 -0.668924 0
M  V30 23 C -4.365892 -0.802774 -0.095686 0
M  V30 24 O -4.402710 -1.586859 0.888152 0
M  V30 25 N -5.659956 -0.762517 -0.722648 0
M  V30 26 C -6.811434 -1.509128 -0.294091 0
M  V30 27 C -6.549471 -2.985724 -0.370657 0
M  V30 28 O -7.683995 -3.682097 0.051135 0
M  V30 29 C -2.012032 0.151022 -0.271930 0
M  V30 30 C -1.514458 -0.614802 0.931115 0
M  V30 31 C -1.194207 0.988918 -0.983131 0
M  V30 32 H 5.517707 -1.248361 1.818811 0
M  V30 33 H 6.830931 -0.097961 1.400771 0
M  V30 34 H 6.780380 -0.777395 3.055394 0
M  V30 35 H 4.864108 0.119770 4.505204 0
M  V30 36 H 3.899503 1.401212 3.760643 0
M  V30 37 H 3.905838 -1.554109 3.018682 0
M  V30 38 H 3.227614 -1.132834 5.226773 0
M  V30 39 H 1.812660 -1.640828 4.277093 0
M  V30 40 H 3.668854 -2.677971 1.345437 0
M  V30 41 H 1.792913 -2.857658 -2.443055 0
M  V30 42 H 0.745182 -0.716195 -1.994924 0
M  V30 43 H 1.110814 1.346426 1.072587 0
M  V30 44 H 0.583606 3.474650 -3.396484 0
M  V30 45 H -5.764267 -0.126749 -1.570437 0
M  V30 46 H -7.090835 -1.233298 0.748079 0
M  V30 47 H -7.646293 -1.303954 -1.004434 0
M  V30 48 H -6.414133 -3.265398 -1.456546 0
M  V30 49 H -5.686254 -3.346752 0.210457 0
M  V30 50 H -7.667764 -3.667335 1.050347 0
M  V30 51 H -2.341167 -0.844141 1.615952 0
M  V30 52 H -1.067048 -1.538429 0.554546 0
M  V30 53 H -0.802358 -0.001934 1.525102 0
M  V30 END ATOM
M  V30 BEGIN BOND
M  V30 1 1 1 2
M  V30 2 1 2 3
M  V30 3 1 3 4
M  V30 4 1 4 5
M  V30 5 1 5 6
M  V30 6 1 4 7
M  V30 7 1 7 8
M  V30 8 2 8 9
M  V30 9 1 9 10
M  V30 10 1 10 11
M  V30 11 2 10 12
M  V30 12 1 12 13
M  V30 13 2 13 14
M  V30 14 1 14 15
M  V30 15 1 15 16
M  V30 16 2 16 17
M  V30 17 1 17 18
M  V30 18 2 18 19
M  V30 19 1 19 20
M  V30 20 1 20 21
M  V30 21 1 21 22
M  V30 22 1 22 23
M  V30 23 2 23 24
M  V30 24 1 23 25
M  V30 25 1 25 26
M  V30 26 1 26 27
M  V30 27 1 27 28
M  V30 28 2 22 29
M  V30 29 1 29 30
M  V30 30 1 29 31
M  V30 31 1 14 8
M  V30 32 1 31 16
M  V30 33 2 31 20
M  V30 34 1 1 32
M  V30 35 1 1 33
M  V30 36 1 1 34
M  V30 37 1 3 35
M  V30 38 1 3 36
M  V30 39 1 4 37
M  V30 40 1 5 38
M  V30 41 1 5 39
M  V30 42 1 9 40
M  V30 43 1 12 41
M  V30 44 1 13 42
M  V30 45 1 15 43
M  V30 46 1 18 44
M  V30 47 1 25 45
M  V30 48 1 26 46
M  V30 49 1 26 47
M  V30 50 1 27 48
M  V30 51 1 27 49
M  V30 52 1 28 50
M  V30 53 1 30 51
M  V30 54 1 30 52
M  V30 55 1 30 53
M  V30 END BOND
M  V30 END CTAB
M  END
>  <Dataset>  (434) 
ChEMBL_Kinases

>  <Ligand_Instance>  (434) 
nan

>  <PDB_ID>  (434) 
nan

>  <Standardized_SMILES>  (434) 
COCC(CF)Oc1cc(F)ccc1Nc1ncnc2sc(C(=O)NCCO)c(C)c12

>  <Name>  (434) 
nan

>  <Pocket>  (434) 
nan

>  <ATP_Site>  (434) 
nan

>  <Peripheral>  (434) 
nan

>  <Num_H_Atoms_ProtBoundConf>  (434) 
nan

>  <Num_Resolved_Atoms>  (434) 
nan

>  <Num_Not_Resolved_Atoms>  (434) 
nan

$$$$
CHEMBL3702340
     RDKit          3D

  0  0  0  0  0  0  0  0  0  0999 V3000
M  V30 BEGIN CTAB
M  V30 COUNTS 63 65 0 0 0
M  V30 BEGIN ATOM
M  V30 1 C 2.867250 -0.836137 2.329867 0
M  V30 2 O 1.804616 -0.822529 3.220460 0
M  V30 3 C 2.039221 0.017757 4.282109 0
M  V30 4 C 2.278276 1.449931 3.857301 0
M  V30 5 C 2.510989 2.227063 5.152214 0
M  V30 6 F 3.619801 1.696262 5.825907 0
M  V30 7 O 1.179333 1.914289 3.137939 0
M  V30 8 C 1.154218 2.534317 1.922524 0
M  V30 9 C 2.320738 2.867095 1.223989 0
M  V30 10 C 2.308986 3.488253 -0.005889 0
M  V30 11 F 3.456966 3.805493 -0.675118 0
M  V30 12 C 1.127454 3.810238 -0.602277 0
M  V30 13 C 0.002717 3.485292 0.081520 0
M  V30 14 C -0.048459 2.863765 1.312012 0
M  V30 15 N -1.242808 2.483353 1.987312 0
M  V30 16 C -1.859856 1.372331 2.563962 0
M  V30 17 N -1.950589 1.568663 3.874876 0
M  V30 18 C -2.428375 0.769816 4.806475 0
M  V30 19 N -2.870797 -0.392153 4.298451 0
M  V30 20 C -2.807088 -0.652435 2.979879 0
M  V30 21 S -3.253560 -2.076630 1.966184 0
M  V30 22 C -2.740099 -1.431886 0.364245 0
M  V30 23 C -2.933293 -2.324319 -0.660166 0
M  V30 24 O -3.449057 -3.478933 -0.400851 0
M  V30 25 N -2.723276 -2.382884 -2.032322 0
M  V30 26 C -3.047804 -3.531116 -2.856649 0
M  V30 27 C -2.308853 -4.765763 -2.472383 0
M  V30 28 C -0.802046 -4.628913 -2.559912 0
M  V30 29 N -0.358069 -4.333810 -3.888639 0
M  V30 30 C -0.575403 -5.471036 -4.742509 0
M  V30 31 C 1.093463 -4.119450 -3.821949 0
M  V30 32 C -2.282421 -0.209412 0.713556 0
M  V30 33 C -1.828982 0.669604 -0.409501 0
M  V30 34 C -2.300146 0.203799 2.006485 0
M  V30 35 H 2.561061 -1.568135 1.519437 0
M  V30 36 H 3.003203 0.139102 1.804818 0
M  V30 37 H 3.818049 -1.178061 2.728379 0
M  V30 38 H 1.243168 -0.038698 5.066306 0
M  V30 39 H 2.952017 -0.403665 4.799822 0
M  V30 40 H 3.186531 1.511484 3.234953 0
M  V30 41 H 2.840960 3.257005 4.878997 0
M  V30 42 H 1.663953 2.169182 5.830392 0
M  V30 43 H 3.314238 2.657745 1.605627 0
M  V30 44 H 1.127024 4.298972 -1.571610 0
M  V30 45 H -0.957126 3.750684 -0.394961 0
M  V30 46 H -1.785546 3.400748 2.020058 0
M  V30 47 H -2.546381 0.822838 5.854002 0
M  V30 48 H -2.299043 -1.526917 -2.451185 0
M  V30 49 H -2.898507 -3.327806 -3.921156 0
M  V30 50 H -4.132978 -3.737761 -2.676419 0
M  V30 51 H -2.569419 -5.534612 -3.266004 0
M  V30 52 H -2.614496 -5.253597 -1.534384 0
M  V30 53 H -0.407097 -3.855640 -1.855081 0
M  V30 54 H -0.352752 -5.575999 -2.208446 0
M  V30 55 H 0.152440 -5.390680 -5.583377 0
M  V30 56 H -1.631075 -5.522130 -5.060345 0
M  V30 57 H -0.356604 -6.430945 -4.188067 0
M  V30 58 H 1.347410 -3.749630 -2.793712 0
M  V30 59 H 1.446105 -3.435383 -4.599072 0
M  V30 60 H 1.612597 -5.101810 -3.952796 0
M  V30 61 H -2.190860 1.735327 -0.202672 0
M  V30 62 H -2.380269 0.468671 -1.362914 0
M  V30 63 H -0.755112 0.717230 -0.479399 0
M  V30 END ATOM
M  V30 BEGIN BOND
M  V30 1 1 1 2
M  V30 2 1 2 3
M  V30 3 1 3 4
M  V30 4 1 4 5
M  V30 5 1 5 6
M  V30 6 1 4 7
M  V30 7 1 7 8
M  V30 8 2 8 9
M  V30 9 1 9 10
M  V30 10 1 10 11
M  V30 11 2 10 12
M  V30 12 1 12 13
M  V30 13 2 13 14
M  V30 14 1 14 15
M  V30 15 1 15 16
M  V30 16 2 16 17
M  V30 17 1 17 18
M  V30 18 2 18 19
M  V30 19 1 19 20
M  V30 20 1 20 21
M  V30 21 1 21 22
M  V30 22 1 22 23
M  V30 23 2 23 24
M  V30 24 1 23 25
M  V30 25 1 25 26
M  V30 26 1 26 27
M  V30 27 1 27 28
M  V30 28 1 28 29
M  V30 29 1 29 30
M  V30 30 1 29 31
M  V30 31 2 22 32
M  V30 32 1 32 33
M  V30 33 1 32 34
M  V30 34 1 14 8
M  V30 35 1 34 16
M  V30 36 2 34 20
M  V30 37 1 1 35
M  V30 38 1 1 36
M  V30 39 1 1 37
M  V30 40 1 3 38
M  V30 41 1 3 39
M  V30 42 1 4 40
M  V30 43 1 5 41
M  V30 44 1 5 42
M  V30 45 1 9 43
M  V30 46 1 12 44
M  V30 47 1 13 45
M  V30 48 1 15 46
M  V30 49 1 18 47
M  V30 50 1 25 48
M  V30 51 1 26 49
M  V30 52 1 26 50
M  V30 53 1 27 51
M  V30 54 1 27 52
M  V30 55 1 28 53
M  V30 56 1 28 54
M  V30 57 1 30 55
M  V30 58 1 30 56
M  V30 59 1 30 57
M  V30 60 1 31 58
M  V30 61 1 31 59
M  V30 62 1 31 60
M  V30 63 1 33 61
M  V30 64 1 33 62
M  V30 65 1 33 63
M  V30 END BOND
M  V30 END CTAB
M  END
>  <Dataset>  (435) 
ChEMBL_Kinases

>  <Ligand_Instance>  (435) 
nan

>  <PDB_ID>  (435) 
nan

>  <Standardized_SMILES>  (435) 
COCC(CF)Oc1cc(F)ccc1Nc1ncnc2sc(C(=O)NCCCN(C)C)c(C)c12

>  <Name>  (435) 
nan

>  <Pocket>  (435) 
nan

>  <ATP_Site>  (435) 
nan

>  <Peripheral>  (435) 
nan

>  <Num_H_Atoms_ProtBoundConf>  (435) 
nan

>  <Num_Resolved_Atoms>  (435) 
nan

>  <Num_Not_Resolved_Atoms>  (435) 
nan

$$$$
CHEMBL583194
     RDKit          3D

  0  0  0  0  0  0  0  0  0  0999 V3000
M  V30 BEGIN CTAB
M  V30 COUNTS 67 73 0 0 0
M  V30 BEGIN ATOM
M  V30 1 C 1.807903 -0.874780 6.064842 0
M  V30 2 C 1.834108 -2.211496 5.726126 0
M  V30 3 N 2.663886 -2.564639 4.703957 0
M  V30 4 C 3.406200 -1.641178 4.076049 0
M  V30 5 C 3.410727 -0.279612 4.385676 0
M  V30 6 C 4.282727 0.642273 3.610464 0
M  V30 7 N 3.550275 1.129288 2.490028 0
M  V30 8 C 2.362144 1.848676 2.822191 0
M  V30 9 C 1.607228 2.208930 1.569603 0
M  V30 10 C 2.098798 1.334710 0.456921 0
M  V30 11 N 1.262987 1.300902 -0.702273 0
M  V30 12 N 1.286327 2.015130 -1.811985 0
M  V30 13 C 0.298298 1.637002 -2.640836 0
M  V30 14 C -0.373610 0.627580 -1.999980 0
M  V30 15 C -1.463136 -0.149583 -2.337258 0
M  V30 16 N -2.141834 0.012488 -3.582064 0
M  V30 17 C -1.486017 -0.162132 -4.862999 0
M  V30 18 C -2.192799 -1.289022 -5.582928 0
M  V30 19 O -3.454904 -0.784133 -5.937045 0
M  V30 20 C -4.194211 -0.565503 -4.794982 0
M  V30 21 C -3.514233 0.356841 -3.801974 0
M  V30 22 N -1.911019 -1.100250 -1.465271 0
M  V30 23 C -1.319688 -1.301826 -0.284086 0
M  V30 24 C -1.796619 -2.315716 0.646932 0
M  V30 25 C -1.152112 -2.485901 1.854851 0
M  V30 26 C -1.636551 -3.462459 2.715118 0
M  V30 27 C -2.721017 -4.243246 2.391067 0
M  V30 28 N -3.406673 -5.235961 2.985160 0
M  V30 29 C -4.406797 -5.647783 2.192851 0
M  V30 30 C -4.405348 -4.917073 1.025129 0
M  V30 31 C -3.342331 -4.039291 1.162755 0
M  V30 32 C -2.887551 -3.077452 0.283003 0
M  V30 33 N -0.262101 -0.534448 0.022495 0
M  V30 34 C 0.240294 0.424518 -0.783654 0
M  V30 35 C 3.531217 1.768705 0.163564 0
M  V30 36 C 4.324071 1.695257 1.428781 0
M  V30 37 C 2.566782 0.069454 5.422955 0
M  V30 38 H 1.144861 -0.580236 6.884489 0
M  V30 39 H 1.259196 -2.993014 6.197096 0
M  V30 40 H 4.032218 -2.019982 3.278905 0
M  V30 41 H 4.676962 1.448055 4.262479 0
M  V30 42 H 5.134483 0.032674 3.230346 0
M  V30 43 H 1.691825 1.160006 3.392820 0
M  V30 44 H 2.543468 2.741386 3.479669 0
M  V30 45 H 0.511909 2.064727 1.667387 0
M  V30 46 H 1.756683 3.303013 1.344118 0
M  V30 47 H 2.220637 0.309275 0.915616 0
M  V30 48 H 0.000929 1.977769 -3.618122 0
M  V30 49 H -0.409553 -0.456334 -4.740722 0
M  V30 50 H -1.583752 0.763542 -5.467459 0
M  V30 51 H -2.300921 -2.111802 -4.842913 0
M  V30 52 H -1.616865 -1.614501 -6.465126 0
M  V30 53 H -4.420840 -1.542477 -4.285052 0
M  V30 54 H -5.153314 -0.106936 -5.113124 0
M  V30 55 H -4.127116 0.327749 -2.876878 0
M  V30 56 H -3.560216 1.380611 -4.226776 0
M  V30 57 H -0.292888 -1.885256 2.140338 0
M  V30 58 H -1.179442 -3.655380 3.687422 0
M  V30 59 H -3.195603 -5.635887 3.931759 0
M  V30 60 H -5.166528 -6.430937 2.343905 0
M  V30 61 H -5.059660 -4.972059 0.163497 0
M  V30 62 H -3.359043 -2.906978 -0.674250 0
M  V30 63 H 3.928900 1.073957 -0.624999 0
M  V30 64 H 3.509179 2.822308 -0.171576 0
M  V30 65 H 5.208783 1.014767 1.293578 0
M  V30 66 H 4.801598 2.682246 1.699438 0
M  V30 67 H 2.549450 1.121206 5.685724 0
M  V30 END ATOM
M  V30 BEGIN BOND
M  V30 1 2 1 2
M  V30 2 1 2 3
M  V30 3 2 3 4
M  V30 4 1 4 5
M  V30 5 1 5 6
M  V30 6 1 6 7
M  V30 7 1 7 8
M  V30 8 1 8 9
M  V30 9 1 9 10
M  V30 10 1 10 11
M  V30 11 1 11 12
M  V30 12 2 12 13
M  V30 13 1 13 14
M  V30 14 2 14 15
M  V30 15 1 15 16
M  V30 16 1 16 17
M  V30 17 1 17 18
M  V30 18 1 18 19
M  V30 19 1 19 20
M  V30 20 1 20 21
M  V30 21 1 15 22
M  V30 22 2 22 23
M  V30 23 1 23 24
M  V30 24 2 24 25
M  V30 25 1 25 26
M  V30 26 2 26 27
M  V30 27 1 27 28
M  V30 28 1 28 29
M  V30 29 2 29 30
M  V30 30 1 30 31
M  V30 31 2 31 32
M  V30 32 1 23 33
M  V30 33 2 33 34
M  V30 34 1 10 35
M  V30 35 1 35 36
M  V30 36 2 5 37
M  V30 37 1 37 1
M  V30 38 1 36 7
M  V30 39 1 34 11
M  V30 40 1 34 14
M  V30 41 1 21 16
M  V30 42 1 32 24
M  V30 43 1 31 27
M  V30 44 1 1 38
M  V30 45 1 2 39
M  V30 46 1 4 40
M  V30 47 1 6 41
M  V30 48 1 6 42
M  V30 49 1 8 43
M  V30 50 1 8 44
M  V30 51 1 9 45
M  V30 52 1 9 46
M  V30 53 1 10 47
M  V30 54 1 13 48
M  V30 55 1 17 49
M  V30 56 1 17 50
M  V30 57 1 18 51
M  V30 58 1 18 52
M  V30 59 1 20 53
M  V30 60 1 20 54
M  V30 61 1 21 55
M  V30 62 1 21 56
M  V30 63 1 25 57
M  V30 64 1 26 58
M  V30 65 1 28 59
M  V30 66 1 29 60
M  V30 67 1 30 61
M  V30 68 1 32 62
M  V30 69 1 35 63
M  V30 70 1 35 64
M  V30 71 1 36 65
M  V30 72 1 36 66
M  V30 73 1 37 67
M  V30 END BOND
M  V30 END CTAB
M  END
>  <Dataset>  (436) 
ChEMBL_Kinases

>  <Ligand_Instance>  (436) 
nan

>  <PDB_ID>  (436) 
nan

>  <Standardized_SMILES>  (436) 
c1cncc(CN2CCC(n3ncc4c(N5CCOCC5)nc(-c5ccc6[nH]ccc6c5)nc43)CC2)c1

>  <Name>  (436) 
nan

>  <Pocket>  (436) 
nan

>  <ATP_Site>  (436) 
nan

>  <Peripheral>  (436) 
nan

>  <Num_H_Atoms_ProtBoundConf>  (436) 
nan

>  <Num_Resolved_Atoms>  (436) 
nan

>  <Num_Not_Resolved_Atoms>  (436) 
nan

$$$$
CHEMBL5091645
     RDKit          3D

  0  0  0  0  0  0  0  0  0  0999 V3000
M  V30 BEGIN CTAB
M  V30 COUNTS 41 44 0 0 0
M  V30 BEGIN ATOM
M  V30 1 C 1.988998 -6.657255 2.046333 0
M  V30 2 O 1.648096 -5.879092 0.925557 0
M  V30 3 C 1.532844 -4.511821 0.987687 0
M  V30 4 O 1.751805 -3.969110 2.124188 0
M  V30 5 C 1.179928 -3.700367 -0.171524 0
M  V30 6 C 0.940617 -4.271343 -1.403583 0
M  V30 7 C 0.604541 -3.550311 -2.531378 0
M  V30 8 C 0.518327 -2.184942 -2.354229 0
M  V30 9 C 0.751472 -1.581734 -1.135707 0
M  V30 10 C 0.642999 -0.119087 -1.013855 0
M  V30 11 C 0.996176 0.551369 -2.165493 0
M  V30 12 N 0.936534 1.907027 -2.176562 0
M  V30 13 C 0.544800 2.620917 -1.102986 0
M  V30 14 N 0.384899 3.922705 -0.802930 0
M  V30 15 C -0.045482 4.081569 0.465436 0
M  V30 16 C -0.185713 2.821187 1.059049 0
M  V30 17 C -0.628697 2.518443 2.415542 0
M  V30 18 C -1.582714 1.505416 2.570977 0
M  V30 19 C -2.055355 1.151969 3.813007 0
M  V30 20 C -1.583323 1.804041 4.917995 0
M  V30 21 C -0.632071 2.820525 4.811621 0
M  V30 22 C -0.168413 3.161282 3.547070 0
M  V30 23 C 0.190262 1.943151 0.053488 0
M  V30 24 C 0.234974 0.565485 0.112568 0
M  V30 25 C 1.087567 -2.331142 -0.018604 0
M  V30 26 H 1.318316 -7.555400 2.005104 0
M  V30 27 H 3.031035 -7.068163 1.932888 0
M  V30 28 H 1.960992 -6.133564 3.004347 0
M  V30 29 H 1.029435 -5.351215 -1.460438 0
M  V30 30 H 0.434281 -4.081936 -3.456908 0
M  V30 31 H 0.252183 -1.592731 -3.237502 0
M  V30 32 H 1.330404 0.164395 -3.111526 0
M  V30 33 H 0.599669 4.633560 -1.545233 0
M  V30 34 H -0.245380 5.038978 0.933212 0
M  V30 35 H -2.025870 0.924056 1.756109 0
M  V30 36 H -2.799693 0.365135 3.959405 0
M  V30 37 H -1.963045 1.518175 5.904766 0
M  V30 38 H -0.246610 3.348041 5.674474 0
M  V30 39 H 0.577318 3.947173 3.377693 0
M  V30 40 H -0.010134 -0.072559 0.940378 0
M  V30 41 H 1.256866 -1.798880 0.904646 0
M  V30 END ATOM
M  V30 BEGIN BOND
M  V30 1 1 1 2
M  V30 2 1 2 3
M  V30 3 2 3 4
M  V30 4 1 3 5
M  V30 5 2 5 6
M  V30 6 1 6 7
M  V30 7 2 7 8
M  V30 8 1 8 9
M  V30 9 1 9 10
M  V30 10 2 10 11
M  V30 11 1 11 12
M  V30 12 2 12 13
M  V30 13 1 13 14
M  V30 14 1 14 15
M  V30 15 2 15 16
M  V30 16 1 16 17
M  V30 17 2 17 18
M  V30 18 1 18 19
M  V30 19 2 19 20
M  V30 20 1 20 21
M  V30 21 2 21 22
M  V30 22 1 16 23
M  V30 23 2 23 24
M  V30 24 2 9 25
M  V30 25 1 25 5
M  V30 26 1 24 10
M  V30 27 1 23 13
M  V30 28 1 22 17
M  V30 29 1 1 26
M  V30 30 1 1 27
M  V30 31 1 1 28
M  V30 32 1 6 29
M  V30 33 1 7 30
M  V30 34 1 8 31
M  V30 35 1 11 32
M  V30 36 1 14 33
M  V30 37 1 15 34
M  V30 38 1 18 35
M  V30 39 1 19 36
M  V30 40 1 20 37
M  V30 41 1 21 38
M  V30 42 1 22 39
M  V30 43 1 24 40
M  V30 44 1 25 41
M  V30 END BOND
M  V30 END CTAB
M  END
>  <Dataset>  (437) 
ChEMBL_Kinases

>  <Ligand_Instance>  (437) 
nan

>  <PDB_ID>  (437) 
nan

>  <Standardized_SMILES>  (437) 
COC(=O)c1cccc(-c2cnc3[nH]cc(-c4ccccc4)c3c2)c1

>  <Name>  (437) 
nan

>  <Pocket>  (437) 
nan

>  <ATP_Site>  (437) 
nan

>  <Peripheral>  (437) 
nan

>  <Num_H_Atoms_ProtBoundConf>  (437) 
nan

>  <Num_Resolved_Atoms>  (437) 
nan

>  <Num_Not_Resolved_Atoms>  (437) 
nan

$$$$
CHEMBL5091647
     RDKit          3D

  0  0  0  0  0  0  0  0  0  0999 V3000
M  V30 BEGIN CTAB
M  V30 COUNTS 39 41 0 0 0
M  V30 BEGIN ATOM
M  V30 1 C 1.126432 -5.113692 3.670634 0
M  V30 2 C 1.678856 -4.572607 2.613421 0
M  V30 3 C 1.742636 -3.612979 1.558378 0
M  V30 4 O 2.810391 -4.045637 1.034156 0
M  V30 5 N 1.096716 -2.507729 0.990253 0
M  V30 6 C 1.683314 -2.053582 -0.252483 0
M  V30 7 O 2.860870 -2.537599 -0.444833 0
M  V30 8 C 1.352158 -1.204163 -1.376754 0
M  V30 9 C 0.092756 -0.494879 -1.503560 0
M  V30 10 C 0.104929 0.945160 -1.105876 0
M  V30 11 C -0.250654 1.942973 -2.026416 0
M  V30 12 C -0.258755 3.304526 -1.726701 0
M  V30 13 C 0.096287 3.704235 -0.473195 0
M  V30 14 N 0.100363 5.082614 -0.129571 0 CHG=1 VAL=4
M  V30 15 O -0.222440 5.939701 -0.976644 0
M  V30 16 O 0.463996 5.461568 1.146865 0 CHG=-1 VAL=1
M  V30 17 C 0.450780 2.756055 0.455477 0
M  V30 18 C 0.443590 1.429854 0.114207 0
M  V30 19 S -1.392537 -1.250771 -0.843993 0
M  V30 20 C -1.195584 -1.363689 0.938536 0
M  V30 21 C -2.179744 -0.876520 1.739554 0
M  V30 22 C -2.025281 -0.944042 3.106116 0
M  V30 23 C -0.908559 -1.486975 3.743307 0
M  V30 24 C 0.093924 -1.982858 2.938859 0
M  V30 25 C -0.064493 -1.915176 1.550730 0
M  V30 26 H 0.214316 -4.862766 4.226203 0
M  V30 27 H 0.210008 -4.863882 4.231220 0
M  V30 28 H 2.193353 -5.408501 3.021714 0
M  V30 29 H 2.228392 -0.494998 -1.506823 0
M  V30 30 H 1.488853 -1.870331 -2.291021 0
M  V30 31 H -0.144661 -0.412121 -2.620988 0
M  V30 32 H -0.542876 1.702611 -3.036634 0
M  V30 33 H -0.537665 4.032085 -2.461935 0
M  V30 34 H 0.726725 3.106187 1.439158 0
M  V30 35 H 0.730456 0.760742 0.880750 0
M  V30 36 H -3.013089 -0.471154 1.222467 0
M  V30 37 H -2.827381 -0.547774 3.712749 0
M  V30 38 H -0.828357 -1.519618 4.818458 0
M  V30 39 H 0.988942 -2.395074 3.370331 0
M  V30 END ATOM
M  V30 BEGIN BOND
M  V30 1 2 1 2
M  V30 2 1 2 3
M  V30 3 2 3 4
M  V30 4 1 3 5
M  V30 5 1 5 6
M  V30 6 2 6 7
M  V30 7 1 6 8
M  V30 8 1 8 9
M  V30 9 1 9 10
M  V30 10 2 10 11
M  V30 11 1 11 12
M  V30 12 2 12 13
M  V30 13 1 13 14
M  V30 14 2 14 15
M  V30 15 1 14 16
M  V30 16 1 13 17
M  V30 17 2 17 18
M  V30 18 1 9 19
M  V30 19 1 19 20
M  V30 20 2 20 21
M  V30 21 1 21 22
M  V30 22 2 22 23
M  V30 23 1 23 24
M  V30 24 2 24 25
M  V30 25 1 25 5
M  V30 26 1 18 10
M  V30 27 1 25 20
M  V30 28 1 1 26
M  V30 29 1 1 27
M  V30 30 1 2 28
M  V30 31 1 8 29
M  V30 32 1 8 30
M  V30 33 1 9 31
M  V30 34 1 11 32
M  V30 35 1 12 33
M  V30 36 1 17 34
M  V30 37 1 18 35
M  V30 38 1 21 36
M  V30 39 1 22 37
M  V30 40 1 23 38
M  V30 41 1 24 39
M  V30 END BOND
M  V30 END CTAB
M  END
>  <Dataset>  (438) 
ChEMBL_Kinases

>  <Ligand_Instance>  (438) 
nan

>  <PDB_ID>  (438) 
nan

>  <Standardized_SMILES>  (438) 
C=CC(=O)N1C(=O)CC(c2ccc([N+](=O)[O-])cc2)Sc2ccccc21

>  <Name>  (438) 
nan

>  <Pocket>  (438) 
nan

>  <ATP_Site>  (438) 
nan

>  <Peripheral>  (438) 
nan

>  <Num_H_Atoms_ProtBoundConf>  (438) 
nan

>  <Num_Resolved_Atoms>  (438) 
nan

>  <Num_Not_Resolved_Atoms>  (438) 
nan

$$$$
CHEMBL3702342
     RDKit          3D

  0  0  0  0  0  0  0  0  0  0999 V3000
M  V30 BEGIN CTAB
M  V30 COUNTS 49 51 0 0 0
M  V30 BEGIN ATOM
M  V30 1 C 0.835419 -1.125471 1.010147 0
M  V30 2 C 1.121729 0.340268 0.956256 0
M  V30 3 C 2.419973 0.806240 1.205850 0
M  V30 4 C 3.646052 0.041931 1.548170 0
M  V30 5 O 3.882751 -1.183821 1.699041 0
M  V30 6 N 4.819604 0.791050 1.760787 0
M  V30 7 C 6.112479 0.246055 2.111463 0
M  V30 8 C 6.028804 -0.468804 3.437354 0
M  V30 9 O 5.613823 0.509345 4.372037 0
M  V30 10 S 2.330884 2.611774 1.042819 0
M  V30 11 C 0.573603 2.614591 0.654647 0
M  V30 12 N -0.220089 3.665484 0.405776 0
M  V30 13 C -1.533540 3.444348 0.144842 0
M  V30 14 N -1.944182 2.172575 0.155754 0
M  V30 15 C -1.146392 1.133588 0.404423 0
M  V30 16 N -1.862184 -0.093673 0.347147 0
M  V30 17 C -2.208361 -0.529258 -0.955778 0
M  V30 18 C -1.880632 0.239446 -2.039472 0
M  V30 19 C -2.248887 -0.278585 -3.263624 0
M  V30 20 C -2.904891 -1.489139 -3.411042 0
M  V30 21 F -3.175745 -1.815359 -4.685503 0
M  V30 22 C -3.202922 -2.213786 -2.243106 0
M  V30 23 C -2.851408 -1.735286 -0.965855 0
M  V30 24 O -3.268358 -2.644996 -0.114090 0
M  V30 25 C -3.344779 -2.944839 1.202205 0
M  V30 26 C -4.750723 -3.392757 1.620351 0
M  V30 27 C -2.399837 -4.083281 1.612258 0
M  V30 28 F -2.581688 -4.278535 2.966000 0
M  V30 29 C 0.198876 1.292255 0.677161 0
M  V30 30 H 0.239040 -1.451090 0.128868 0
M  V30 31 H 0.218665 -1.379715 1.904454 0
M  V30 32 H 1.757693 -1.716437 1.124971 0
M  V30 33 H 4.779063 1.853215 1.661133 0
M  V30 34 H 6.494402 -0.419143 1.305605 0
M  V30 35 H 6.837684 1.089830 2.276987 0
M  V30 36 H 7.031180 -0.833677 3.768345 0
M  V30 37 H 5.319331 -1.290878 3.442801 0
M  V30 38 H 5.220412 1.294679 3.929342 0
M  V30 39 H -2.101869 4.328372 -0.043852 0
M  V30 40 H -1.877582 -0.240360 1.346490 0
M  V30 41 H -1.370411 1.183458 -1.939316 0
M  V30 42 H -1.976912 0.350953 -4.114136 0
M  V30 43 H -3.713823 -3.122976 -2.568333 0
M  V30 44 H -3.067450 -2.104575 1.848251 0
M  V30 45 H -4.677987 -4.262288 2.277149 0
M  V30 46 H -5.264085 -2.537417 2.100666 0
M  V30 47 H -5.317407 -3.721022 0.706303 0
M  V30 48 H -2.633594 -5.018133 1.062216 0
M  V30 49 H -1.362830 -3.741608 1.371636 0
M  V30 END ATOM
M  V30 BEGIN BOND
M  V30 1 1 1 2
M  V30 2 2 2 3
M  V30 3 1 3 4
M  V30 4 2 4 5
M  V30 5 1 4 6
M  V30 6 1 6 7
M  V30 7 1 7 8
M  V30 8 1 8 9
M  V30 9 1 3 10
M  V30 10 1 10 11
M  V30 11 2 11 12
M  V30 12 1 12 13
M  V30 13 2 13 14
M  V30 14 1 14 15
M  V30 15 1 15 16
M  V30 16 1 16 17
M  V30 17 2 17 18
M  V30 18 1 18 19
M  V30 19 2 19 20
M  V30 20 1 20 21
M  V30 21 1 20 22
M  V30 22 2 22 23
M  V30 23 1 23 24
M  V30 24 1 24 25
M  V30 25 1 25 26
M  V30 26 1 25 27
M  V30 27 1 27 28
M  V30 28 2 15 29
M  V30 29 1 29 2
M  V30 30 1 29 11
M  V30 31 1 23 17
M  V30 32 1 1 30
M  V30 33 1 1 31
M  V30 34 1 1 32
M  V30 35 1 6 33
M  V30 36 1 7 34
M  V30 37 1 7 35
M  V30 38 1 8 36
M  V30 39 1 8 37
M  V30 40 1 9 38
M  V30 41 1 13 39
M  V30 42 1 16 40
M  V30 43 1 18 41
M  V30 44 1 19 42
M  V30 45 1 22 43
M  V30 46 1 25 44
M  V30 47 1 26 45
M  V30 48 1 26 46
M  V30 49 1 26 47
M  V30 50 1 27 48
M  V30 51 1 27 49
M  V30 END BOND
M  V30 END CTAB
M  END
>  <Dataset>  (439) 
ChEMBL_Kinases

>  <Ligand_Instance>  (439) 
nan

>  <PDB_ID>  (439) 
nan

>  <Standardized_SMILES>  (439) 
Cc1c(C(=O)NCCO)sc2ncnc(Nc3ccc(F)cc3OC(C)CF)c12

>  <Name>  (439) 
nan

>  <Pocket>  (439) 
nan

>  <ATP_Site>  (439) 
nan

>  <Peripheral>  (439) 
nan

>  <Num_H_Atoms_ProtBoundConf>  (439) 
nan

>  <Num_Resolved_Atoms>  (439) 
nan

>  <Num_Not_Resolved_Atoms>  (439) 
nan

$$$$
CHEMBL3702334
     RDKit          3D

  0  0  0  0  0  0  0  0  0  0999 V3000
M  V30 BEGIN CTAB
M  V30 COUNTS 46 48 0 0 0
M  V30 BEGIN ATOM
M  V30 1 C 0.916300 -0.953259 1.163728 0
M  V30 2 C 1.140845 0.498448 0.979628 0
M  V30 3 C 2.491716 0.934095 1.105020 0
M  V30 4 C 3.696242 0.115674 1.397593 0
M  V30 5 O 3.613464 -1.129882 1.562729 0
M  V30 6 N 4.924153 0.818272 1.477892 0
M  V30 7 C 6.180019 0.158804 1.758993 0
M  V30 8 C 6.056060 -0.501224 3.124849 0
M  V30 9 O 5.788442 0.438126 4.115258 0
M  V30 10 S 2.456811 2.694355 0.847346 0
M  V30 11 C 0.645403 2.779189 0.583235 0
M  V30 12 N -0.127537 3.864527 0.325345 0
M  V30 13 C -1.447277 3.672896 0.175469 0
M  V30 14 N -1.872650 2.415693 0.296921 0
M  V30 15 C -1.112274 1.351287 0.549805 0
M  V30 16 N -1.893241 0.179992 0.619381 0
M  V30 17 C -2.363437 -0.620835 -0.473820 0
M  V30 18 C -2.011911 -0.164399 -1.723309 0
M  V30 19 C -2.420130 -0.868371 -2.808765 0
M  V30 20 C -3.169566 -2.014403 -2.663653 0
M  V30 21 F -3.624592 -2.786367 -3.696353 0
M  V30 22 C -3.500981 -2.438414 -1.400380 0
M  V30 23 C -3.121877 -1.776063 -0.253586 0
M  V30 24 O -3.336724 -2.016599 1.070076 0
M  V30 25 C -4.011121 -3.030195 1.717871 0
M  V30 26 C -3.462028 -4.419119 1.500232 0
M  V30 27 F -2.138277 -4.468380 1.949311 0
M  V30 28 F -4.157564 -5.317282 2.297115 0
M  V30 29 C 0.242464 1.481735 0.713392 0
M  V30 30 H 1.426568 -1.551471 0.348261 0
M  V30 31 H -0.121108 -1.262978 1.160225 0
M  V30 32 H 1.361392 -1.223671 2.150524 0
M  V30 33 H 4.932504 1.864532 1.328946 0
M  V30 34 H 6.977912 0.917099 1.836603 0
M  V30 35 H 6.436152 -0.596642 0.984410 0
M  V30 36 H 7.033070 -0.967003 3.418878 0
M  V30 37 H 5.293948 -1.277644 3.140851 0
M  V30 38 H 5.528762 1.318160 3.735539 0
M  V30 39 H -2.040677 4.542425 -0.027498 0
M  V30 40 H -2.023015 0.078015 1.647942 0
M  V30 41 H -1.429278 0.722692 -1.914655 0
M  V30 42 H -2.169631 -0.552118 -3.822857 0
M  V30 43 H -4.084035 -3.309755 -1.239234 0
M  V30 44 H -5.122243 -3.012485 1.523131 0
M  V30 45 H -3.946917 -2.844632 2.834770 0
M  V30 46 H -3.545837 -4.789294 0.470742 0
M  V30 END ATOM
M  V30 BEGIN BOND
M  V30 1 1 1 2
M  V30 2 2 2 3
M  V30 3 1 3 4
M  V30 4 2 4 5
M  V30 5 1 4 6
M  V30 6 1 6 7
M  V30 7 1 7 8
M  V30 8 1 8 9
M  V30 9 1 3 10
M  V30 10 1 10 11
M  V30 11 2 11 12
M  V30 12 1 12 13
M  V30 13 2 13 14
M  V30 14 1 14 15
M  V30 15 1 15 16
M  V30 16 1 16 17
M  V30 17 2 17 18
M  V30 18 1 18 19
M  V30 19 2 19 20
M  V30 20 1 20 21
M  V30 21 1 20 22
M  V30 22 2 22 23
M  V30 23 1 23 24
M  V30 24 1 24 25
M  V30 25 1 25 26
M  V30 26 1 26 27
M  V30 27 1 26 28
M  V30 28 2 15 29
M  V30 29 1 29 2
M  V30 30 1 29 11
M  V30 31 1 23 17
M  V30 32 1 1 30
M  V30 33 1 1 31
M  V30 34 1 1 32
M  V30 35 1 6 33
M  V30 36 1 7 34
M  V30 37 1 7 35
M  V30 38 1 8 36
M  V30 39 1 8 37
M  V30 40 1 9 38
M  V30 41 1 13 39
M  V30 42 1 16 40
M  V30 43 1 18 41
M  V30 44 1 19 42
M  V30 45 1 22 43
M  V30 46 1 25 44
M  V30 47 1 25 45
M  V30 48 1 26 46
M  V30 END BOND
M  V30 END CTAB
M  END
>  <Dataset>  (440) 
ChEMBL_Kinases

>  <Ligand_Instance>  (440) 
nan

>  <PDB_ID>  (440) 
nan

>  <Standardized_SMILES>  (440) 
Cc1c(C(=O)NCCO)sc2ncnc(Nc3ccc(F)cc3OCC(F)F)c12

>  <Name>  (440) 
nan

>  <Pocket>  (440) 
nan

>  <ATP_Site>  (440) 
nan

>  <Peripheral>  (440) 
nan

>  <Num_H_Atoms_ProtBoundConf>  (440) 
nan

>  <Num_Resolved_Atoms>  (440) 
nan

>  <Num_Not_Resolved_Atoms>  (440) 
nan

$$$$
CHEMBL370263
     RDKit          3D

  0  0  0  0  0  0  0  0  0  0999 V3000
M  V30 BEGIN CTAB
M  V30 COUNTS 55 58 0 0 0
M  V30 BEGIN ATOM
M  V30 1 N 0.754393 -0.260673 4.825496 0
M  V30 2 C 1.804621 -0.895690 4.018427 0
M  V30 3 C 2.613930 0.131969 3.285901 0
M  V30 4 C 3.738325 -0.355647 2.458463 0
M  V30 5 N 3.522402 -1.238465 1.400406 0
M  V30 6 C 3.157839 -2.569903 1.586220 0
M  V30 7 C 1.944084 -3.052043 0.846285 0
M  V30 8 C 1.778200 -2.470518 -0.528203 0
M  V30 9 C 0.475358 -1.714724 -0.607168 0
M  V30 10 C 0.132674 -0.569247 0.089938 0
M  V30 11 C -1.145642 -0.169538 -0.244184 0
M  V30 12 C -1.814685 1.002595 0.308023 0
M  V30 13 C -1.194171 2.206230 0.032599 0
M  V30 14 C -1.654820 3.431655 0.456880 0
M  V30 15 N -2.786065 3.437175 1.186911 0
M  V30 16 C -3.439715 2.291473 1.489478 0
M  V30 17 C -2.974412 1.065004 1.062366 0
M  V30 18 C -1.586835 -1.113875 -1.179128 0
M  V30 19 C -2.909806 -1.073864 -1.806107 0
M  V30 20 C -3.437314 -0.082746 -2.620179 0
M  V30 21 C -4.717127 -0.232604 -3.118307 0
M  V30 22 C -5.444585 -1.360953 -2.798474 0
M  V30 23 F -6.702566 -1.489436 -3.299352 0
M  V30 24 C -4.971026 -2.377085 -1.994463 0
M  V30 25 C -3.672266 -2.203852 -1.501127 0
M  V30 26 N -0.598242 -2.007921 -1.363701 0
M  V30 27 C 2.888549 -1.581837 -0.956542 0
M  V30 28 C 3.491609 -0.715506 0.083494 0
M  V30 29 H 1.165363 0.356206 5.569228 0
M  V30 30 H 0.231821 -0.999475 5.346701 0
M  V30 31 H 1.222117 -1.531458 3.299106 0
M  V30 32 H 2.398541 -1.519839 4.705666 0
M  V30 33 H 1.935654 0.818169 2.712769 0
M  V30 34 H 3.071273 0.781147 4.098156 0
M  V30 35 H 4.295078 0.543993 2.025932 0
M  V30 36 H 4.538295 -0.797970 3.133655 0
M  V30 37 H 4.016869 -3.214344 1.200887 0
M  V30 38 H 3.031208 -2.811548 2.656224 0
M  V30 39 H 2.045093 -4.178195 0.774997 0
M  V30 40 H 1.002127 -2.915822 1.402779 0
M  V30 41 H 1.697394 -3.312352 -1.256789 0
M  V30 42 H 0.778885 -0.064393 0.793689 0
M  V30 43 H -0.268821 2.262373 -0.557609 0
M  V30 44 H -1.152066 4.364128 0.229142 0
M  V30 45 H -4.357828 2.287508 2.081196 0
M  V30 46 H -3.422348 0.095570 1.252116 0
M  V30 47 H -2.755468 0.744019 -2.786620 0
M  V30 48 H -5.077794 0.566680 -3.746318 0
M  V30 49 H -5.554423 -3.251238 -1.753524 0
M  V30 50 H -3.329217 -3.030906 -0.866511 0
M  V30 51 H -0.666274 -2.834417 -2.022956 0
M  V30 52 H 2.538000 -0.905439 -1.784480 0
M  V30 53 H 3.680161 -2.212017 -1.426172 0
M  V30 54 H 4.567658 -0.528048 -0.207309 0
M  V30 55 H 3.061078 0.316762 0.119341 0
M  V30 END ATOM
M  V30 BEGIN BOND
M  V30 1 1 1 2
M  V30 2 1 2 3
M  V30 3 1 3 4
M  V30 4 1 4 5
M  V30 5 1 5 6
M  V30 6 1 6 7
M  V30 7 1 7 8
M  V30 8 1 8 9
M  V30 9 2 9 10
M  V30 10 1 10 11
M  V30 11 1 11 12
M  V30 12 2 12 13
M  V30 13 1 13 14
M  V30 14 2 14 15
M  V30 15 1 15 16
M  V30 16 2 16 17
M  V30 17 2 11 18
M  V30 18 1 18 19
M  V30 19 2 19 20
M  V30 20 1 20 21
M  V30 21 2 21 22
M  V30 22 1 22 23
M  V30 23 1 22 24
M  V30 24 2 24 25
M  V30 25 1 18 26
M  V30 26 1 8 27
M  V30 27 1 27 28
M  V30 28 1 28 5
M  V30 29 1 26 9
M  V30 30 1 17 12
M  V30 31 1 25 19
M  V30 32 1 1 29
M  V30 33 1 1 30
M  V30 34 1 2 31
M  V30 35 1 2 32
M  V30 36 1 3 33
M  V30 37 1 3 34
M  V30 38 1 4 35
M  V30 39 1 4 36
M  V30 40 1 6 37
M  V30 41 1 6 38
M  V30 42 1 7 39
M  V30 43 1 7 40
M  V30 44 1 8 41
M  V30 45 1 10 42
M  V30 46 1 13 43
M  V30 47 1 14 44
M  V30 48 1 16 45
M  V30 49 1 17 46
M  V30 50 1 20 47
M  V30 51 1 21 48
M  V30 52 1 24 49
M  V30 53 1 25 50
M  V30 54 1 26 51
M  V30 55 1 27 52
M  V30 56 1 27 53
M  V30 57 1 28 54
M  V30 58 1 28 55
M  V30 END BOND
M  V30 END CTAB
M  END
>  <Dataset>  (441) 
ChEMBL_Kinases

>  <Ligand_Instance>  (441) 
nan

>  <PDB_ID>  (441) 
nan

>  <Standardized_SMILES>  (441) 
NCCCN1CCC(c2cc(-c3ccncc3)c(-c3ccc(F)cc3)[nH]2)CC1

>  <Name>  (441) 
nan

>  <Pocket>  (441) 
nan

>  <ATP_Site>  (441) 
nan

>  <Peripheral>  (441) 
nan

>  <Num_H_Atoms_ProtBoundConf>  (441) 
nan

>  <Num_Resolved_Atoms>  (441) 
nan

>  <Num_Not_Resolved_Atoms>  (441) 
nan

$$$$
CHEMBL5092416
     RDKit          3D

  0  0  0  0  0  0  0  0  0  0999 V3000
M  V30 BEGIN CTAB
M  V30 COUNTS 68 71 0 0 0
M  V30 BEGIN ATOM
M  V30 1 C 4.473037 -3.636129 3.097413 0
M  V30 2 C 5.015077 -4.684297 2.147802 0
M  V30 3 C 3.982794 -5.750164 1.857176 0
M  V30 4 C 2.743570 -5.193761 1.228838 0
M  V30 5 C 3.019924 -4.496994 -0.101251 0
M  V30 6 C 3.624318 -5.450018 -1.093147 0
M  V30 7 C 3.968957 -4.896240 -2.423439 0
M  V30 8 C 2.855495 -4.331055 -3.245028 0
M  V30 9 N 2.189861 -3.220364 -2.621725 0
M  V30 10 C 2.813588 -2.004711 -2.232246 0
M  V30 11 O 4.046824 -1.890789 -2.451312 0
M  V30 12 C 2.146423 -0.876001 -1.599428 0
M  V30 13 C 2.908243 0.224709 -1.292399 0
M  V30 14 C 2.373600 1.359930 -0.684756 0
M  V30 15 C 1.052219 1.433557 -0.361785 0
M  V30 16 C 0.292345 0.309938 -0.679203 0
M  V30 17 C 0.807905 -0.819497 -1.280151 0
M  V30 18 C -1.148065 0.135604 -0.436531 0
M  V30 19 O -1.719729 -0.942661 -0.804847 0
M  V30 20 C -2.051096 1.087471 0.204289 0
M  V30 21 C -3.197630 0.512630 0.686313 0
M  V30 22 C -4.117343 1.326322 1.310961 0
M  V30 23 C -3.986147 2.685370 1.496546 0
M  V30 24 N -4.904743 3.551262 2.097932 0
M  V30 25 C -6.315245 3.619067 2.139651 0
M  V30 26 C -7.185475 2.775155 1.490059 0
M  V30 27 C -8.556790 2.834791 1.543627 0
M  V30 28 C -9.133650 3.823297 2.312462 0
M  V30 29 F -10.472843 3.980212 2.441284 0
M  V30 30 C -8.297388 4.691881 2.980769 0
M  V30 31 C -6.929971 4.574577 2.882808 0
M  V30 32 F -6.209107 5.487057 3.585592 0
M  V30 33 C -2.785383 3.181398 0.972397 0
M  V30 34 C -1.815965 2.440346 0.336023 0
M  V30 35 C -0.663937 3.237980 -0.107244 0
M  V30 36 C 0.676920 2.707329 0.271461 0
M  V30 37 H 3.709629 -3.001838 2.598109 0
M  V30 38 H 4.070308 -4.096999 4.022211 0
M  V30 39 H 5.325134 -2.998225 3.401534 0
M  V30 40 H 5.396361 -4.183843 1.251616 0
M  V30 41 H 5.870916 -5.184949 2.658765 0
M  V30 42 H 3.678472 -6.179447 2.833052 0
M  V30 43 H 4.419184 -6.560179 1.274027 0
M  V30 44 H 2.179775 -4.544080 1.909073 0
M  V30 45 H 2.092515 -6.054343 0.982246 0
M  V30 46 H 3.680209 -3.631100 0.005372 0
M  V30 47 H 2.016509 -4.182184 -0.490665 0
M  V30 48 H 3.020374 -6.386919 -1.174643 0
M  V30 49 H 4.588059 -5.806366 -0.612510 0
M  V30 50 H 4.763542 -4.095647 -2.258382 0
M  V30 51 H 4.545702 -5.669210 -3.027704 0
M  V30 52 H 3.287274 -4.044079 -4.241349 0
M  V30 53 H 2.083043 -5.130386 -3.377161 0
M  V30 54 H 1.145078 -3.219607 -2.413381 0
M  V30 55 H 3.980117 0.297382 -1.497342 0
M  V30 56 H 2.987677 2.216240 -0.450559 0
M  V30 57 H 0.189646 -1.673974 -1.512722 0
M  V30 58 H -3.352882 -0.550496 0.567598 0
M  V30 59 H -4.977922 0.824735 1.675726 0
M  V30 60 H -4.394254 4.311727 2.637464 0
M  V30 61 H -6.803922 1.988726 0.864150 0
M  V30 62 H -9.196749 2.160766 1.024897 0
M  V30 63 H -8.753573 5.470722 3.586352 0
M  V30 64 H -2.575647 4.246516 1.063708 0
M  V30 65 H -0.747752 4.242535 0.371415 0
M  V30 66 H -0.676919 3.450572 -1.199658 0
M  V30 67 H 0.708967 2.543240 1.388150 0
M  V30 68 H 1.423314 3.472647 0.006471 0
M  V30 END ATOM
M  V30 BEGIN BOND
M  V30 1 1 1 2
M  V30 2 1 2 3
M  V30 3 1 3 4
M  V30 4 1 4 5
M  V30 5 1 5 6
M  V30 6 1 6 7
M  V30 7 1 7 8
M  V30 8 1 8 9
M  V30 9 1 9 10
M  V30 10 2 10 11
M  V30 11 1 10 12
M  V30 12 2 12 13
M  V30 13 1 13 14
M  V30 14 2 14 15
M  V30 15 1 15 16
M  V30 16 2 16 17
M  V30 17 1 16 18
M  V30 18 2 18 19
M  V30 19 1 18 20
M  V30 20 2 20 21
M  V30 21 1 21 22
M  V30 22 2 22 23
M  V30 23 1 23 24
M  V30 24 1 24 25
M  V30 25 2 25 26
M  V30 26 1 26 27
M  V30 27 2 27 28
M  V30 28 1 28 29
M  V30 29 1 28 30
M  V30 30 2 30 31
M  V30 31 1 31 32
M  V30 32 1 23 33
M  V30 33 2 33 34
M  V30 34 1 34 35
M  V30 35 1 35 36
M  V30 36 1 17 12
M  V30 37 1 34 20
M  V30 38 1 36 15
M  V30 39 1 31 25
M  V30 40 1 1 37
M  V30 41 1 1 38
M  V30 42 1 1 39
M  V30 43 1 2 40
M  V30 44 1 2 41
M  V30 45 1 3 42
M  V30 46 1 3 43
M  V30 47 1 4 44
M  V30 48 1 4 45
M  V30 49 1 5 46
M  V30 50 1 5 47
M  V30 51 1 6 48
M  V30 52 1 6 49
M  V30 53 1 7 50
M  V30 54 1 7 51
M  V30 55 1 8 52
M  V30 56 1 8 53
M  V30 57 1 9 54
M  V30 58 1 13 55
M  V30 59 1 14 56
M  V30 60 1 17 57
M  V30 61 1 21 58
M  V30 62 1 22 59
M  V30 63 1 24 60
M  V30 64 1 26 61
M  V30 65 1 27 62
M  V30 66 1 30 63
M  V30 67 1 33 64
M  V30 68 1 35 65
M  V30 69 1 35 66
M  V30 70 1 36 67
M  V30 71 1 36 68
M  V30 END BOND
M  V30 END CTAB
M  END
>  <Dataset>  (442) 
ChEMBL_Kinases

>  <Ligand_Instance>  (442) 
nan

>  <PDB_ID>  (442) 
nan

>  <Standardized_SMILES>  (442) 
CCCCCCCCNC(=O)c1ccc2c(c1)C(=O)c1ccc(Nc3ccc(F)cc3F)cc1CC2

>  <Name>  (442) 
nan

>  <Pocket>  (442) 
nan

>  <ATP_Site>  (442) 
nan

>  <Peripheral>  (442) 
nan

>  <Num_H_Atoms_ProtBoundConf>  (442) 
nan

>  <Num_Resolved_Atoms>  (442) 
nan

>  <Num_Not_Resolved_Atoms>  (442) 
nan

$$$$
CHEMBL5092458
     RDKit          3D

  0  0  0  0  0  0  0  0  0  0999 V3000
M  V30 BEGIN CTAB
M  V30 COUNTS 35 37 0 0 0
M  V30 BEGIN ATOM
M  V30 1 C -1.164648 -3.198386 2.012969 0
M  V30 2 N -1.119345 -1.781605 1.743215 0
M  V30 3 C 0.011033 -1.081737 1.918773 0
M  V30 4 N 1.312235 -1.363840 2.352109 0
M  V30 5 C 2.201928 -1.866621 1.345272 0
M  V30 6 C 2.362941 -1.008941 0.170423 0
M  V30 7 C 3.273358 0.009657 -0.033798 0
M  V30 8 C 3.279395 0.720534 -1.215808 0
M  V30 9 C 2.384590 0.443850 -2.231327 0
M  V30 10 C 1.454993 -0.567472 -2.071310 0
M  V30 11 C 1.472456 -1.260187 -0.880211 0
M  V30 12 C -0.290724 0.227066 1.565391 0
M  V30 13 C 0.548524 1.414246 1.558084 0
M  V30 14 N 1.221176 2.347476 1.568427 0
M  V30 15 C -1.608058 0.291751 1.180900 0
M  V30 16 C -2.441760 1.315067 0.735754 0
M  V30 17 N -1.897205 2.626851 0.617422 0
M  V30 18 N -3.733832 1.069890 0.422256 0
M  V30 19 C -4.213575 -0.203744 0.548253 0
M  V30 20 N -3.404621 -1.207388 0.981902 0
M  V30 21 C -2.113396 -0.982309 1.299401 0
M  V30 22 H -0.865851 -3.700236 1.062830 0
M  V30 23 H -2.179213 -3.498137 2.350988 0
M  V30 24 H -0.463949 -3.469072 2.828659 0
M  V30 25 H 1.482910 -1.168568 3.386289 0
M  V30 26 H 3.203497 -2.017597 1.850994 0
M  V30 27 H 1.923734 -2.886636 1.014842 0
M  V30 28 H 3.951150 0.189232 0.791038 0
M  V30 29 H 4.005767 1.518756 -1.352344 0
M  V30 30 H 2.347841 0.970062 -3.175481 0
M  V30 31 H 0.730875 -0.810191 -2.856908 0
M  V30 32 H 0.716219 -2.046799 -0.804370 0
M  V30 33 H -2.176427 3.561508 1.034180 0
M  V30 34 H -1.063825 2.845815 0.033778 0
M  V30 35 H -5.254030 -0.303750 0.276698 0
M  V30 END ATOM
M  V30 BEGIN BOND
M  V30 1 1 1 2
M  V30 2 1 2 3
M  V30 3 1 3 4
M  V30 4 1 4 5
M  V30 5 1 5 6
M  V30 6 2 6 7
M  V30 7 1 7 8
M  V30 8 2 8 9
M  V30 9 1 9 10
M  V30 10 2 10 11
M  V30 11 2 3 12
M  V30 12 1 12 13
M  V30 13 3 13 14
M  V30 14 1 12 15
M  V30 15 2 15 16
M  V30 16 1 16 17
M  V30 17 1 16 18
M  V30 18 2 18 19
M  V30 19 1 19 20
M  V30 20 2 20 21
M  V30 21 1 21 2
M  V30 22 1 11 6
M  V30 23 1 21 15
M  V30 24 1 1 22
M  V30 25 1 1 23
M  V30 26 1 1 24
M  V30 27 1 4 25
M  V30 28 1 5 26
M  V30 29 1 5 27
M  V30 30 1 7 28
M  V30 31 1 8 29
M  V30 32 1 9 30
M  V30 33 1 10 31
M  V30 34 1 11 32
M  V30 35 1 17 33
M  V30 36 1 17 34
M  V30 37 1 19 35
M  V30 END BOND
M  V30 END CTAB
M  END
>  <Dataset>  (443) 
ChEMBL_Kinases

>  <Ligand_Instance>  (443) 
nan

>  <PDB_ID>  (443) 
nan

>  <Standardized_SMILES>  (443) 
Cn1c(NCc2ccccc2)c(C#N)c2c(N)ncnc21

>  <Name>  (443) 
nan

>  <Pocket>  (443) 
nan

>  <ATP_Site>  (443) 
nan

>  <Peripheral>  (443) 
nan

>  <Num_H_Atoms_ProtBoundConf>  (443) 
nan

>  <Num_Resolved_Atoms>  (443) 
nan

>  <Num_Not_Resolved_Atoms>  (443) 
nan

$$$$
CHEMBL5092483
     RDKit          3D

  0  0  0  0  0  0  0  0  0  0999 V3000
M  V30 BEGIN CTAB
M  V30 COUNTS 37 39 0 0 0
M  V30 BEGIN ATOM
M  V30 1 C 0.599762 -5.494611 2.567913 0
M  V30 2 C 0.861092 -4.258630 2.914564 0
M  V30 3 C 1.073745 -2.867185 2.651422 0
M  V30 4 O 1.279558 -2.487063 3.837966 0
M  V30 5 N 1.113276 -1.920637 1.617741 0
M  V30 6 C 1.292401 -0.564372 2.104787 0
M  V30 7 O 1.752743 -0.501172 3.300039 0
M  V30 8 C 0.980404 0.685524 1.318181 0
M  V30 9 C -0.414996 0.748227 0.815980 0
M  V30 10 C -0.720232 2.174010 0.503357 0
M  V30 11 C -0.014365 2.875667 -0.475984 0
M  V30 12 C -0.263073 4.192230 -0.796543 0
M  V30 13 C -1.258902 4.871206 -0.125248 0
M  V30 14 C -1.964890 4.197483 0.842322 0
M  V30 15 Cl -3.239907 5.032019 1.716682 0
M  V30 16 C -1.719771 2.897665 1.159210 0
M  V30 17 S -0.733999 -0.190155 -0.695612 0
M  V30 18 C 0.204021 -1.713873 -0.725858 0
M  V30 19 C 0.166871 -2.318835 -1.963601 0
M  V30 20 C 0.868047 -3.517613 -2.137758 0
M  V30 21 C 1.608257 -4.141910 -1.126971 0
M  V30 22 C 1.654071 -3.548138 0.114377 0
M  V30 23 C 0.940032 -2.350948 0.251535 0
M  V30 24 H 0.391714 -6.006489 1.624616 0
M  V30 25 H 0.403527 -5.910167 1.583304 0
M  V30 26 H 0.839236 -4.954637 3.722192 0
M  V30 27 H 1.697353 0.846534 0.496937 0
M  V30 28 H 1.106586 1.522051 2.039032 0
M  V30 29 H -1.134416 0.459201 1.632246 0
M  V30 30 H 0.769924 2.336230 -1.002704 0
M  V30 31 H 0.332677 4.637099 -1.560393 0
M  V30 32 H -1.438426 5.904364 -0.391884 0
M  V30 33 H -2.249527 2.344408 1.905553 0
M  V30 34 H -0.380596 -1.902184 -2.796381 0
M  V30 35 H 0.864073 -4.033030 -3.109770 0
M  V30 36 H 2.125342 -5.056413 -1.312545 0
M  V30 37 H 2.206035 -3.942282 0.944266 0
M  V30 END ATOM
M  V30 BEGIN BOND
M  V30 1 2 1 2
M  V30 2 1 2 3
M  V30 3 2 3 4
M  V30 4 1 3 5
M  V30 5 1 5 6
M  V30 6 2 6 7
M  V30 7 1 6 8
M  V30 8 1 8 9
M  V30 9 1 9 10
M  V30 10 2 10 11
M  V30 11 1 11 12
M  V30 12 2 12 13
M  V30 13 1 13 14
M  V30 14 1 14 15
M  V30 15 2 14 16
M  V30 16 1 9 17
M  V30 17 1 17 18
M  V30 18 2 18 19
M  V30 19 1 19 20
M  V30 20 2 20 21
M  V30 21 1 21 22
M  V30 22 2 22 23
M  V30 23 1 23 5
M  V30 24 1 16 10
M  V30 25 1 23 18
M  V30 26 1 1 24
M  V30 27 1 1 25
M  V30 28 1 2 26
M  V30 29 1 8 27
M  V30 30 1 8 28
M  V30 31 1 9 29
M  V30 32 1 11 30
M  V30 33 1 12 31
M  V30 34 1 13 32
M  V30 35 1 16 33
M  V30 36 1 19 34
M  V30 37 1 20 35
M  V30 38 1 21 36
M  V30 39 1 22 37
M  V30 END BOND
M  V30 END CTAB
M  END
>  <Dataset>  (444) 
ChEMBL_Kinases

>  <Ligand_Instance>  (444) 
nan

>  <PDB_ID>  (444) 
nan

>  <Standardized_SMILES>  (444) 
C=CC(=O)N1C(=O)CC(c2cccc(Cl)c2)Sc2ccccc21

>  <Name>  (444) 
nan

>  <Pocket>  (444) 
nan

>  <ATP_Site>  (444) 
nan

>  <Peripheral>  (444) 
nan

>  <Num_H_Atoms_ProtBoundConf>  (444) 
nan

>  <Num_Resolved_Atoms>  (444) 
nan

>  <Num_Not_Resolved_Atoms>  (444) 
nan

$$$$
CHEMBL5092507
     RDKit          3D

  0  0  0  0  0  0  0  0  0  0999 V3000
M  V30 BEGIN CTAB
M  V30 COUNTS 46 49 0 0 0
M  V30 BEGIN ATOM
M  V30 1 C -2.850302 -4.355789 3.374602 0
M  V30 2 N -2.179274 -3.361407 2.568958 0
M  V30 3 C -0.754442 -3.472173 2.397203 0
M  V30 4 C -2.958362 -2.333641 1.990470 0
M  V30 5 O -4.126664 -2.596632 2.374540 0
M  V30 6 C -2.742864 -1.172583 1.147856 0
M  V30 7 C -1.545324 -0.743647 0.642513 0
M  V30 8 C -1.379862 0.360944 -0.153973 0
M  V30 9 C -0.056563 0.734178 -0.644306 0
M  V30 10 C 0.027639 1.363571 -1.870654 0
M  V30 11 N 1.270254 1.701083 -2.307828 0
M  V30 12 C 2.387928 1.447922 -1.602787 0
M  V30 13 C 2.283038 0.810973 -0.365451 0
M  V30 14 C 1.053356 0.439565 0.141238 0
M  V30 15 C 3.676435 0.689812 0.128814 0
M  V30 16 C 4.056836 1.545534 1.294560 0
M  V30 17 C 4.736666 0.330509 1.896921 0
M  V30 18 C 3.941231 -0.552010 0.956517 0
M  V30 19 C 4.539428 0.818164 -1.096135 0
M  V30 20 N 3.760122 1.731416 -1.910300 0
M  V30 21 C -2.512006 1.066265 -0.448196 0
M  V30 22 C -3.736313 0.665676 0.042209 0
M  V30 23 C -3.888811 -0.465153 0.854570 0
M  V30 24 N -5.211158 -0.759254 1.287525 0
M  V30 25 H -3.913654 -4.102277 3.496343 0
M  V30 26 H -2.825492 -5.303083 2.759670 0
M  V30 27 H -2.340532 -4.510152 4.349174 0
M  V30 28 H -0.480672 -3.641616 1.321942 0
M  V30 29 H -0.172461 -2.627669 2.804825 0
M  V30 30 H -0.386001 -4.381635 2.930811 0
M  V30 31 H -0.657568 -1.308912 0.882295 0
M  V30 32 H -0.873223 1.562132 -2.427991 0
M  V30 33 H 0.979266 -0.055072 1.103771 0
M  V30 34 H 3.228140 1.953822 1.894591 0
M  V30 35 H 4.795324 2.315955 0.995086 0
M  V30 36 H 5.831067 0.268599 1.721289 0
M  V30 37 H 4.509515 0.152785 2.967978 0
M  V30 38 H 4.591827 -1.285098 0.446897 0
M  V30 39 H 3.065717 -1.007731 1.439470 0
M  V30 40 H 4.688545 -0.157009 -1.602266 0
M  V30 41 H 5.512985 1.272441 -0.866053 0
M  V30 42 H 4.036248 2.462000 -2.592267 0
M  V30 43 H -2.430683 1.943264 -1.072341 0
M  V30 44 H -4.611935 1.265611 -0.223128 0
M  V30 45 H -5.523435 -0.671897 2.284600 0
M  V30 46 H -5.925670 -1.084250 0.574340 0
M  V30 END ATOM
M  V30 BEGIN BOND
M  V30 1 1 1 2
M  V30 2 1 2 3
M  V30 3 1 2 4
M  V30 4 2 4 5
M  V30 5 1 4 6
M  V30 6 2 6 7
M  V30 7 1 7 8
M  V30 8 1 8 9
M  V30 9 2 9 10
M  V30 10 1 10 11
M  V30 11 2 11 12
M  V30 12 1 12 13
M  V30 13 2 13 14
M  V30 14 1 13 15
M  V30 15 1 15 16
M  V30 16 1 16 17
M  V30 17 1 17 18
M  V30 18 1 15 19
M  V30 19 1 19 20
M  V30 20 2 8 21
M  V30 21 1 21 22
M  V30 22 2 22 23
M  V30 23 1 23 24
M  V30 24 1 23 6
M  V30 25 1 14 9
M  V30 26 1 18 15
M  V30 27 1 20 12
M  V30 28 1 1 25
M  V30 29 1 1 26
M  V30 30 1 1 27
M  V30 31 1 3 28
M  V30 32 1 3 29
M  V30 33 1 3 30
M  V30 34 1 7 31
M  V30 35 1 10 32
M  V30 36 1 14 33
M  V30 37 1 16 34
M  V30 38 1 16 35
M  V30 39 1 17 36
M  V30 40 1 17 37
M  V30 41 1 18 38
M  V30 42 1 18 39
M  V30 43 1 19 40
M  V30 44 1 19 41
M  V30 45 1 20 42
M  V30 46 1 21 43
M  V30 47 1 22 44
M  V30 48 1 24 45
M  V30 49 1 24 46
M  V30 END BOND
M  V30 END CTAB
M  END
>  <Dataset>  (445) 
ChEMBL_Kinases

>  <Ligand_Instance>  (445) 
nan

>  <PDB_ID>  (445) 
nan

>  <Standardized_SMILES>  (445) 
CN(C)C(=O)c1cc(-c2cnc3c(c2)C2(CCC2)CN3)ccc1N

>  <Name>  (445) 
nan

>  <Pocket>  (445) 
nan

>  <ATP_Site>  (445) 
nan

>  <Peripheral>  (445) 
nan

>  <Num_H_Atoms_ProtBoundConf>  (445) 
nan

>  <Num_Resolved_Atoms>  (445) 
nan

>  <Num_Not_Resolved_Atoms>  (445) 
nan

$$$$
CHEMBL3702836
     RDKit          3D

  0  0  0  0  0  0  0  0  0  0999 V3000
M  V30 BEGIN CTAB
M  V30 COUNTS 80 85 0 0 0
M  V30 BEGIN ATOM
M  V30 1 C 2.022898 -0.906760 3.227741 0
M  V30 2 N 2.096872 0.390543 3.804907 0
M  V30 3 C 1.576235 0.495051 5.125742 0
M  V30 4 C 2.337637 -0.415113 6.056087 0
M  V30 5 O 1.138406 -0.756851 6.646929 0
M  V30 6 C 0.400213 -0.309533 5.526921 0
M  V30 7 C 1.655871 1.422824 2.879990 0
M  V30 8 C 2.555080 1.333725 1.672558 0
M  V30 9 C 1.854200 2.791622 3.494635 0
M  V30 10 C 0.225778 1.149288 2.584153 0
M  V30 11 C -0.451556 1.812004 1.631376 0
M  V30 12 C 0.310318 2.799509 0.925754 0
M  V30 13 N 0.928676 3.585200 0.340028 0
M  V30 14 C -1.843693 1.474076 1.403133 0
M  V30 15 O -2.334693 0.565013 2.118389 0
M  V30 16 N -2.694769 2.076729 0.446640 0
M  V30 17 C -2.232368 3.171019 -0.409285 0
M  V30 18 C -3.444611 3.644620 -1.171314 0
M  V30 19 C -4.396687 2.464231 -1.142112 0
M  V30 20 C -4.064130 1.763816 0.139379 0 CFG=1
M  V30 21 C -4.456185 0.344589 0.238221 0
M  V30 22 N -3.731069 -0.547217 -0.639696 0
M  V30 23 N -2.577854 -1.166738 -0.457829 0
M  V30 24 C -2.213982 -1.908318 -1.505929 0
M  V30 25 C -0.958191 -2.648246 -1.444720 0
M  V30 26 C -0.767265 -3.999972 -1.627133 0
M  V30 27 C 0.517079 -4.475865 -1.513945 0
M  V30 28 C 1.638258 -3.725271 -1.233679 0
M  V30 29 O 2.885007 -4.333610 -1.146741 0
M  V30 30 C 3.714704 -4.473588 -2.251070 0
M  V30 31 C 3.807863 -5.497228 -3.174235 0
M  V30 32 C 4.724555 -5.403766 -4.197878 0
M  V30 33 C 5.558124 -4.304568 -4.324632 0
M  V30 34 C 5.475060 -3.266033 -3.401812 0
M  V30 35 C 4.538768 -3.375506 -2.367235 0
M  V30 36 C 1.444470 -2.368717 -1.050897 0
M  V30 37 C 0.162021 -1.853811 -1.157777 0
M  V30 38 F 0.059687 -0.500475 -0.961763 0
M  V30 39 C -3.215442 -1.757094 -2.446869 0
M  V30 40 C -3.268845 -2.340378 -3.684611 0
M  V30 41 N -2.264091 -3.190713 -4.170259 0
M  V30 42 N -4.358788 -2.055773 -4.451125 0
M  V30 43 C -5.289211 -1.223277 -3.921222 0
M  V30 44 N -5.188760 -0.675627 -2.698837 0
M  V30 45 C -4.142971 -0.907752 -1.881860 0
M  V30 46 H 1.439512 -0.866033 2.271194 0
M  V30 47 H 1.739532 -1.731149 3.883156 0
M  V30 48 H 3.067407 -1.156989 2.876498 0
M  V30 49 H 1.516835 1.515951 5.496685 0
M  V30 50 H 2.875682 -1.256103 5.609633 0
M  V30 51 H 3.046915 0.146613 6.705256 0
M  V30 52 H 0.092338 -1.173617 4.941849 0
M  V30 53 H -0.442496 0.309827 5.948820 0
M  V30 54 H 3.105851 2.281284 1.488489 0
M  V30 55 H 1.975148 0.998053 0.788031 0
M  V30 56 H 3.350738 0.590104 1.871935 0
M  V30 57 H 2.324250 3.468172 2.752831 0
M  V30 58 H 2.663324 2.676163 4.276345 0
M  V30 59 H 0.909856 3.164593 3.894999 0
M  V30 60 H -0.310724 0.377174 3.161223 0
M  V30 61 H -1.789438 3.985680 0.203600 0
M  V30 62 H -1.518496 2.737732 -1.131253 0
M  V30 63 H -3.871635 4.583633 -0.825121 0
M  V30 64 H -3.190274 3.776582 -2.258805 0
M  V30 65 H -5.434162 2.863522 -1.143168 0
M  V30 66 H -4.260306 1.794213 -1.986386 0
M  V30 67 H -4.663449 2.310683 0.933593 0
M  V30 68 H -4.435151 0.036046 1.304925 0
M  V30 69 H -5.554365 0.287764 -0.038823 0
M  V30 70 H -1.638751 -4.568561 -1.839467 0
M  V30 71 H 0.643168 -5.539532 -1.661377 0
M  V30 72 H 3.112979 -6.294300 -2.974253 0
M  V30 73 H 4.713580 -6.261761 -4.864870 0
M  V30 74 H 6.256590 -4.288826 -5.148859 0
M  V30 75 H 6.147862 -2.428190 -3.542801 0
M  V30 76 H 4.580484 -2.494865 -1.718440 0
M  V30 77 H 2.287116 -1.728987 -0.828774 0
M  V30 78 H -2.209476 -4.205009 -4.407149 0
M  V30 79 H -1.313045 -2.855973 -4.382938 0
M  V30 80 H -6.178603 -0.978500 -4.520890 0
M  V30 END ATOM
M  V30 BEGIN BOND
M  V30 1 1 1 2
M  V30 2 1 2 3
M  V30 3 1 3 4
M  V30 4 1 4 5
M  V30 5 1 5 6
M  V30 6 1 2 7
M  V30 7 1 7 8
M  V30 8 1 7 9
M  V30 9 1 7 10
M  V30 10 2 10 11
M  V30 11 1 11 12
M  V30 12 3 12 13
M  V30 13 1 11 14
M  V30 14 2 14 15
M  V30 15 1 14 16
M  V30 16 1 16 17
M  V30 17 1 17 18
M  V30 18 1 18 19
M  V30 19 1 19 20
M  V30 20 1 20 21
M  V30 21 1 21 22
M  V30 22 1 22 23
M  V30 23 2 23 24
M  V30 24 1 24 25
M  V30 25 2 25 26
M  V30 26 1 26 27
M  V30 27 2 27 28
M  V30 28 1 28 29
M  V30 29 1 29 30
M  V30 30 2 30 31
M  V30 31 1 31 32
M  V30 32 2 32 33
M  V30 33 1 33 34
M  V30 34 2 34 35
M  V30 35 1 28 36
M  V30 36 2 36 37
M  V30 37 1 37 38
M  V30 38 1 24 39
M  V30 39 2 39 40
M  V30 40 1 40 41
M  V30 41 1 40 42
M  V30 42 2 42 43
M  V30 43 1 43 44
M  V30 44 2 44 45
M  V30 45 1 6 3
M  V30 46 1 20 16
M  V30 47 1 45 22
M  V30 48 1 37 25
M  V30 49 1 45 39
M  V30 50 1 35 30
M  V30 51 1 1 46
M  V30 52 1 1 47
M  V30 53 1 1 48
M  V30 54 1 3 49
M  V30 55 1 4 50
M  V30 56 1 4 51
M  V30 57 1 6 52
M  V30 58 1 6 53
M  V30 59 1 8 54
M  V30 60 1 8 55
M  V30 61 1 8 56
M  V30 62 1 9 57
M  V30 63 1 9 58
M  V30 64 1 9 59
M  V30 65 1 10 60
M  V30 66 1 17 61
M  V30 67 1 17 62
M  V30 68 1 18 63
M  V30 69 1 18 64
M  V30 70 1 19 65
M  V30 71 1 19 66
M  V30 72 1 20 67 CFG=1
M  V30 73 1 21 68
M  V30 74 1 21 69
M  V30 75 1 26 70
M  V30 76 1 27 71
M  V30 77 1 31 72
M  V30 78 1 32 73
M  V30 79 1 33 74
M  V30 80 1 34 75
M  V30 81 1 35 76
M  V30 82 1 36 77
M  V30 83 1 41 78
M  V30 84 1 41 79
M  V30 85 1 43 80
M  V30 END BOND
M  V30 END CTAB
M  END
>  <Dataset>  (446) 
ChEMBL_Kinases

>  <Ligand_Instance>  (446) 
nan

>  <PDB_ID>  (446) 
nan

>  <Standardized_SMILES>  (446) 
CN(C1COC1)C(C)(C)/C=C(\C#N)C(=O)N1CCC[C@H]1Cn1nc(-c2ccc(Oc3ccccc3)cc2F)c2c(N)ncnc21

>  <Name>  (446) 
nan

>  <Pocket>  (446) 
nan

>  <ATP_Site>  (446) 
nan

>  <Peripheral>  (446) 
nan

>  <Num_H_Atoms_ProtBoundConf>  (446) 
nan

>  <Num_Resolved_Atoms>  (446) 
nan

>  <Num_Not_Resolved_Atoms>  (446) 
nan

$$$$
CHEMBL5092519
     RDKit          3D

  0  0  0  0  0  0  0  0  0  0999 V3000
M  V30 BEGIN CTAB
M  V30 COUNTS 30 32 0 0 0
M  V30 BEGIN ATOM
M  V30 1 C -1.819084 -1.683008 2.094586 0
M  V30 2 N -0.890391 -0.666325 1.670143 0
M  V30 3 C 0.095688 -0.874265 0.776907 0
M  V30 4 C 0.488173 -2.070678 0.038630 0
M  V30 5 C 0.583838 -3.302386 0.655341 0
M  V30 6 C 0.944453 -4.489458 0.051349 0
M  V30 7 C 1.238952 -4.436353 -1.308422 0
M  V30 8 C 1.157762 -3.228196 -1.969781 0
M  V30 9 C 0.792119 -2.057677 -1.329331 0
M  V30 10 C 0.761559 0.343401 0.640486 0
M  V30 11 C 1.895582 0.607966 -0.213686 0
M  V30 12 N 2.831161 0.810018 -0.899383 0
M  V30 13 C 0.163859 1.289752 1.463847 0
M  V30 14 C 0.477032 2.618595 1.659596 0
M  V30 15 N 1.554527 3.220021 0.968344 0
M  V30 16 N -0.304344 3.272725 2.535624 0
M  V30 17 C -1.322142 2.655546 3.171714 0
M  V30 18 N -1.595421 1.349661 2.950610 0
M  V30 19 C -0.875535 0.609225 2.096162 0
M  V30 20 H -2.850651 -1.236594 2.164173 0
M  V30 21 H -1.581187 -2.138548 3.076928 0
M  V30 22 H -1.891831 -2.522755 1.368045 0
M  V30 23 H 0.345127 -3.312841 1.730151 0
M  V30 24 H 0.971085 -5.384222 0.690531 0
M  V30 25 H 1.518060 -5.379888 -1.754945 0
M  V30 26 H 1.390518 -3.208158 -3.025815 0
M  V30 27 H 0.732202 -1.113746 -1.861741 0
M  V30 28 H 2.592043 3.181727 1.167823 0
M  V30 29 H 1.670400 3.832905 0.125891 0
M  V30 30 H -1.870680 3.296414 3.849127 0
M  V30 END ATOM
M  V30 BEGIN BOND
M  V30 1 1 1 2
M  V30 2 1 2 3
M  V30 3 1 3 4
M  V30 4 2 4 5
M  V30 5 1 5 6
M  V30 6 2 6 7
M  V30 7 1 7 8
M  V30 8 2 8 9
M  V30 9 2 3 10
M  V30 10 1 10 11
M  V30 11 3 11 12
M  V30 12 1 10 13
M  V30 13 2 13 14
M  V30 14 1 14 15
M  V30 15 1 14 16
M  V30 16 2 16 17
M  V30 17 1 17 18
M  V30 18 2 18 19
M  V30 19 1 19 2
M  V30 20 1 9 4
M  V30 21 1 19 13
M  V30 22 1 1 20
M  V30 23 1 1 21
M  V30 24 1 1 22
M  V30 25 1 5 23
M  V30 26 1 6 24
M  V30 27 1 7 25
M  V30 28 1 8 26
M  V30 29 1 9 27
M  V30 30 1 15 28
M  V30 31 1 15 29
M  V30 32 1 17 30
M  V30 END BOND
M  V30 END CTAB
M  END
>  <Dataset>  (447) 
ChEMBL_Kinases

>  <Ligand_Instance>  (447) 
nan

>  <PDB_ID>  (447) 
nan

>  <Standardized_SMILES>  (447) 
Cn1c(-c2ccccc2)c(C#N)c2c(N)ncnc21

>  <Name>  (447) 
nan

>  <Pocket>  (447) 
nan

>  <ATP_Site>  (447) 
nan

>  <Peripheral>  (447) 
nan

>  <Num_H_Atoms_ProtBoundConf>  (447) 
nan

>  <Num_Resolved_Atoms>  (447) 
nan

>  <Num_Not_Resolved_Atoms>  (447) 
nan

$$$$
CHEMBL5092545
     RDKit          3D

  0  0  0  0  0  0  0  0  0  0999 V3000
M  V30 BEGIN CTAB
M  V30 COUNTS 58 62 0 0 0
M  V30 BEGIN ATOM
M  V30 1 C 0.818048 -0.250445 4.534090 0
M  V30 2 C 1.784057 0.650592 3.872274 0
M  V30 3 C 2.802425 1.353082 4.489075 0
M  V30 4 N 3.629630 2.151475 3.779661 0
M  V30 5 C 3.477558 2.283020 2.430993 0
M  V30 6 N 4.323048 3.111971 1.638048 0
M  V30 7 C 5.514882 2.587352 1.058314 0
M  V30 8 C 5.929979 1.280865 1.213715 0
M  V30 9 C 7.118701 1.255000 0.477398 0
M  V30 10 N 7.357223 2.479338 -0.061278 0
M  V30 11 N 6.365106 3.302494 0.298398 0
M  V30 12 C 6.187162 4.720666 -0.041061 0
M  V30 13 N 2.491948 1.599104 1.855380 0
M  V30 14 C 1.622981 0.778678 2.503535 0
M  V30 15 C 0.618070 0.130914 1.654399 0
M  V30 16 C -0.095837 0.828411 0.669030 0
M  V30 17 C -0.927105 -0.112813 0.100343 0
M  V30 18 N -0.724062 -1.290386 0.703953 0
M  V30 19 C 0.214517 -1.187617 1.662758 0
M  V30 20 C -1.524561 -2.394885 0.225918 0
M  V30 21 O -1.294017 -3.496513 0.832897 0
M  V30 22 N -2.507389 -2.331430 -0.830108 0
M  V30 23 C -2.871816 -3.603178 -1.421973 0 CFG=2
M  V30 24 C -2.541197 -3.636910 -2.873768 0
M  V30 25 O -1.176053 -3.445166 -3.040938 0
M  V30 26 C -4.317512 -3.945158 -1.218111 0
M  V30 27 C -4.639263 -5.241877 -0.790173 0
M  V30 28 C -5.893011 -5.748446 -0.549970 0
M  V30 29 C -6.943985 -4.890068 -0.751433 0
M  V30 30 C -6.703292 -3.606715 -1.170001 0
M  V30 31 Cl -8.019496 -2.459767 -1.444908 0
M  V30 32 C -5.426030 -3.160791 -1.392753 0
M  V30 33 C -2.938227 -0.998213 -1.111650 0
M  V30 34 C -1.886173 0.064271 -0.976332 0
M  V30 35 H 0.721690 0.018265 5.627575 0
M  V30 36 H 1.112533 -1.309209 4.542307 0
M  V30 37 H -0.196325 -0.050019 4.126367 0
M  V30 38 H 2.894067 1.225232 5.559942 0
M  V30 39 H 4.030066 4.103008 1.506604 0
M  V30 40 H 5.459278 0.478531 1.763649 0
M  V30 41 H 7.758424 0.391930 0.351130 0
M  V30 42 H 7.184766 5.144493 -0.258496 0
M  V30 43 H 5.503387 4.785957 -0.937014 0
M  V30 44 H 5.658541 5.241918 0.779594 0
M  V30 45 H 0.023458 1.898004 0.442189 0
M  V30 46 H 0.572293 -1.968699 2.298994 0
M  V30 47 H -2.257410 -4.414455 -0.920213 0
M  V30 48 H -2.824370 -4.649448 -3.264819 0
M  V30 49 H -3.155890 -2.932492 -3.469171 0
M  V30 50 H -0.664106 -4.292635 -2.982560 0
M  V30 51 H -3.805508 -5.941749 -0.624583 0
M  V30 52 H -6.016620 -6.768310 -0.221779 0
M  V30 53 H -7.959307 -5.208409 -0.585724 0
M  V30 54 H -5.251577 -2.153545 -1.723330 0
M  V30 55 H -3.799387 -0.745511 -0.462154 0
M  V30 56 H -3.319777 -0.893149 -2.171955 0
M  V30 57 H -1.335664 0.181549 -1.952106 0
M  V30 58 H -2.414264 1.044036 -0.862904 0
M  V30 END ATOM
M  V30 BEGIN BOND
M  V30 1 1 1 2
M  V30 2 2 2 3
M  V30 3 1 3 4
M  V30 4 2 4 5
M  V30 5 1 5 6
M  V30 6 1 6 7
M  V30 7 2 7 8
M  V30 8 1 8 9
M  V30 9 2 9 10
M  V30 10 1 10 11
M  V30 11 1 11 12
M  V30 12 1 5 13
M  V30 13 2 13 14
M  V30 14 1 14 15
M  V30 15 1 15 16
M  V30 16 2 16 17
M  V30 17 1 17 18
M  V30 18 1 18 19
M  V30 19 1 18 20
M  V30 20 2 20 21
M  V30 21 1 20 22
M  V30 22 1 22 23
M  V30 23 1 23 24
M  V30 24 1 24 25
M  V30 25 1 23 26
M  V30 26 2 26 27
M  V30 27 1 27 28
M  V30 28 2 28 29
M  V30 29 1 29 30
M  V30 30 1 30 31
M  V30 31 2 30 32
M  V30 32 1 22 33
M  V30 33 1 33 34
M  V30 34 1 14 2
M  V30 35 2 19 15
M  V30 36 1 32 26
M  V30 37 1 11 7
M  V30 38 1 34 17
M  V30 39 1 1 35
M  V30 40 1 1 36
M  V30 41 1 1 37
M  V30 42 1 3 38
M  V30 43 1 6 39
M  V30 44 1 8 40
M  V30 45 1 9 41
M  V30 46 1 12 42
M  V30 47 1 12 43
M  V30 48 1 12 44
M  V30 49 1 16 45
M  V30 50 1 19 46
M  V30 51 1 23 47 CFG=1
M  V30 52 1 24 48
M  V30 53 1 24 49
M  V30 54 1 25 50
M  V30 55 1 27 51
M  V30 56 1 28 52
M  V30 57 1 29 53
M  V30 58 1 32 54
M  V30 59 1 33 55
M  V30 60 1 33 56
M  V30 61 1 34 57
M  V30 62 1 34 58
M  V30 END BOND
M  V30 END CTAB
M  END
>  <Dataset>  (448) 
ChEMBL_Kinases

>  <Ligand_Instance>  (448) 
nan

>  <PDB_ID>  (448) 
nan

>  <Standardized_SMILES>  (448) 
Cc1cnc(Nc2ccnn2C)nc1-c1cc2n(c1)C(=O)N([C@H](CO)c1cccc(Cl)c1)CC2

>  <Name>  (448) 
nan

>  <Pocket>  (448) 
nan

>  <ATP_Site>  (448) 
nan

>  <Peripheral>  (448) 
nan

>  <Num_H_Atoms_ProtBoundConf>  (448) 
nan

>  <Num_Resolved_Atoms>  (448) 
nan

>  <Num_Not_Resolved_Atoms>  (448) 
nan

$$$$
CHEMBL509256
     RDKit          3D

  0  0  0  0  0  0  0  0  0  0999 V3000
M  V30 BEGIN CTAB
M  V30 COUNTS 34 36 0 0 0
M  V30 BEGIN ATOM
M  V30 1 C -0.230567 0.789702 4.550325 0
M  V30 2 O -1.512171 0.228923 4.487423 0
M  V30 3 C -1.931716 -0.359613 3.304202 0
M  V30 4 C -1.121620 -0.407720 2.188195 0
M  V30 5 C -1.508310 -0.985351 0.996651 0
M  V30 6 C -0.555705 -0.964054 -0.092291 0
M  V30 7 O 0.611284 -0.401468 0.112694 0
M  V30 8 C 1.546028 -0.323606 -0.792405 0
M  V30 9 C 2.728259 0.307090 -0.410467 0
M  V30 10 C 3.763419 0.420720 -1.334205 0
M  V30 11 O 4.968729 1.037530 -1.019982 0
M  V30 12 C 3.645925 -0.078124 -2.623304 0
M  V30 13 C 2.474930 -0.703625 -3.003899 0
M  V30 14 C 1.458509 -0.809080 -2.079345 0
M  V30 15 C 0.250620 -1.413260 -2.354260 0
M  V30 16 O 0.035136 -1.899580 -3.489140 0
M  V30 17 C -0.692787 -1.461642 -1.354146 0
M  V30 18 O -1.884418 -2.079802 -1.688807 0
M  V30 19 C -2.769593 -1.508980 1.015878 0
M  V30 20 C -3.621936 -1.490982 2.096438 0
M  V30 21 C -3.197866 -0.904028 3.269631 0
M  V30 22 O -4.003108 -0.849117 4.399310 0
M  V30 23 H -0.057265 1.547059 3.731251 0
M  V30 24 H -0.025914 1.319101 5.484752 0
M  V30 25 H 0.568701 0.032775 4.413121 0
M  V30 26 H -0.135949 0.056755 2.331847 0
M  V30 27 H 2.952686 0.740457 0.561746 0
M  V30 28 H 5.836079 0.666947 -1.390107 0
M  V30 29 H 4.439104 0.000330 -3.355784 0
M  V30 30 H 2.309911 -1.116749 -3.989709 0
M  V30 31 H -1.913062 -2.951332 -2.207896 0
M  V30 32 H -3.147764 -1.971351 0.144873 0
M  V30 33 H -4.603508 -1.920359 2.048611 0
M  V30 34 H -4.677664 -0.091052 4.507040 0
M  V30 END ATOM
M  V30 BEGIN BOND
M  V30 1 1 1 2
M  V30 2 1 2 3
M  V30 3 2 3 4
M  V30 4 1 4 5
M  V30 5 1 5 6
M  V30 6 1 6 7
M  V30 7 1 7 8
M  V30 8 2 8 9
M  V30 9 1 9 10
M  V30 10 1 10 11
M  V30 11 2 10 12
M  V30 12 1 12 13
M  V30 13 2 13 14
M  V30 14 1 14 15
M  V30 15 2 15 16
M  V30 16 1 15 17
M  V30 17 1 17 18
M  V30 18 2 5 19
M  V30 19 1 19 20
M  V30 20 2 20 21
M  V30 21 1 21 22
M  V30 22 1 21 3
M  V30 23 2 17 6
M  V30 24 1 14 8
M  V30 25 1 1 23
M  V30 26 1 1 24
M  V30 27 1 1 25
M  V30 28 1 4 26
M  V30 29 1 9 27
M  V30 30 1 11 28
M  V30 31 1 12 29
M  V30 32 1 13 30
M  V30 33 1 18 31
M  V30 34 1 19 32
M  V30 35 1 20 33
M  V30 36 1 22 34
M  V30 END BOND
M  V30 END CTAB
M  END
>  <Dataset>  (449) 
ChEMBL_Kinases

>  <Ligand_Instance>  (449) 
nan

>  <PDB_ID>  (449) 
nan

>  <Standardized_SMILES>  (449) 
COc1cc(-c2oc3cc(O)ccc3c(=O)c2O)ccc1O

>  <Name>  (449) 
GERALDOL

>  <Pocket>  (449) 
nan

>  <ATP_Site>  (449) 
nan

>  <Peripheral>  (449) 
nan

>  <Num_H_Atoms_ProtBoundConf>  (449) 
nan

>  <Num_Resolved_Atoms>  (449) 
nan

>  <Num_Not_Resolved_Atoms>  (449) 
nan

$$$$
CHEMBL5092605
     RDKit          3D

  0  0  0  0  0  0  0  0  0  0999 V3000
M  V30 BEGIN CTAB
M  V30 COUNTS 27 29 0 0 0
M  V30 BEGIN ATOM
M  V30 1 N -0.870765 -4.480271 1.943821 0
M  V30 2 C -1.142084 -3.109397 1.654164 0
M  V30 3 C -0.134526 -2.262219 1.241463 0
M  V30 4 C -0.346236 -0.930126 0.949601 0
M  V30 5 C 0.692928 -0.002531 0.510477 0
M  V30 6 C 0.586261 1.337029 0.854450 0
M  V30 7 C 1.574633 2.214320 0.435896 0
M  V30 8 C 2.645904 1.779734 -0.306508 0
M  V30 9 O 3.659882 2.439564 -0.786117 0
M  V30 10 C 4.437217 1.582282 -1.437641 0
M  V30 11 N 3.905406 0.327779 -1.375278 0
M  V30 12 C 2.757945 0.450429 -0.651569 0
M  V30 13 C 1.779233 -0.415357 -0.236441 0
M  V30 14 C -1.635072 -0.446174 1.084547 0
M  V30 15 C -2.621901 -1.312284 1.497834 0
M  V30 16 N -3.946655 -0.806899 1.634480 0
M  V30 17 N -2.374149 -2.611896 1.774331 0
M  V30 18 H -0.062292 -4.919434 1.451303 0
M  V30 19 H -1.464785 -5.023599 2.627399 0
M  V30 20 H 0.876181 -2.635585 1.134034 0
M  V30 21 H -0.268426 1.682978 1.446723 0
M  V30 22 H 1.510782 3.282210 0.697189 0
M  V30 23 H 5.376109 1.766110 -1.970751 0
M  V30 24 H 1.883364 -1.453841 -0.516144 0
M  V30 25 H -1.888432 0.577421 0.878203 0
M  V30 26 H -4.704520 -0.498654 2.263592 0
M  V30 27 H -4.380343 -0.675954 0.679176 0
M  V30 END ATOM
M  V30 BEGIN BOND
M  V30 1 1 1 2
M  V30 2 2 2 3
M  V30 3 1 3 4
M  V30 4 1 4 5
M  V30 5 2 5 6
M  V30 6 1 6 7
M  V30 7 2 7 8
M  V30 8 1 8 9
M  V30 9 1 9 10
M  V30 10 2 10 11
M  V30 11 1 11 12
M  V30 12 2 12 13
M  V30 13 2 4 14
M  V30 14 1 14 15
M  V30 15 1 15 16
M  V30 16 2 15 17
M  V30 17 1 17 2
M  V30 18 1 13 5
M  V30 19 1 12 8
M  V30 20 1 1 18
M  V30 21 1 1 19
M  V30 22 1 3 20
M  V30 23 1 6 21
M  V30 24 1 7 22
M  V30 25 1 10 23
M  V30 26 1 13 24
M  V30 27 1 14 25
M  V30 28 1 16 26
M  V30 29 1 16 27
M  V30 END BOND
M  V30 END CTAB
M  END
>  <Dataset>  (450) 
ChEMBL_Kinases

>  <Ligand_Instance>  (450) 
nan

>  <PDB_ID>  (450) 
nan

>  <Standardized_SMILES>  (450) 
Nc1cc(-c2ccc3ocnc3c2)cc(N)n1

>  <Name>  (450) 
nan

>  <Pocket>  (450) 
nan

>  <ATP_Site>  (450) 
nan

>  <Peripheral>  (450) 
nan

>  <Num_H_Atoms_ProtBoundConf>  (450) 
nan

>  <Num_Resolved_Atoms>  (450) 
nan

>  <Num_Not_Resolved_Atoms>  (450) 
nan

$$$$
CHEMBL3702543
     RDKit          3D

  0  0  0  0  0  0  0  0  0  0999 V3000
M  V30 BEGIN CTAB
M  V30 COUNTS 37 38 0 0 0
M  V30 BEGIN ATOM
M  V30 1 C -0.515051 -3.304448 4.255875 0
M  V30 2 C -1.029437 -2.942728 2.883868 0
M  V30 3 O -0.081976 -3.060192 1.868161 0
M  V30 4 C 1.106082 -2.372458 1.809052 0
M  V30 5 O 1.300934 -1.580662 2.786929 0
M  V30 6 C 2.201342 -2.358882 0.853985 0
M  V30 7 C 2.206767 -1.491344 -0.190356 0
M  V30 8 C 1.252076 -0.485853 -0.598988 0
M  V30 9 C -0.079630 -0.811461 -0.685990 0
M  V30 10 C -0.962289 0.192321 -1.077459 0
M  V30 11 C -0.494585 1.471832 -1.366029 0
M  V30 12 N -1.490067 2.423240 -1.758033 0
M  V30 13 C -1.986210 3.085785 -0.610839 0
M  V30 14 C -3.032679 4.144354 -0.606257 0
M  V30 15 O -1.490419 2.741459 0.507373 0
M  V30 16 C 0.837817 1.785859 -1.275991 0
M  V30 17 C 1.688325 0.789647 -0.890726 0
M  V30 18 C 3.397790 -1.616027 -1.054848 0
M  V30 19 S 4.430228 -2.999426 -0.276513 0
M  V30 20 C 3.253282 -3.260746 1.038831 0
M  V30 21 N 3.442058 -4.219161 2.026440 0
M  V30 22 H -0.143232 -2.412248 4.815150 0
M  V30 23 H -1.375640 -3.694911 4.838366 0
M  V30 24 H 0.244690 -4.112308 4.224520 0
M  V30 25 H -1.870446 -3.617535 2.633489 0
M  V30 26 H -1.461114 -1.918660 2.960979 0
M  V30 27 H -0.511772 -1.774755 -0.484059 0
M  V30 28 H -2.024878 -0.036058 -1.155305 0
M  V30 29 H -1.891838 2.699906 -2.681065 0
M  V30 30 H -3.644041 4.077506 0.338247 0
M  V30 31 H -2.524763 5.117666 -0.646691 0
M  V30 32 H -3.681593 3.990396 -1.513455 0
M  V30 33 H 1.180114 2.782323 -1.503714 0
M  V30 34 H 2.759878 0.985452 -0.802783 0
M  V30 35 H 3.595573 -0.968607 -1.998708 0
M  V30 36 H 4.072296 -4.066055 2.855538 0
M  V30 37 H 2.920054 -5.139646 1.923975 0
M  V30 END ATOM
M  V30 BEGIN BOND
M  V30 1 1 1 2
M  V30 2 1 2 3
M  V30 3 1 3 4
M  V30 4 2 4 5
M  V30 5 1 4 6
M  V30 6 1 6 7
M  V30 7 1 7 8
M  V30 8 2 8 9
M  V30 9 1 9 10
M  V30 10 2 10 11
M  V30 11 1 11 12
M  V30 12 1 12 13
M  V30 13 1 13 14
M  V30 14 2 13 15
M  V30 15 1 11 16
M  V30 16 2 16 17
M  V30 17 2 7 18
M  V30 18 1 18 19
M  V30 19 1 19 20
M  V30 20 1 20 21
M  V30 21 2 20 6
M  V30 22 1 17 8
M  V30 23 1 1 22
M  V30 24 1 1 23
M  V30 25 1 1 24
M  V30 26 1 2 25
M  V30 27 1 2 26
M  V30 28 1 9 27
M  V30 29 1 10 28
M  V30 30 1 12 29
M  V30 31 1 14 30
M  V30 32 1 14 31
M  V30 33 1 14 32
M  V30 34 1 16 33
M  V30 35 1 17 34
M  V30 36 1 18 35
M  V30 37 1 21 36
M  V30 38 1 21 37
M  V30 END BOND
M  V30 END CTAB
M  END
>  <Dataset>  (451) 
ChEMBL_Kinases

>  <Ligand_Instance>  (451) 
nan

>  <PDB_ID>  (451) 
nan

>  <Standardized_SMILES>  (451) 
CCOC(=O)c1c(-c2ccc(NC(C)=O)cc2)csc1N

>  <Name>  (451) 
nan

>  <Pocket>  (451) 
nan

>  <ATP_Site>  (451) 
nan

>  <Peripheral>  (451) 
nan

>  <Num_H_Atoms_ProtBoundConf>  (451) 
nan

>  <Num_Resolved_Atoms>  (451) 
nan

>  <Num_Not_Resolved_Atoms>  (451) 
nan

$$$$
CHEMBL5092617
     RDKit          3D

  0  0  0  0  0  0  0  0  0  0999 V3000
M  V30 BEGIN CTAB
M  V30 COUNTS 64 68 0 0 0
M  V30 BEGIN ATOM
M  V30 1 C 3.227148 -4.827987 1.644923 0
M  V30 2 O 2.297277 -4.228742 0.738161 0
M  V30 3 C 2.412306 -2.854829 0.587520 0
M  V30 4 C 3.305408 -2.003842 1.200505 0
M  V30 5 C 3.325654 -0.645397 0.971343 0
M  V30 6 C 4.319870 0.166479 1.679186 0
M  V30 7 O 5.522840 -0.121539 1.431285 0
M  V30 8 N 3.755109 1.157778 2.539941 0
M  V30 9 C 2.340487 1.456860 2.796719 0
M  V30 10 C 2.153079 2.899194 2.334570 0
M  V30 11 O 3.005521 3.737194 3.013217 0
M  V30 12 C 3.870590 3.129548 3.882293 0
M  V30 13 C 4.684129 2.006379 3.282182 0
M  V30 14 C 2.401303 -0.128701 0.083250 0
M  V30 15 C 1.504471 -0.959476 -0.536489 0
M  V30 16 C 1.476539 -2.340080 -0.309859 0
M  V30 17 N 0.493334 -3.133545 -1.005673 0
M  V30 18 C -0.411715 -2.487870 -1.918340 0
M  V30 19 N -1.567167 -2.019148 -1.356934 0
M  V30 20 C -2.493658 -1.393435 -2.104678 0
M  V30 21 N -3.676761 -0.921772 -1.480530 0
M  V30 22 C -3.783493 -1.173325 -0.058748 0
M  V30 23 C -2.648391 -0.556653 0.731392 0
M  V30 24 C -3.128642 -0.033767 2.068260 0
M  V30 25 C -4.100114 -1.001214 2.715694 0
M  V30 26 C -5.307436 -1.294950 1.869562 0
M  V30 27 C -5.107472 -0.704336 0.507460 0
M  V30 28 C -2.209129 -1.258580 -3.445623 0
M  V30 29 C -2.963164 -0.673900 -4.421141 0
M  V30 30 C -4.238322 -0.033305 -4.394987 0
M  V30 31 N -5.271044 0.500870 -4.388706 0
M  V30 32 C -2.231452 -0.801857 -5.592132 0
M  V30 33 N -1.062122 -1.442452 -5.361105 0
M  V30 34 C -1.055632 -1.718792 -4.044756 0
M  V30 35 N -0.141130 -2.347914 -3.249867 0
M  V30 36 H 4.245743 -4.581420 1.234357 0
M  V30 37 H 3.057540 -5.915937 1.744935 0
M  V30 38 H 3.135479 -4.267110 2.595116 0
M  V30 39 H 3.998935 -2.493630 1.885061 0
M  V30 40 H 1.656441 0.807527 2.253311 0
M  V30 41 H 2.202168 1.358153 3.888327 0
M  V30 42 H 1.084551 3.154149 2.433979 0
M  V30 43 H 2.466781 2.918491 1.257425 0
M  V30 44 H 4.565973 3.945598 4.237571 0
M  V30 45 H 3.374885 2.790417 4.829422 0
M  V30 46 H 5.533394 2.334010 2.684004 0
M  V30 47 H 5.023608 1.393853 4.165980 0
M  V30 48 H 2.412377 0.939996 -0.101318 0
M  V30 49 H 0.807364 -0.500398 -1.219221 0
M  V30 50 H 0.480959 -4.148942 -0.814741 0
M  V30 51 H -4.474372 -0.419683 -1.912591 0
M  V30 52 H -3.740149 -2.272193 0.082618 0
M  V30 53 H -1.856440 -1.310284 0.948209 0
M  V30 54 H -2.192918 0.269788 0.184417 0
M  V30 55 H -3.577422 0.966204 2.025664 0
M  V30 56 H -2.241441 0.023044 2.731428 0
M  V30 57 H -3.598206 -1.964003 2.946897 0
M  V30 58 H -4.443564 -0.609577 3.708491 0
M  V30 59 H -5.439104 -2.402806 1.776055 0
M  V30 60 H -6.216436 -0.835185 2.345386 0
M  V30 61 H -5.944794 -0.966167 -0.157742 0
M  V30 62 H -5.034660 0.408932 0.626279 0
M  V30 63 H -2.469818 -0.470462 -6.607926 0
M  V30 64 H -0.304629 -1.684640 -6.045573 0
M  V30 END ATOM
M  V30 BEGIN BOND
M  V30 1 1 1 2
M  V30 2 1 2 3
M  V30 3 2 3 4
M  V30 4 1 4 5
M  V30 5 1 5 6
M  V30 6 2 6 7
M  V30 7 1 6 8
M  V30 8 1 8 9
M  V30 9 1 9 10
M  V30 10 1 10 11
M  V30 11 1 11 12
M  V30 12 1 12 13
M  V30 13 2 5 14
M  V30 14 1 14 15
M  V30 15 2 15 16
M  V30 16 1 16 17
M  V30 17 1 17 18
M  V30 18 2 18 19
M  V30 19 1 19 20
M  V30 20 1 20 21
M  V30 21 1 21 22
M  V30 22 1 22 23
M  V30 23 1 23 24
M  V30 24 1 24 25
M  V30 25 1 25 26
M  V30 26 1 26 27
M  V30 27 2 20 28
M  V30 28 1 28 29
M  V30 29 1 29 30
M  V30 30 3 30 31
M  V30 31 2 29 32
M  V30 32 1 32 33
M  V30 33 1 33 34
M  V30 34 2 34 35
M  V30 35 1 16 3
M  V30 36 1 35 18
M  V30 37 1 13 8
M  V30 38 1 27 22
M  V30 39 1 34 28
M  V30 40 1 1 36
M  V30 41 1 1 37
M  V30 42 1 1 38
M  V30 43 1 4 39
M  V30 44 1 9 40
M  V30 45 1 9 41
M  V30 46 1 10 42
M  V30 47 1 10 43
M  V30 48 1 12 44
M  V30 49 1 12 45
M  V30 50 1 13 46
M  V30 51 1 13 47
M  V30 52 1 14 48
M  V30 53 1 15 49
M  V30 54 1 17 50
M  V30 55 1 21 51
M  V30 56 1 22 52
M  V30 57 1 23 53
M  V30 58 1 23 54
M  V30 59 1 24 55
M  V30 60 1 24 56
M  V30 61 1 25 57
M  V30 62 1 25 58
M  V30 63 1 26 59
M  V30 64 1 26 60
M  V30 65 1 27 61
M  V30 66 1 27 62
M  V30 67 1 32 63
M  V30 68 1 33 64
M  V30 END BOND
M  V30 END CTAB
M  END
>  <Dataset>  (452) 
ChEMBL_Kinases

>  <Ligand_Instance>  (452) 
nan

>  <PDB_ID>  (452) 
nan

>  <Standardized_SMILES>  (452) 
COc1cc(C(=O)N2CCOCC2)ccc1Nc1nc(NC2CCCCC2)c2c(C#N)c[nH]c2n1

>  <Name>  (452) 
nan

>  <Pocket>  (452) 
nan

>  <ATP_Site>  (452) 
nan

>  <Peripheral>  (452) 
nan

>  <Num_H_Atoms_ProtBoundConf>  (452) 
nan

>  <Num_Resolved_Atoms>  (452) 
nan

>  <Num_Not_Resolved_Atoms>  (452) 
nan

$$$$
CHEMBL5092646
     RDKit          3D

  0  0  0  0  0  0  0  0  0  0999 V3000
M  V30 BEGIN CTAB
M  V30 COUNTS 43 46 0 0 0
M  V30 BEGIN ATOM
M  V30 1 C 0.105335 -4.905478 1.182342 0
M  V30 2 N 1.476084 -4.963217 1.607212 0
M  V30 3 C 1.917830 -6.308033 2.010597 0
M  V30 4 C 2.446265 -3.934179 1.697072 0
M  V30 5 O 3.599631 -4.287742 2.109008 0
M  V30 6 C 2.377855 -2.526830 1.404379 0
M  V30 7 C 1.284243 -1.815147 0.965470 0
M  V30 8 C 1.228485 -0.465812 0.691306 0
M  V30 9 C 0.005935 0.183317 0.229537 0
M  V30 10 C -0.921248 -0.503710 -0.561922 0
M  V30 11 N -2.052376 0.112495 -0.982619 0
M  V30 12 C -2.338509 1.390361 -0.668694 0
M  V30 13 C -1.417109 2.075590 0.118681 0
M  V30 14 C -0.248308 1.501768 0.576981 0
M  V30 15 C -1.993834 3.447864 0.300850 0
M  V30 16 C -1.268230 4.622067 -0.238476 0
M  V30 17 C -1.437797 4.411853 1.247152 0
M  V30 18 C -3.459095 3.260637 0.074799 0
M  V30 19 N -3.445069 2.243741 -0.985787 0
M  V30 20 C 2.393321 0.250904 0.875912 0
M  V30 21 C 3.534818 -0.385975 1.313722 0
M  V30 22 C 3.514086 -1.764088 1.572389 0
M  V30 23 N 4.765906 -2.275431 2.016204 0
M  V30 24 H -0.470911 -4.256804 1.855464 0
M  V30 25 H -0.314825 -5.934914 1.130429 0
M  V30 26 H -0.020794 -4.525493 0.126215 0
M  V30 27 H 1.454041 -7.074356 1.335761 0
M  V30 28 H 3.000412 -6.389101 1.895930 0
M  V30 29 H 1.552329 -6.415707 3.064076 0
M  V30 30 H 0.363482 -2.321919 0.809830 0
M  V30 31 H -0.718452 -1.543587 -0.834905 0
M  V30 32 H 0.445112 2.078649 1.192277 0
M  V30 33 H -0.305649 4.371718 -0.731234 0
M  V30 34 H -1.854517 5.440705 -0.713793 0
M  V30 35 H -2.123599 5.115849 1.761553 0
M  V30 36 H -0.546419 4.098803 1.844704 0
M  V30 37 H -3.932947 2.813799 0.979301 0
M  V30 38 H -3.975093 4.169947 -0.263369 0
M  V30 39 H -4.044861 2.081531 -1.818633 0
M  V30 40 H 2.421855 1.310161 0.680614 0
M  V30 41 H 4.410970 0.208042 1.442146 0
M  V30 42 H 4.942222 -2.339334 3.057422 0
M  V30 43 H 5.624392 -2.632325 1.518887 0
M  V30 END ATOM
M  V30 BEGIN BOND
M  V30 1 1 1 2
M  V30 2 1 2 3
M  V30 3 1 2 4
M  V30 4 2 4 5
M  V30 5 1 4 6
M  V30 6 2 6 7
M  V30 7 1 7 8
M  V30 8 1 8 9
M  V30 9 2 9 10
M  V30 10 1 10 11
M  V30 11 2 11 12
M  V30 12 1 12 13
M  V30 13 2 13 14
M  V30 14 1 13 15
M  V30 15 1 15 16
M  V30 16 1 16 17
M  V30 17 1 15 18
M  V30 18 1 18 19
M  V30 19 2 8 20
M  V30 20 1 20 21
M  V30 21 2 21 22
M  V30 22 1 22 23
M  V30 23 1 22 6
M  V30 24 1 14 9
M  V30 25 1 17 15
M  V30 26 1 19 12
M  V30 27 1 1 24
M  V30 28 1 1 25
M  V30 29 1 1 26
M  V30 30 1 3 27
M  V30 31 1 3 28
M  V30 32 1 3 29
M  V30 33 1 7 30
M  V30 34 1 10 31
M  V30 35 1 14 32
M  V30 36 1 16 33
M  V30 37 1 16 34
M  V30 38 1 17 35
M  V30 39 1 17 36
M  V30 40 1 18 37
M  V30 41 1 18 38
M  V30 42 1 19 39
M  V30 43 1 20 40
M  V30 44 1 21 41
M  V30 45 1 23 42
M  V30 46 1 23 43
M  V30 END BOND
M  V30 END CTAB
M  END
>  <Dataset>  (453) 
ChEMBL_Kinases

>  <Ligand_Instance>  (453) 
nan

>  <PDB_ID>  (453) 
nan

>  <Standardized_SMILES>  (453) 
CN(C)C(=O)c1cc(-c2cnc3c(c2)C2(CC2)CN3)ccc1N

>  <Name>  (453) 
nan

>  <Pocket>  (453) 
nan

>  <ATP_Site>  (453) 
nan

>  <Peripheral>  (453) 
nan

>  <Num_H_Atoms_ProtBoundConf>  (453) 
nan

>  <Num_Resolved_Atoms>  (453) 
nan

>  <Num_Not_Resolved_Atoms>  (453) 
nan

$$$$
CHEMBL5092736
     RDKit          3D

  0  0  0  0  0  0  0  0  0  0999 V3000
M  V30 BEGIN CTAB
M  V30 COUNTS 45 47 0 0 0
M  V30 BEGIN ATOM
M  V30 1 C 1.021711 -5.006337 0.252551 0
M  V30 2 C 1.019637 -3.770918 -0.636142 0
M  V30 3 C -0.208134 -2.934701 -0.426229 0
M  V30 4 C -0.274546 -1.710841 -1.283471 0
M  V30 5 N 0.796024 -0.767700 -1.130330 0
M  V30 6 C 1.932350 -0.592941 -1.820471 0
M  V30 7 C 2.481730 -1.290507 -2.996705 0
M  V30 8 C 3.390063 -2.448818 -2.677519 0
M  V30 9 N 2.621201 0.442556 -1.255230 0
M  V30 10 C 1.963753 0.948320 -0.214475 0
M  V30 11 C 2.213540 1.970819 0.674473 0
M  V30 12 C 1.256372 2.190895 1.643606 0
M  V30 13 C 0.105828 1.436915 1.731613 0
M  V30 14 C -0.902611 1.677335 2.761596 0
M  V30 15 C -0.826615 2.652493 3.734044 0
M  V30 16 C -1.779336 2.861757 4.688178 0
M  V30 17 N -1.654289 3.883458 5.672103 0
M  V30 18 N -2.875829 2.079592 4.704811 0
M  V30 19 C -3.020152 1.092732 3.772554 0
M  V30 20 N -4.133749 0.215872 3.702173 0
M  V30 21 C -2.035031 0.888963 2.799302 0
M  V30 22 N -0.072935 0.454590 0.830497 0
M  V30 23 C 0.820157 0.182288 -0.144551 0
M  V30 24 H 1.106030 -4.779051 1.318447 0
M  V30 25 H 1.919838 -5.586532 -0.052642 0
M  V30 26 H 0.127988 -5.599969 0.030431 0
M  V30 27 H 0.994004 -4.136885 -1.674538 0
M  V30 28 H 1.942087 -3.219486 -0.352442 0
M  V30 29 H -0.198625 -2.673876 0.673222 0
M  V30 30 H -1.112722 -3.573654 -0.569763 0
M  V30 31 H -1.221499 -1.160139 -0.992765 0
M  V30 32 H -0.423451 -2.012139 -2.348673 0
M  V30 33 H 1.655925 -1.641923 -3.665425 0
M  V30 34 H 3.077232 -0.586283 -3.620975 0
M  V30 35 H 4.340852 -2.402818 -3.269616 0
M  V30 36 H 2.937920 -3.438821 -2.815430 0
M  V30 37 H 3.735542 -2.325042 -1.622616 0
M  V30 38 H 3.119365 2.558366 0.598780 0
M  V30 39 H 1.461683 2.993887 2.334706 0
M  V30 40 H 0.036477 3.292575 3.746756 0
M  V30 41 H -2.421148 4.464967 6.044089 0
M  V30 42 H -0.812696 4.229497 6.184703 0
M  V30 43 H -5.141227 0.487138 3.741248 0
M  V30 44 H -4.006741 -0.832627 3.599340 0
M  V30 45 H -2.127139 0.113988 2.050932 0
M  V30 END ATOM
M  V30 BEGIN BOND
M  V30 1 1 1 2
M  V30 2 1 2 3
M  V30 3 1 3 4
M  V30 4 1 4 5
M  V30 5 1 5 6
M  V30 6 1 6 7
M  V30 7 1 7 8
M  V30 8 2 6 9
M  V30 9 1 9 10
M  V30 10 2 10 11
M  V30 11 1 11 12
M  V30 12 2 12 13
M  V30 13 1 13 14
M  V30 14 2 14 15
M  V30 15 1 15 16
M  V30 16 1 16 17
M  V30 17 2 16 18
M  V30 18 1 18 19
M  V30 19 1 19 20
M  V30 20 2 19 21
M  V30 21 1 13 22
M  V30 22 2 22 23
M  V30 23 1 23 5
M  V30 24 1 23 10
M  V30 25 1 21 14
M  V30 26 1 1 24
M  V30 27 1 1 25
M  V30 28 1 1 26
M  V30 29 1 2 27
M  V30 30 1 2 28
M  V30 31 1 3 29
M  V30 32 1 3 30
M  V30 33 1 4 31
M  V30 34 1 4 32
M  V30 35 1 7 33
M  V30 36 1 7 34
M  V30 37 1 8 35
M  V30 38 1 8 36
M  V30 39 1 8 37
M  V30 40 1 11 38
M  V30 41 1 12 39
M  V30 42 1 15 40
M  V30 43 1 17 41
M  V30 44 1 17 42
M  V30 45 1 20 43
M  V30 46 1 20 44
M  V30 47 1 21 45
M  V30 END BOND
M  V30 END CTAB
M  END
>  <Dataset>  (454) 
ChEMBL_Kinases

>  <Ligand_Instance>  (454) 
nan

>  <PDB_ID>  (454) 
nan

>  <Standardized_SMILES>  (454) 
CCCCn1c(CC)nc2ccc(-c3cc(N)nc(N)c3)nc21

>  <Name>  (454) 
nan

>  <Pocket>  (454) 
nan

>  <ATP_Site>  (454) 
nan

>  <Peripheral>  (454) 
nan

>  <Num_H_Atoms_ProtBoundConf>  (454) 
nan

>  <Num_Resolved_Atoms>  (454) 
nan

>  <Num_Not_Resolved_Atoms>  (454) 
nan

$$$$
CHEMBL5092751
     RDKit          3D

  0  0  0  0  0  0  0  0  0  0999 V3000
M  V30 BEGIN CTAB
M  V30 COUNTS 59 62 0 0 0
M  V30 BEGIN ATOM
M  V30 1 O 1.990452 1.655240 8.049696 0
M  V30 2 C 2.117945 0.623905 7.316303 0
M  V30 3 O 1.674416 -0.604125 7.795473 0
M  V30 4 C 2.728855 0.675516 5.950780 0
M  V30 5 C 3.128072 2.102370 5.654744 0
M  V30 6 C 3.749253 2.193006 4.283157 0 CFG=2
M  V30 7 N 2.811984 1.759591 3.286335 0
M  V30 8 C 2.406350 2.665381 2.267526 0
M  V30 9 O 2.915830 3.802305 2.325483 0
M  V30 10 C 1.461198 2.324833 1.210021 0
M  V30 11 C 1.189249 3.359062 0.306901 0
M  V30 12 C 0.304328 3.121758 -0.727258 0
M  V30 13 C -0.293656 1.882792 -0.855993 0
M  V30 14 C 0.006954 0.896084 0.059399 0
M  V30 15 C 0.890577 1.082872 1.118693 0
M  V30 16 C -0.538491 -0.464255 0.061250 0
M  V30 17 O -0.442034 -1.070794 1.182014 0
M  V30 18 C -1.158137 -1.154945 -1.068084 0
M  V30 19 C -1.572775 -2.416235 -0.691541 0
M  V30 20 C -2.184615 -3.189706 -1.678757 0
M  V30 21 C -2.373286 -2.734599 -2.966904 0
M  V30 22 N -2.995446 -3.537937 -3.959816 0
M  V30 23 C -3.409456 -4.871593 -3.736830 0
M  V30 24 C -4.679525 -5.401231 -3.826143 0
M  V30 25 C -4.919724 -6.736980 -3.578353 0
M  V30 26 C -3.879884 -7.600484 -3.227393 0
M  V30 27 F -4.171442 -8.912449 -2.992993 0
M  V30 28 C -2.608741 -7.062181 -3.139810 0
M  V30 29 C -2.362237 -5.726018 -3.386683 0
M  V30 30 F -1.036236 -5.439575 -3.238550 0
M  V30 31 C -1.938734 -1.465109 -3.286767 0
M  V30 32 C -1.325685 -0.644830 -2.361980 0
M  V30 33 C -0.945615 0.663308 -2.925763 0
M  V30 34 C -1.196560 1.820159 -2.005306 0
M  V30 35 C 4.958079 1.334090 4.232709 0
M  V30 36 O 5.015765 0.387647 3.376996 0
M  V30 37 O 6.171709 0.673172 4.371907 0
M  V30 38 H 0.894299 -0.672536 8.426008 0
M  V30 39 H 1.984613 0.292029 5.228288 0
M  V30 40 H 3.616850 0.019285 5.866634 0
M  V30 41 H 3.834098 2.450685 6.408900 0
M  V30 42 H 2.272297 2.787225 5.655225 0
M  V30 43 H 4.076043 3.242228 4.137499 0
M  V30 44 H 2.426226 0.792833 3.299830 0
M  V30 45 H 1.639520 4.340208 0.378719 0
M  V30 46 H 0.035336 3.868093 -1.474267 0
M  V30 47 H 1.110524 0.303332 1.819267 0
M  V30 48 H -1.434607 -2.789838 0.309647 0
M  V30 49 H -2.505587 -4.174863 -1.370196 0
M  V30 50 H -3.168126 -3.150474 -4.910951 0
M  V30 51 H -5.440471 -4.678517 -4.102386 0
M  V30 52 H -5.960729 -7.064849 -3.674221 0
M  V30 53 H -1.875606 -7.814261 -2.861876 0
M  V30 54 H -2.099066 -1.126354 -4.312520 0
M  V30 55 H -1.486052 0.803724 -3.883142 0
M  V30 56 H 0.129949 0.657085 -3.196368 0
M  V30 57 H -1.221992 2.737277 -2.607844 0
M  V30 58 H -2.232697 1.705047 -1.600460 0
M  V30 59 H 6.585313 0.467659 5.279294 0
M  V30 END ATOM
M  V30 BEGIN BOND
M  V30 1 2 1 2
M  V30 2 1 2 3
M  V30 3 1 2 4
M  V30 4 1 4 5
M  V30 5 1 5 6
M  V30 6 1 6 7
M  V30 7 1 7 8
M  V30 8 2 8 9
M  V30 9 1 8 10
M  V30 10 2 10 11
M  V30 11 1 11 12
M  V30 12 2 12 13
M  V30 13 1 13 14
M  V30 14 2 14 15
M  V30 15 1 14 16
M  V30 16 2 16 17
M  V30 17 1 16 18
M  V30 18 2 18 19
M  V30 19 1 19 20
M  V30 20 2 20 21
M  V30 21 1 21 22
M  V30 22 1 22 23
M  V30 23 2 23 24
M  V30 24 1 24 25
M  V30 25 2 25 26
M  V30 26 1 26 27
M  V30 27 1 26 28
M  V30 28 2 28 29
M  V30 29 1 29 30
M  V30 30 1 21 31
M  V30 31 2 31 32
M  V30 32 1 32 33
M  V30 33 1 33 34
M  V30 34 1 6 35
M  V30 35 2 35 36
M  V30 36 1 35 37
M  V30 37 1 15 10
M  V30 38 1 32 18
M  V30 39 1 34 13
M  V30 40 1 29 23
M  V30 41 1 3 38
M  V30 42 1 4 39
M  V30 43 1 4 40
M  V30 44 1 5 41
M  V30 45 1 5 42
M  V30 46 1 6 43 CFG=3
M  V30 47 1 7 44
M  V30 48 1 11 45
M  V30 49 1 12 46
M  V30 50 1 15 47
M  V30 51 1 19 48
M  V30 52 1 20 49
M  V30 53 1 22 50
M  V30 54 1 24 51
M  V30 55 1 25 52
M  V30 56 1 28 53
M  V30 57 1 31 54
M  V30 58 1 33 55
M  V30 59 1 33 56
M  V30 60 1 34 57
M  V30 61 1 34 58
M  V30 62 1 37 59
M  V30 END BOND
M  V30 END CTAB
M  END
>  <Dataset>  (455) 
ChEMBL_Kinases

>  <Ligand_Instance>  (455) 
nan

>  <PDB_ID>  (455) 
nan

>  <Standardized_SMILES>  (455) 
O=C(O)CC[C@H](NC(=O)c1ccc2c(c1)C(=O)c1ccc(Nc3ccc(F)cc3F)cc1CC2)C(=O)O

>  <Name>  (455) 
nan

>  <Pocket>  (455) 
nan

>  <ATP_Site>  (455) 
nan

>  <Peripheral>  (455) 
nan

>  <Num_H_Atoms_ProtBoundConf>  (455) 
nan

>  <Num_Resolved_Atoms>  (455) 
nan

>  <Num_Not_Resolved_Atoms>  (455) 
nan

$$$$
CHEMBL5092805
     RDKit          3D

  0  0  0  0  0  0  0  0  0  0999 V3000
M  V30 BEGIN CTAB
M  V30 COUNTS 43 45 0 0 0
M  V30 BEGIN ATOM
M  V30 1 C -0.439492 -4.669179 -1.288165 0
M  V30 2 C 0.163556 -4.928647 0.080788 0
M  V30 3 C 1.581102 -4.482176 0.001027 0
M  V30 4 C 2.698644 -5.289759 -0.103949 0
M  V30 5 N 3.793566 -4.507126 -0.149813 0
M  V30 6 C 3.399687 -3.211583 -0.076222 0
M  V30 7 N 4.053586 -2.027977 -0.077590 0
M  V30 8 C 3.410932 -0.850145 0.008754 0
M  V30 9 C 2.037065 -0.782650 0.104313 0
M  V30 10 C 1.424604 0.536921 0.193719 0
M  V30 11 C 1.815638 1.571653 -0.627462 0
M  V30 12 C 1.239582 2.829474 -0.549296 0
M  V30 13 C 0.233817 3.097689 0.371449 0
M  V30 14 N -0.343756 4.396077 0.434141 0
M  V30 15 C -0.127001 2.050863 1.166632 0
M  V30 16 C -1.177895 2.353930 2.121589 0
M  V30 17 O -1.688509 3.509573 2.182069 0
M  V30 18 N -1.978411 1.831162 3.150420 0
M  V30 19 C -2.829356 2.934570 3.582414 0
M  V30 20 C -2.115057 0.546603 3.801806 0
M  V30 21 C 0.426666 0.789658 1.112644 0
M  V30 22 F 0.035456 -0.221755 1.924800 0
M  V30 23 C 1.315556 -1.965511 0.110248 0
M  V30 24 C 2.005101 -3.168325 0.019838 0
M  V30 25 H -1.348517 -5.286506 -1.419287 0
M  V30 26 H -0.635399 -3.588271 -1.414225 0
M  V30 27 H 0.281540 -5.042311 -2.070175 0
M  V30 28 H 0.063741 -5.991413 0.300073 0
M  V30 29 H -0.420391 -4.361234 0.838045 0
M  V30 30 H 2.670941 -6.372382 -0.141271 0
M  V30 31 H 4.785251 -4.850539 -0.229534 0
M  V30 32 H 3.986124 0.055448 0.002717 0
M  V30 33 H 2.605388 1.354569 -1.348242 0
M  V30 34 H 1.588001 3.613905 -1.224945 0
M  V30 35 H -1.105882 4.323705 -0.302039 0
M  V30 36 H 0.026545 5.121578 1.108453 0
M  V30 37 H -2.228226 3.753586 4.007903 0
M  V30 38 H -3.497220 3.230873 2.749606 0
M  V30 39 H -3.513877 2.599202 4.402560 0
M  V30 40 H -2.383887 -0.274525 3.104192 0
M  V30 41 H -1.143628 0.329952 4.284775 0
M  V30 42 H -2.943533 0.578263 4.562018 0
M  V30 43 H 0.252914 -1.916621 0.184012 0
M  V30 END ATOM
M  V30 BEGIN BOND
M  V30 1 1 1 2
M  V30 2 1 2 3
M  V30 3 2 3 4
M  V30 4 1 4 5
M  V30 5 1 5 6
M  V30 6 2 6 7
M  V30 7 1 7 8
M  V30 8 2 8 9
M  V30 9 1 9 10
M  V30 10 2 10 11
M  V30 11 1 11 12
M  V30 12 2 12 13
M  V30 13 1 13 14
M  V30 14 1 13 15
M  V30 15 1 15 16
M  V30 16 2 16 17
M  V30 17 1 16 18
M  V30 18 1 18 19
M  V30 19 1 18 20
M  V30 20 2 15 21
M  V30 21 1 21 22
M  V30 22 1 9 23
M  V30 23 2 23 24
M  V30 24 1 24 3
M  V30 25 1 24 6
M  V30 26 1 21 10
M  V30 27 1 1 25
M  V30 28 1 1 26
M  V30 29 1 1 27
M  V30 30 1 2 28
M  V30 31 1 2 29
M  V30 32 1 4 30
M  V30 33 1 5 31
M  V30 34 1 8 32
M  V30 35 1 11 33
M  V30 36 1 12 34
M  V30 37 1 14 35
M  V30 38 1 14 36
M  V30 39 1 19 37
M  V30 40 1 19 38
M  V30 41 1 19 39
M  V30 42 1 20 40
M  V30 43 1 20 41
M  V30 44 1 20 42
M  V30 45 1 23 43
M  V30 END BOND
M  V30 END CTAB
M  END
>  <Dataset>  (456) 
ChEMBL_Kinases

>  <Ligand_Instance>  (456) 
nan

>  <PDB_ID>  (456) 
nan

>  <Standardized_SMILES>  (456) 
CCc1c[nH]c2ncc(-c3ccc(N)c(C(=O)N(C)C)c3F)cc12

>  <Name>  (456) 
nan

>  <Pocket>  (456) 
nan

>  <ATP_Site>  (456) 
nan

>  <Peripheral>  (456) 
nan

>  <Num_H_Atoms_ProtBoundConf>  (456) 
nan

>  <Num_Resolved_Atoms>  (456) 
nan

>  <Num_Not_Resolved_Atoms>  (456) 
nan

$$$$
CHEMBL5092807
     RDKit          3D

  0  0  0  0  0  0  0  0  0  0999 V3000
M  V30 BEGIN CTAB
M  V30 COUNTS 57 61 0 0 0
M  V30 BEGIN ATOM
M  V30 1 O 0.554838 -2.787640 1.841310 0
M  V30 2 C 0.217761 -1.680560 1.406916 0
M  V30 3 C 1.063339 -0.536427 1.738647 0
M  V30 4 C 1.862283 -0.797364 2.822710 0
M  V30 5 C 2.720295 0.179865 3.268970 0
M  V30 6 C 2.843269 1.443851 2.691133 0
M  V30 7 N 3.750595 2.414866 3.171851 0
M  V30 8 C 3.695280 3.820345 3.296971 0
M  V30 9 C 2.646098 4.651835 2.995354 0
M  V30 10 C 2.644270 6.023040 3.121014 0
M  V30 11 C 3.824586 6.548195 3.595651 0
M  V30 12 F 3.908382 7.911072 3.751232 0
M  V30 13 C 4.933438 5.809609 3.928195 0
M  V30 14 C 4.824152 4.451287 3.763073 0
M  V30 15 F 5.957491 3.752012 4.109437 0
M  V30 16 C 2.011670 1.633269 1.608317 0
M  V30 17 C 1.131735 0.692646 1.115930 0
M  V30 18 C 0.340455 1.135165 -0.065156 0
M  V30 19 C -1.136078 0.928641 0.088665 0
M  V30 20 C -1.592972 -0.459253 0.015748 0
M  V30 21 C -2.752722 -0.627526 -0.717496 0
M  V30 22 C -3.300154 -1.899573 -0.865449 0
M  V30 23 C -2.687338 -3.012603 -0.278352 0
M  V30 24 C -3.416126 -4.248892 -0.548428 0
M  V30 25 O -4.513738 -4.363190 0.083847 0
M  V30 26 N -2.815759 -5.152257 -1.468892 0
M  V30 27 C -1.548448 -4.926926 -2.141952 0
M  V30 28 C -1.768881 -4.905838 -3.624831 0
M  V30 29 C -3.185283 -5.166113 -4.030020 0
M  V30 30 C -3.831429 -6.310444 -3.302858 0
M  V30 31 C -3.398551 -6.417134 -1.854264 0
M  V30 32 C -1.530625 -2.839658 0.451967 0
M  V30 33 C -1.003640 -1.579024 0.588443 0
M  V30 34 H 1.794522 -1.761764 3.293812 0
M  V30 35 H 3.343399 -0.054305 4.132528 0
M  V30 36 H 4.626398 1.913609 3.479805 0
M  V30 37 H 1.735079 4.201077 2.637283 0
M  V30 38 H 1.767762 6.599829 2.858051 0
M  V30 39 H 5.822001 6.286124 4.293191 0
M  V30 40 H 2.000872 2.537199 1.054099 0
M  V30 41 H 0.704763 0.633663 -0.997884 0
M  V30 42 H 0.522788 2.216982 -0.213677 0
M  V30 43 H -1.426091 1.431704 1.050471 0
M  V30 44 H -1.610047 1.466631 -0.774137 0
M  V30 45 H -3.169142 0.268805 -1.139946 0
M  V30 46 H -4.189151 -1.907457 -1.448114 0
M  V30 47 H -0.915507 -5.825328 -1.928303 0
M  V30 48 H -1.094502 -4.006854 -1.746988 0
M  V30 49 H -1.104575 -5.597147 -4.176462 0
M  V30 50 H -1.495665 -3.877717 -3.983468 0
M  V30 51 H -3.206920 -5.373227 -5.120170 0
M  V30 52 H -3.795494 -4.243932 -3.882830 0
M  V30 53 H -4.938997 -6.091809 -3.274039 0
M  V30 54 H -3.714212 -7.268086 -3.846174 0
M  V30 55 H -2.674294 -7.266391 -1.801870 0
M  V30 56 H -4.239968 -6.727279 -1.198277 0
M  V30 57 H -1.129197 -3.753357 0.866504 0
M  V30 END ATOM
M  V30 BEGIN BOND
M  V30 1 2 1 2
M  V30 2 1 2 3
M  V30 3 2 3 4
M  V30 4 1 4 5
M  V30 5 2 5 6
M  V30 6 1 6 7
M  V30 7 1 7 8
M  V30 8 2 8 9
M  V30 9 1 9 10
M  V30 10 2 10 11
M  V30 11 1 11 12
M  V30 12 1 11 13
M  V30 13 2 13 14
M  V30 14 1 14 15
M  V30 15 1 6 16
M  V30 16 2 16 17
M  V30 17 1 17 18
M  V30 18 1 18 19
M  V30 19 1 19 20
M  V30 20 2 20 21
M  V30 21 1 21 22
M  V30 22 2 22 23
M  V30 23 1 23 24
M  V30 24 2 24 25
M  V30 25 1 24 26
M  V30 26 1 26 27
M  V30 27 1 27 28
M  V30 28 1 28 29
M  V30 29 1 29 30
M  V30 30 1 30 31
M  V30 31 1 23 32
M  V30 32 2 32 33
M  V30 33 1 33 2
M  V30 34 1 17 3
M  V30 35 1 33 20
M  V30 36 1 14 8
M  V30 37 1 31 26
M  V30 38 1 4 34
M  V30 39 1 5 35
M  V30 40 1 7 36
M  V30 41 1 9 37
M  V30 42 1 10 38
M  V30 43 1 13 39
M  V30 44 1 16 40
M  V30 45 1 18 41
M  V30 46 1 18 42
M  V30 47 1 19 43
M  V30 48 1 19 44
M  V30 49 1 21 45
M  V30 50 1 22 46
M  V30 51 1 27 47
M  V30 52 1 27 48
M  V30 53 1 28 49
M  V30 54 1 28 50
M  V30 55 1 29 51
M  V30 56 1 29 52
M  V30 57 1 30 53
M  V30 58 1 30 54
M  V30 59 1 31 55
M  V30 60 1 31 56
M  V30 61 1 32 57
M  V30 END BOND
M  V30 END CTAB
M  END
>  <Dataset>  (457) 
ChEMBL_Kinases

>  <Ligand_Instance>  (457) 
nan

>  <PDB_ID>  (457) 
nan

>  <Standardized_SMILES>  (457) 
O=C1c2ccc(Nc3ccc(F)cc3F)cc2CCc2ccc(C(=O)N3CCCCC3)cc21

>  <Name>  (457) 
nan

>  <Pocket>  (457) 
nan

>  <ATP_Site>  (457) 
nan

>  <Peripheral>  (457) 
nan

>  <Num_H_Atoms_ProtBoundConf>  (457) 
nan

>  <Num_Resolved_Atoms>  (457) 
nan

>  <Num_Not_Resolved_Atoms>  (457) 
nan

$$$$
CHEMBL5092813
     RDKit          3D

  0  0  0  0  0  0  0  0  0  0999 V3000
M  V30 BEGIN CTAB
M  V30 COUNTS 54 58 0 0 0
M  V30 BEGIN ATOM
M  V30 1 C -0.744643 2.449246 3.509616 0
M  V30 2 C 0.643804 2.304810 3.025875 0
M  V30 3 C 1.594061 3.224857 3.419414 0
M  V30 4 N 2.868373 3.169162 3.030318 0
M  V30 5 C 3.267668 2.172054 2.211864 0
M  V30 6 N 4.572405 1.946124 1.693710 0
M  V30 7 C 5.213316 2.391484 0.506637 0
M  V30 8 C 6.512587 2.062264 0.165844 0
M  V30 9 C 6.701623 2.703427 -1.039443 0
M  V30 10 N 5.575235 3.353326 -1.355306 0
M  V30 11 N 4.654638 3.177357 -0.427465 0
M  V30 12 C 3.302642 3.712368 -0.395485 0
M  V30 13 N 2.366116 1.243219 1.798721 0
M  V30 14 C 1.075805 1.282158 2.180293 0
M  V30 15 C 0.072551 0.308266 1.763146 0
M  V30 16 C -1.235096 0.502581 1.307938 0
M  V30 17 C -1.730864 -0.756103 1.055283 0
M  V30 18 N -0.776855 -1.652113 1.341300 0
M  V30 19 C 0.345209 -1.063050 1.777789 0
M  V30 20 C -1.373352 -2.897872 1.040011 0
M  V30 21 O -0.787021 -3.989222 1.184187 0
M  V30 22 N -2.700940 -2.823200 0.558687 0
M  V30 23 C -3.752354 -3.677960 0.075379 0 CFG=2
M  V30 24 C -4.039438 -4.700176 1.187961 0
M  V30 25 C -3.419549 -4.493370 -1.115509 0
M  V30 26 C -4.195547 -4.316282 -2.254067 0
M  V30 27 C -4.073325 -4.980677 -3.454640 0
M  V30 28 C -3.079320 -5.928217 -3.558564 0
M  V30 29 C -2.263598 -6.168204 -2.477146 0
M  V30 30 Cl -0.989087 -7.354483 -2.548082 0
M  V30 31 C -2.466586 -5.453720 -1.325426 0
M  V30 32 C -2.984216 -1.374260 0.585729 0
M  V30 33 H -0.734374 2.896038 4.542219 0
M  V30 34 H -1.299124 1.508270 3.596684 0
M  V30 35 H -1.232352 3.198708 2.865077 0
M  V30 36 H 1.315790 4.034646 4.071483 0
M  V30 37 H 5.048080 1.335745 2.389904 0
M  V30 38 H 7.253010 1.468180 0.653285 0
M  V30 39 H 7.551941 2.751255 -1.704164 0
M  V30 40 H 2.517540 2.954090 -0.411024 0
M  V30 41 H 3.138088 4.350860 0.508453 0
M  V30 42 H 3.141364 4.408392 -1.257966 0
M  V30 43 H -1.668700 1.497675 1.212994 0
M  V30 44 H 1.259446 -1.578898 2.073310 0
M  V30 45 H -4.682901 -3.103614 -0.155707 0
M  V30 46 H -3.107980 -4.966026 1.709584 0
M  V30 47 H -4.832605 -4.271593 1.819503 0
M  V30 48 H -4.457533 -5.643479 0.778349 0
M  V30 49 H -5.007508 -3.587249 -2.267146 0
M  V30 50 H -4.710506 -4.796998 -4.306534 0
M  V30 51 H -2.894081 -6.506860 -4.450399 0
M  V30 52 H -1.826024 -5.676348 -0.494424 0
M  V30 53 H -3.866845 -1.162074 1.219044 0
M  V30 54 H -3.168008 -1.007967 -0.452393 0
M  V30 END ATOM
M  V30 BEGIN BOND
M  V30 1 1 1 2
M  V30 2 2 2 3
M  V30 3 1 3 4
M  V30 4 2 4 5
M  V30 5 1 5 6
M  V30 6 1 6 7
M  V30 7 2 7 8
M  V30 8 1 8 9
M  V30 9 2 9 10
M  V30 10 1 10 11
M  V30 11 1 11 12
M  V30 12 1 5 13
M  V30 13 2 13 14
M  V30 14 1 14 15
M  V30 15 1 15 16
M  V30 16 2 16 17
M  V30 17 1 17 18
M  V30 18 1 18 19
M  V30 19 1 18 20
M  V30 20 2 20 21
M  V30 21 1 20 22
M  V30 22 1 22 23
M  V30 23 1 23 24
M  V30 24 1 23 25
M  V30 25 2 25 26
M  V30 26 1 26 27
M  V30 27 2 27 28
M  V30 28 1 28 29
M  V30 29 1 29 30
M  V30 30 2 29 31
M  V30 31 1 22 32
M  V30 32 1 14 2
M  V30 33 2 19 15
M  V30 34 1 31 25
M  V30 35 1 11 7
M  V30 36 1 32 17
M  V30 37 1 1 33
M  V30 38 1 1 34
M  V30 39 1 1 35
M  V30 40 1 3 36
M  V30 41 1 6 37
M  V30 42 1 8 38
M  V30 43 1 9 39
M  V30 44 1 12 40
M  V30 45 1 12 41
M  V30 46 1 12 42
M  V30 47 1 16 43
M  V30 48 1 19 44
M  V30 49 1 23 45 CFG=3
M  V30 50 1 24 46
M  V30 51 1 24 47
M  V30 52 1 24 48
M  V30 53 1 26 49
M  V30 54 1 27 50
M  V30 55 1 28 51
M  V30 56 1 31 52
M  V30 57 1 32 53
M  V30 58 1 32 54
M  V30 END BOND
M  V30 END CTAB
M  END
>  <Dataset>  (458) 
ChEMBL_Kinases

>  <Ligand_Instance>  (458) 
nan

>  <PDB_ID>  (458) 
nan

>  <Standardized_SMILES>  (458) 
Cc1cnc(Nc2ccnn2C)nc1-c1cc2n(c1)C(=O)N([C@H](C)c1cccc(Cl)c1)C2

>  <Name>  (458) 
nan

>  <Pocket>  (458) 
nan

>  <ATP_Site>  (458) 
nan

>  <Peripheral>  (458) 
nan

>  <Num_H_Atoms_ProtBoundConf>  (458) 
nan

>  <Num_Resolved_Atoms>  (458) 
nan

>  <Num_Not_Resolved_Atoms>  (458) 
nan

$$$$
CHEMBL5092818
     RDKit          3D

  0  0  0  0  0  0  0  0  0  0999 V3000
M  V30 BEGIN CTAB
M  V30 COUNTS 60 64 0 0 0
M  V30 BEGIN ATOM
M  V30 1 O 1.985224 -0.485708 4.216880 0
M  V30 2 C 2.494966 -0.350745 3.070514 0
M  V30 3 N 3.918045 -0.209838 3.093574 0
M  V30 4 C 4.396552 -0.268578 4.452619 0
M  V30 5 C 5.895521 -0.119648 4.466476 0
M  V30 6 C 6.279389 1.191065 3.894923 0
M  V30 7 C 6.355658 2.276858 4.775911 0
M  V30 8 C 6.694013 3.589287 4.476088 0
M  V30 9 C 6.986005 3.816144 3.126661 0
M  V30 10 C 6.931953 2.800190 2.205223 0
M  V30 11 C 6.585655 1.536486 2.609186 0
M  V30 12 C 1.653835 -0.348844 1.876990 0
M  V30 13 C 2.264199 -0.268475 0.618543 0
M  V30 14 C 1.486228 -0.266274 -0.523086 0
M  V30 15 C 0.117086 -0.345600 -0.412869 0
M  V30 16 C -0.472257 -0.424890 0.853665 0
M  V30 17 C 0.287165 -0.428129 2.030781 0
M  V30 18 C -1.909911 -0.511949 1.183107 0
M  V30 19 O -2.276952 -0.164924 2.339669 0
M  V30 20 C -2.922396 -0.986555 0.216233 0
M  V30 21 C -4.192224 -0.907325 0.771272 0
M  V30 22 C -5.331956 -1.294556 0.091364 0
M  V30 23 C -5.134095 -1.780035 -1.207587 0
M  V30 24 N -6.291849 -2.169341 -1.937248 0
M  V30 25 C -6.347374 -3.027637 -3.104029 0
M  V30 26 C -6.803651 -2.708960 -4.354480 0
M  V30 27 C -6.769335 -3.721619 -5.286582 0
M  V30 28 C -6.306852 -5.004160 -5.011458 0
M  V30 29 F -6.292497 -5.969892 -5.958485 0
M  V30 30 C -5.870165 -5.232598 -3.734819 0
M  V30 31 C -5.868095 -4.255974 -2.718631 0
M  V30 32 F -5.394113 -4.707664 -1.547035 0
M  V30 33 C -3.887852 -1.870753 -1.786464 0
M  V30 34 C -2.776722 -1.470550 -1.070040 0
M  V30 35 C -1.494270 -1.607306 -1.812850 0
M  V30 36 C -0.650049 -0.350891 -1.692507 0
M  V30 37 H 4.357567 -0.093104 2.156599 0
M  V30 38 H 4.110163 -1.249138 4.896417 0
M  V30 39 H 3.901130 0.512266 5.089128 0
M  V30 40 H 6.302042 -0.177200 5.502061 0
M  V30 41 H 6.293631 -0.950576 3.826024 0
M  V30 42 H 6.132549 2.101652 5.822641 0
M  V30 43 H 6.718850 4.335280 5.253065 0
M  V30 44 H 7.255200 4.807577 2.824509 0
M  V30 45 H 7.152590 2.939206 1.149131 0
M  V30 46 H 6.546975 0.727936 1.891471 0
M  V30 47 H 3.309931 -0.208035 0.447489 0
M  V30 48 H 1.905710 -0.204693 -1.532709 0
M  V30 49 H -0.225959 -0.491799 2.969360 0
M  V30 50 H -4.320478 -0.525723 1.788738 0
M  V30 51 H -6.291060 -1.222859 0.542055 0
M  V30 52 H -7.271569 -1.919635 -1.782845 0
M  V30 53 H -7.141575 -1.696905 -4.476130 0
M  V30 54 H -7.133969 -3.447639 -6.276591 0
M  V30 55 H -5.514011 -6.259588 -3.554597 0
M  V30 56 H -3.723554 -2.241510 -2.785935 0
M  V30 57 H -0.868586 -2.449493 -1.483639 0
M  V30 58 H -1.723053 -1.755598 -2.878456 0
M  V30 59 H -1.256759 0.569879 -1.826022 0
M  V30 60 H 0.102029 -0.395878 -2.508403 0
M  V30 END ATOM
M  V30 BEGIN BOND
M  V30 1 2 1 2
M  V30 2 1 2 3
M  V30 3 1 3 4
M  V30 4 1 4 5
M  V30 5 1 5 6
M  V30 6 2 6 7
M  V30 7 1 7 8
M  V30 8 2 8 9
M  V30 9 1 9 10
M  V30 10 2 10 11
M  V30 11 1 2 12
M  V30 12 2 12 13
M  V30 13 1 13 14
M  V30 14 2 14 15
M  V30 15 1 15 16
M  V30 16 2 16 17
M  V30 17 1 16 18
M  V30 18 2 18 19
M  V30 19 1 18 20
M  V30 20 2 20 21
M  V30 21 1 21 22
M  V30 22 2 22 23
M  V30 23 1 23 24
M  V30 24 1 24 25
M  V30 25 2 25 26
M  V30 26 1 26 27
M  V30 27 2 27 28
M  V30 28 1 28 29
M  V30 29 1 28 30
M  V30 30 2 30 31
M  V30 31 1 31 32
M  V30 32 1 23 33
M  V30 33 2 33 34
M  V30 34 1 34 35
M  V30 35 1 35 36
M  V30 36 1 11 6
M  V30 37 1 17 12
M  V30 38 1 34 20
M  V30 39 1 36 15
M  V30 40 1 31 25
M  V30 41 1 3 37
M  V30 42 1 4 38
M  V30 43 1 4 39
M  V30 44 1 5 40
M  V30 45 1 5 41
M  V30 46 1 7 42
M  V30 47 1 8 43
M  V30 48 1 9 44
M  V30 49 1 10 45
M  V30 50 1 11 46
M  V30 51 1 13 47
M  V30 52 1 14 48
M  V30 53 1 17 49
M  V30 54 1 21 50
M  V30 55 1 22 51
M  V30 56 1 24 52
M  V30 57 1 26 53
M  V30 58 1 27 54
M  V30 59 1 30 55
M  V30 60 1 33 56
M  V30 61 1 35 57
M  V30 62 1 35 58
M  V30 63 1 36 59
M  V30 64 1 36 60
M  V30 END BOND
M  V30 END CTAB
M  END
>  <Dataset>  (459) 
ChEMBL_Kinases

>  <Ligand_Instance>  (459) 
nan

>  <PDB_ID>  (459) 
nan

>  <Standardized_SMILES>  (459) 
O=C(NCCc1ccccc1)c1ccc2c(c1)C(=O)c1ccc(Nc3ccc(F)cc3F)cc1CC2

>  <Name>  (459) 
nan

>  <Pocket>  (459) 
nan

>  <ATP_Site>  (459) 
nan

>  <Peripheral>  (459) 
nan

>  <Num_H_Atoms_ProtBoundConf>  (459) 
nan

>  <Num_Resolved_Atoms>  (459) 
nan

>  <Num_Not_Resolved_Atoms>  (459) 
nan

$$$$
CHEMBL5092826
     RDKit          3D

  0  0  0  0  0  0  0  0  0  0999 V3000
M  V30 BEGIN CTAB
M  V30 COUNTS 91 96 0 0 0
M  V30 BEGIN ATOM
M  V30 1 C 2.669027 -3.706073 2.760299 0
M  V30 2 C 2.603288 -2.684119 1.652617 0
M  V30 3 C 3.737611 -1.708696 1.770321 0
M  V30 4 C 4.784534 -1.901218 0.861382 0
M  V30 5 C 5.859940 -1.041625 0.909737 0
M  V30 6 C 5.936023 0.007188 1.829888 0
M  V30 7 C 4.888235 0.179458 2.719923 0
M  V30 8 C 4.817147 1.238382 3.759131 0
M  V30 9 C 5.117620 0.602723 5.095025 0
M  V30 10 C 3.812480 -0.674785 2.677042 0
M  V30 11 N 2.630530 -0.655199 3.500255 0
M  V30 12 C 1.593698 0.116659 2.859796 0
M  V30 13 O 1.942308 0.595960 1.751161 0
M  V30 14 C 0.315894 0.259985 3.510856 0
M  V30 15 C -0.039431 -0.156783 4.772197 0
M  V30 16 C -1.363580 0.142752 5.002723 0
M  V30 17 N -1.875140 0.743884 3.919847 0
M  V30 18 C -3.107210 1.278677 3.455090 0
M  V30 19 N -3.702921 0.409003 2.587227 0
M  V30 20 C -4.896873 0.677346 1.988522 0
M  V30 21 N -5.424564 -0.307047 1.072869 0
M  V30 22 C -4.636715 -0.887505 0.003937 0
M  V30 23 C -3.337904 -0.425948 -0.142613 0
M  V30 24 C -2.519283 -0.939513 -1.160073 0
M  V30 25 C -2.963937 -1.899545 -2.033480 0
M  V30 26 N -2.068176 -2.388863 -3.029910 0
M  V30 27 C -2.406458 -2.995847 -4.302451 0
M  V30 28 C -1.243351 -2.865171 -5.226553 0
M  V30 29 N -0.618219 -1.556172 -5.133658 0
M  V30 30 C 0.510480 -1.489466 -6.062264 0
M  V30 31 C 1.076810 -0.121848 -5.967203 0
M  V30 32 O 0.576964 0.721995 -5.199272 0
M  V30 33 N 2.150863 0.562438 -6.576328 0
M  V30 34 C 2.267158 1.930933 -6.107292 0
M  V30 35 C 3.187347 0.250159 -7.565292 0
M  V30 36 C -0.075143 -1.336273 -3.811591 0
M  V30 37 C -0.639663 -2.347749 -2.850950 0
M  V30 38 C -4.258188 -2.333296 -1.858561 0
M  V30 39 C -5.101269 -1.862005 -0.875824 0
M  V30 40 O -6.388587 -2.275110 -0.679316 0
M  V30 41 C -6.918585 -3.268849 -1.546151 0
M  V30 42 N -5.506959 1.857432 2.274818 0
M  V30 43 C -4.969742 2.751611 3.119338 0
M  V30 44 N -5.282429 3.969373 3.607377 0
M  V30 45 C -4.320915 4.392516 4.447392 0
M  V30 46 C -3.295748 3.443602 4.558091 0
M  V30 47 C -3.762307 2.453785 3.709554 0
M  V30 48 C -0.862106 0.822849 3.002597 0
M  V30 49 H 3.252022 -4.597906 2.443822 0
M  V30 50 H 3.097037 -3.328867 3.699976 0
M  V30 51 H 1.625335 -4.034453 2.991522 0
M  V30 52 H 2.602014 -3.204955 0.696598 0
M  V30 53 H 1.644909 -2.135491 1.791876 0
M  V30 54 H 4.781094 -2.692455 0.126341 0
M  V30 55 H 6.675413 -1.177307 0.213554 0
M  V30 56 H 6.761317 0.699726 1.894668 0
M  V30 57 H 3.858254 1.798624 3.750047 0
M  V30 58 H 5.666091 1.953902 3.553907 0
M  V30 59 H 4.702259 1.208142 5.942627 0
M  V30 60 H 4.656303 -0.407062 5.193884 0
M  V30 61 H 6.203500 0.491023 5.275416 0
M  V30 62 H 2.481094 -1.109740 4.427807 0
M  V30 63 H 0.566131 -0.651721 5.519967 0
M  V30 64 H -2.044074 0.001140 5.829746 0
M  V30 65 H -6.414311 -0.594114 1.219280 0
M  V30 66 H -2.838171 0.320451 0.448750 0
M  V30 67 H -1.490631 -0.581285 -1.287765 0
M  V30 68 H -2.607622 -4.062674 -4.087921 0
M  V30 69 H -3.308767 -2.498694 -4.743980 0
M  V30 70 H -1.654750 -2.983001 -6.274509 0
M  V30 71 H -0.548758 -3.703402 -5.038864 0
M  V30 72 H 1.307410 -2.206305 -5.735444 0
M  V30 73 H 0.212681 -1.773034 -7.077689 0
M  V30 74 H 1.661523 2.562066 -6.795243 0
M  V30 75 H 3.310004 2.320356 -6.145200 0
M  V30 76 H 1.906171 2.083786 -5.080061 0
M  V30 77 H 4.191377 0.516811 -7.123666 0
M  V30 78 H 3.078427 0.887515 -8.459079 0
M  V30 79 H 3.250242 -0.827161 -7.788896 0
M  V30 80 H -0.448982 -0.336244 -3.460423 0
M  V30 81 H 1.034240 -1.348110 -3.824259 0
M  V30 82 H -0.336239 -2.154498 -1.801094 0
M  V30 83 H -0.237719 -3.377361 -3.083466 0
M  V30 84 H -4.634747 -3.099759 -2.541212 0
M  V30 85 H -7.998742 -3.406684 -1.397120 0
M  V30 86 H -6.447831 -4.265716 -1.378172 0
M  V30 87 H -6.774444 -2.966969 -2.621013 0
M  V30 88 H -6.160598 4.471298 3.335715 0
M  V30 89 H -4.316875 5.353185 4.987663 0
M  V30 90 H -2.386318 3.465620 5.139814 0
M  V30 91 H -0.814902 1.236306 1.978081 0
M  V30 END ATOM
M  V30 BEGIN BOND
M  V30 1 1 1 2
M  V30 2 1 2 3
M  V30 3 2 3 4
M  V30 4 1 4 5
M  V30 5 2 5 6
M  V30 6 1 6 7
M  V30 7 1 7 8
M  V30 8 1 8 9
M  V30 9 2 7 10
M  V30 10 1 10 11
M  V30 11 1 11 12
M  V30 12 2 12 13
M  V30 13 1 12 14
M  V30 14 1 14 15
M  V30 15 2 15 16
M  V30 16 1 16 17
M  V30 17 1 17 18
M  V30 18 2 18 19
M  V30 19 1 19 20
M  V30 20 1 20 21
M  V30 21 1 21 22
M  V30 22 2 22 23
M  V30 23 1 23 24
M  V30 24 2 24 25
M  V30 25 1 25 26
M  V30 26 1 26 27
M  V30 27 1 27 28
M  V30 28 1 28 29
M  V30 29 1 29 30
M  V30 30 1 30 31
M  V30 31 2 31 32
M  V30 32 1 31 33
M  V30 33 1 33 34
M  V30 34 1 33 35
M  V30 35 1 29 36
M  V30 36 1 36 37
M  V30 37 1 25 38
M  V30 38 2 38 39
M  V30 39 1 39 40
M  V30 40 1 40 41
M  V30 41 2 20 42
M  V30 42 1 42 43
M  V30 43 1 43 44
M  V30 44 1 44 45
M  V30 45 2 45 46
M  V30 46 1 46 47
M  V30 47 1 17 48
M  V30 48 1 10 3
M  V30 49 2 48 14
M  V30 50 1 47 18
M  V30 51 1 39 22
M  V30 52 2 47 43
M  V30 53 1 37 26
M  V30 54 1 1 49
M  V30 55 1 1 50
M  V30 56 1 1 51
M  V30 57 1 2 52
M  V30 58 1 2 53
M  V30 59 1 4 54
M  V30 60 1 5 55
M  V30 61 1 6 56
M  V30 62 1 8 57
M  V30 63 1 8 58
M  V30 64 1 9 59
M  V30 65 1 9 60
M  V30 66 1 9 61
M  V30 67 1 11 62
M  V30 68 1 15 63
M  V30 69 1 16 64
M  V30 70 1 21 65
M  V30 71 1 23 66
M  V30 72 1 24 67
M  V30 73 1 27 68
M  V30 74 1 27 69
M  V30 75 1 28 70
M  V30 76 1 28 71
M  V30 77 1 30 72
M  V30 78 1 30 73
M  V30 79 1 34 74
M  V30 80 1 34 75
M  V30 81 1 34 76
M  V30 82 1 35 77
M  V30 83 1 35 78
M  V30 84 1 35 79
M  V30 85 1 36 80
M  V30 86 1 36 81
M  V30 87 1 37 82
M  V30 88 1 37 83
M  V30 89 1 38 84
M  V30 90 1 41 85
M  V30 91 1 41 86
M  V30 92 1 41 87
M  V30 93 1 44 88
M  V30 94 1 45 89
M  V30 95 1 46 90
M  V30 96 1 48 91
M  V30 END BOND
M  V30 END CTAB
M  END
>  <Dataset>  (460) 
ChEMBL_Kinases

>  <Ligand_Instance>  (460) 
nan

>  <PDB_ID>  (460) 
nan

>  <Standardized_SMILES>  (460) 
CCc1cccc(CC)c1NC(=O)c1ccn(-c2nc(Nc3ccc(N4CCN(CC(=O)N(C)C)CC4)cc3OC)nc3[nH]ccc23)c1

>  <Name>  (460) 
nan

>  <Pocket>  (460) 
nan

>  <ATP_Site>  (460) 
nan

>  <Peripheral>  (460) 
nan

>  <Num_H_Atoms_ProtBoundConf>  (460) 
nan

>  <Num_Resolved_Atoms>  (460) 
nan

>  <Num_Not_Resolved_Atoms>  (460) 
nan

$$$$
CHEMBL582853
     RDKit          3D

  0  0  0  0  0  0  0  0  0  0999 V3000
M  V30 BEGIN CTAB
M  V30 COUNTS 34 37 0 0 0
M  V30 BEGIN ATOM
M  V30 1 C 0.815210 -6.462973 0.580400 0
M  V30 2 C 0.437712 -5.048240 0.383387 0
M  V30 3 C -0.493109 -4.537196 -0.497296 0
M  V30 4 C -0.538905 -3.157734 -0.361001 0
M  V30 5 C 0.391659 -2.892138 0.622427 0
M  V30 6 C 0.770260 -1.597832 1.179871 0
M  V30 7 C 1.733738 -1.564957 2.166036 0
M  V30 8 C 2.131729 -0.368239 2.730277 0
M  V30 9 C 1.575571 0.829416 2.322343 0
M  V30 10 O 1.730107 2.104551 2.648891 0
M  V30 11 C 0.918164 2.844889 1.919662 0
M  V30 12 C 0.198546 2.020978 1.077111 0
M  V30 13 C -0.782064 2.588954 0.153152 0
M  V30 14 C -1.693005 3.565073 0.554424 0
M  V30 15 C -2.618276 4.101107 -0.317062 0
M  V30 16 N -2.647622 3.673171 -1.594285 0
M  V30 17 C -1.763134 2.727200 -1.978843 0
M  V30 18 C -0.802987 2.141367 -1.157623 0
M  V30 19 C 0.617097 0.726335 1.331970 0
M  V30 20 C 0.184226 -0.429698 0.737580 0
M  V30 21 O 0.914781 -4.022576 1.005533 0
M  V30 22 H -0.086384 -7.128413 0.481716 0
M  V30 23 H 1.537096 -6.769137 -0.193061 0
M  V30 24 H 1.189967 -6.660180 1.611329 0
M  V30 25 H -1.117318 -5.096772 -1.207550 0
M  V30 26 H -1.147185 -2.413804 -0.882141 0
M  V30 27 H 2.207572 -2.467069 2.529279 0
M  V30 28 H 2.898454 -0.320886 3.517864 0
M  V30 29 H 0.968173 3.923258 2.113604 0
M  V30 30 H -1.656773 3.899390 1.586396 0
M  V30 31 H -3.337524 4.868778 -0.008773 0
M  V30 32 H -1.830621 2.420674 -3.013084 0
M  V30 33 H -0.133230 1.389147 -1.549665 0
M  V30 34 H -0.573531 -0.429927 -0.034624 0
M  V30 END ATOM
M  V30 BEGIN BOND
M  V30 1 1 1 2
M  V30 2 2 2 3
M  V30 3 1 3 4
M  V30 4 2 4 5
M  V30 5 1 5 6
M  V30 6 2 6 7
M  V30 7 1 7 8
M  V30 8 2 8 9
M  V30 9 1 9 10
M  V30 10 1 10 11
M  V30 11 2 11 12
M  V30 12 1 12 13
M  V30 13 2 13 14
M  V30 14 1 14 15
M  V30 15 2 15 16
M  V30 16 1 16 17
M  V30 17 2 17 18
M  V30 18 1 12 19
M  V30 19 2 19 20
M  V30 20 1 5 21
M  V30 21 1 21 2
M  V30 22 1 20 6
M  V30 23 1 19 9
M  V30 24 1 18 13
M  V30 25 1 1 22
M  V30 26 1 1 23
M  V30 27 1 1 24
M  V30 28 1 3 25
M  V30 29 1 4 26
M  V30 30 1 7 27
M  V30 31 1 8 28
M  V30 32 1 11 29
M  V30 33 1 14 30
M  V30 34 1 15 31
M  V30 35 1 17 32
M  V30 36 1 18 33
M  V30 37 1 20 34
M  V30 END BOND
M  V30 END CTAB
M  END
>  <Dataset>  (461) 
ChEMBL_Kinases

>  <Ligand_Instance>  (461) 
nan

>  <PDB_ID>  (461) 
nan

>  <Standardized_SMILES>  (461) 
Cc1ccc(-c2ccc3occ(-c4ccncc4)c3c2)o1

>  <Name>  (461) 
nan

>  <Pocket>  (461) 
nan

>  <ATP_Site>  (461) 
nan

>  <Peripheral>  (461) 
nan

>  <Num_H_Atoms_ProtBoundConf>  (461) 
nan

>  <Num_Resolved_Atoms>  (461) 
nan

>  <Num_Not_Resolved_Atoms>  (461) 
nan

$$$$
CHEMBL5092853
     RDKit          3D

  0  0  0  0  0  0  0  0  0  0999 V3000
M  V30 BEGIN CTAB
M  V30 COUNTS 66 71 0 0 0
M  V30 BEGIN ATOM
M  V30 1 C 6.007176 -2.337551 2.676916 0
M  V30 2 O 5.486660 -1.638886 1.577395 0
M  V30 3 C 4.452338 -0.725121 1.719320 0
M  V30 4 C 3.805337 -0.369361 2.875929 0
M  V30 5 C 2.787303 0.551832 2.895890 0
M  V30 6 C 2.417523 1.130960 1.687110 0
M  V30 7 C 3.038708 0.809079 0.483934 0
M  V30 8 C 2.517388 1.514578 -0.667587 0
M  V30 9 N 2.808115 2.804825 -0.688016 0
M  V30 10 C 2.255747 3.347237 -1.833690 0
M  V30 11 S 1.979491 4.819145 -2.880126 0
M  V30 12 C 1.031883 3.948859 -4.132985 0
M  V30 13 C 1.002763 2.639574 -3.664589 0
M  V30 14 N 1.618477 2.357991 -2.516592 0
M  V30 15 C 1.785467 1.238915 -1.792513 0
M  V30 16 C 1.330320 -0.132909 -2.016288 0
M  V30 17 C 2.144865 -1.222586 -2.242665 0
M  V30 18 C 1.633363 -2.492008 -2.440750 0
M  V30 19 N 0.305233 -2.696920 -2.417726 0
M  V30 20 C -0.492064 -1.644565 -2.198560 0
M  V30 21 N -1.898315 -1.864464 -2.171616 0
M  V30 22 C -2.384752 -3.208374 -2.369334 0
M  V30 23 C -1.915762 -4.191153 -1.364367 0
M  V30 24 C -2.347763 -3.813534 0.058640 0
M  V30 25 N -3.792655 -3.776362 0.083538 0
M  V30 26 S -4.451596 -3.368768 1.604527 0
M  V30 27 O -4.126820 -4.398536 2.654676 0
M  V30 28 O -5.952545 -3.382274 1.460183 0
M  V30 29 C -3.950671 -1.775193 2.095968 0
M  V30 30 C -4.761407 -0.707760 1.701273 0
M  V30 31 C -4.527240 0.627721 1.996455 0
M  V30 32 C -3.384096 0.898172 2.748905 0
M  V30 33 C -3.154452 2.229272 3.041920 0
M  V30 34 C -2.027768 2.503311 3.784715 0
M  V30 35 C -1.200448 1.496561 4.195946 0
M  V30 36 C -1.428088 0.169213 3.904964 0
M  V30 37 C -2.553622 -0.129295 3.160216 0
M  V30 38 C -2.834727 -1.450305 2.836778 0
M  V30 39 N 0.007133 -0.405602 -2.004705 0
M  V30 40 C 4.051782 -0.123932 0.542829 0
M  V30 41 H 6.441296 -3.318515 2.318690 0
M  V30 42 H 5.266927 -2.546664 3.469431 0
M  V30 43 H 6.846785 -1.774536 3.144014 0
M  V30 44 H 4.148640 -0.862565 3.778114 0
M  V30 45 H 2.334197 0.773839 3.850170 0
M  V30 46 H 1.600493 1.851323 1.800158 0
M  V30 47 H 0.650571 4.465647 -4.984354 0
M  V30 48 H 0.454584 1.998312 -4.332581 0
M  V30 49 H 3.194440 -1.066259 -2.264566 0
M  V30 50 H 2.342116 -3.292777 -2.613258 0
M  V30 51 H -2.548558 -1.037735 -2.008140 0
M  V30 52 H -3.498795 -3.162673 -2.282326 0
M  V30 53 H -2.176682 -3.601934 -3.366641 0
M  V30 54 H -2.521718 -5.131605 -1.560293 0
M  V30 55 H -0.871181 -4.504376 -1.425476 0
M  V30 56 H -2.021725 -4.597521 0.770497 0
M  V30 57 H -1.885715 -2.870826 0.355428 0
M  V30 58 H -4.230027 -4.583106 -0.379584 0
M  V30 59 H -5.658070 -0.901039 1.112023 0
M  V30 60 H -5.204478 1.390452 1.655364 0
M  V30 61 H -3.803402 3.033792 2.721917 0
M  V30 62 H -1.783789 3.523975 4.050596 0
M  V30 63 H -0.309741 1.681396 4.779819 0
M  V30 64 H -0.780322 -0.652735 4.221166 0
M  V30 65 H -2.221936 -2.275058 3.132363 0
M  V30 66 H 4.510596 -0.344897 -0.411212 0
M  V30 END ATOM
M  V30 BEGIN BOND
M  V30 1 1 1 2
M  V30 2 1 2 3
M  V30 3 2 3 4
M  V30 4 1 4 5
M  V30 5 2 5 6
M  V30 6 1 6 7
M  V30 7 1 7 8
M  V30 8 1 8 9
M  V30 9 2 9 10
M  V30 10 1 10 11
M  V30 11 1 11 12
M  V30 12 2 12 13
M  V30 13 1 13 14
M  V30 14 1 14 15
M  V30 15 1 15 16
M  V30 16 2 16 17
M  V30 17 1 17 18
M  V30 18 2 18 19
M  V30 19 1 19 20
M  V30 20 1 20 21
M  V30 21 1 21 22
M  V30 22 1 22 23
M  V30 23 1 23 24
M  V30 24 1 24 25
M  V30 25 1 25 26
M  V30 26 2 26 27
M  V30 27 2 26 28
M  V30 28 1 26 29
M  V30 29 2 29 30
M  V30 30 1 30 31
M  V30 31 2 31 32
M  V30 32 1 32 33
M  V30 33 2 33 34
M  V30 34 1 34 35
M  V30 35 2 35 36
M  V30 36 1 36 37
M  V30 37 2 37 38
M  V30 38 2 20 39
M  V30 39 2 7 40
M  V30 40 1 40 3
M  V30 41 2 15 8
M  V30 42 1 39 16
M  V30 43 1 14 10
M  V30 44 1 38 29
M  V30 45 1 37 32
M  V30 46 1 1 41
M  V30 47 1 1 42
M  V30 48 1 1 43
M  V30 49 1 4 44
M  V30 50 1 5 45
M  V30 51 1 6 46
M  V30 52 1 12 47
M  V30 53 1 13 48
M  V30 54 1 17 49
M  V30 55 1 18 50
M  V30 56 1 21 51
M  V30 57 1 22 52
M  V30 58 1 22 53
M  V30 59 1 23 54
M  V30 60 1 23 55
M  V30 61 1 24 56
M  V30 62 1 24 57
M  V30 63 1 25 58
M  V30 64 1 30 59
M  V30 65 1 31 60
M  V30 66 1 33 61
M  V30 67 1 34 62
M  V30 68 1 35 63
M  V30 69 1 36 64
M  V30 70 1 38 65
M  V30 71 1 40 66
M  V30 END BOND
M  V30 END CTAB
M  END
>  <Dataset>  (462) 
ChEMBL_Kinases

>  <Ligand_Instance>  (462) 
nan

>  <PDB_ID>  (462) 
nan

>  <Standardized_SMILES>  (462) 
COc1cccc(-c2nc3sccn3c2-c2ccnc(NCCCNS(=O)(=O)c3ccc4ccccc4c3)n2)c1

>  <Name>  (462) 
nan

>  <Pocket>  (462) 
nan

>  <ATP_Site>  (462) 
nan

>  <Peripheral>  (462) 
nan

>  <Num_H_Atoms_ProtBoundConf>  (462) 
nan

>  <Num_Resolved_Atoms>  (462) 
nan

>  <Num_Not_Resolved_Atoms>  (462) 
nan

$$$$
CHEMBL375085
     RDKit          3D

  0  0  0  0  0  0  0  0  0  0999 V3000
M  V30 BEGIN CTAB
M  V30 COUNTS 41 46 0 0 0
M  V30 BEGIN ATOM
M  V30 1 O -0.836023 0.322253 4.438393 0
M  V30 2 C -0.132563 0.448187 3.453825 0
M  V30 3 N 0.788826 1.458028 3.801579 0
M  V30 4 C 1.683056 1.666667 2.647886 0
M  V30 5 C 1.115620 0.658881 1.683773 0
M  V30 6 C 0.044898 -0.062554 2.154522 0
M  V30 7 C -0.546333 -0.991682 1.389277 0
M  V30 8 C -0.066607 -1.212436 0.127870 0
M  V30 9 C 1.004110 -0.523865 -0.406152 0
M  V30 10 N 1.663231 -0.545056 -1.594924 0
M  V30 11 C 2.658273 0.358974 -1.581836 0
M  V30 12 C 3.571438 0.671697 -2.568560 0
M  V30 13 C 4.474520 1.659503 -2.234019 0
M  V30 14 C 4.464533 2.285617 -1.007503 0
M  V30 15 C 3.533156 1.940169 -0.052239 0
M  V30 16 C 2.611310 0.959333 -0.340578 0
M  V30 17 C 1.586396 0.424218 0.410895 0
M  V30 18 C -0.655352 -2.203423 -0.769738 0
M  V30 19 C -1.789790 -2.981732 -0.236847 0
M  V30 20 C -2.242144 -2.668468 1.127587 0
M  V30 21 C -3.336444 -3.471540 1.477207 0
M  V30 22 C -3.875966 -3.286160 2.754544 0
M  V30 23 C -3.324418 -2.346507 3.594891 0
M  V30 24 C -2.256863 -1.635810 3.115199 0
M  V30 25 C -1.652976 -1.718881 1.922041 0
M  V30 26 H 1.063195 2.096141 4.556681 0
M  V30 27 H 2.715471 1.436314 2.904755 0
M  V30 28 H 1.473469 2.645719 2.221692 0
M  V30 29 H 1.415074 -1.183768 -2.396297 0
M  V30 30 H 3.550744 0.157236 -3.526024 0
M  V30 31 H 5.219357 1.956017 -2.958834 0
M  V30 32 H 5.210515 3.054422 -0.822266 0
M  V30 33 H 3.549958 2.447711 0.898036 0
M  V30 34 H -0.857498 -1.736667 -1.768294 0
M  V30 35 H 0.173095 -2.940835 -1.006810 0
M  V30 36 H -2.653999 -2.835609 -0.936209 0
M  V30 37 H -1.574306 -4.096002 -0.223749 0
M  V30 38 H -3.809181 -4.219665 0.865646 0
M  V30 39 H -4.723914 -3.880102 3.079482 0
M  V30 40 H -3.771666 -2.240842 4.562651 0
M  V30 41 H -1.911370 -0.961532 3.797528 0
M  V30 END ATOM
M  V30 BEGIN BOND
M  V30 1 2 1 2
M  V30 2 1 2 3
M  V30 3 1 3 4
M  V30 4 1 4 5
M  V30 5 2 5 6
M  V30 6 1 6 7
M  V30 7 2 7 8
M  V30 8 1 8 9
M  V30 9 1 9 10
M  V30 10 1 10 11
M  V30 11 2 11 12
M  V30 12 1 12 13
M  V30 13 2 13 14
M  V30 14 1 14 15
M  V30 15 2 15 16
M  V30 16 1 16 17
M  V30 17 1 8 18
M  V30 18 1 18 19
M  V30 19 1 19 20
M  V30 20 2 20 21
M  V30 21 1 21 22
M  V30 22 2 22 23
M  V30 23 1 23 24
M  V30 24 2 24 25
M  V30 25 1 6 2
M  V30 26 1 25 7
M  V30 27 1 17 5
M  V30 28 1 25 20
M  V30 29 2 17 9
M  V30 30 1 16 11
M  V30 31 1 3 26
M  V30 32 1 4 27
M  V30 33 1 4 28
M  V30 34 1 10 29
M  V30 35 1 12 30
M  V30 36 1 13 31
M  V30 37 1 14 32
M  V30 38 1 15 33
M  V30 39 1 18 34
M  V30 40 1 18 35
M  V30 41 1 19 36
M  V30 42 1 19 37
M  V30 43 1 21 38
M  V30 44 1 22 39
M  V30 45 1 23 40
M  V30 46 1 24 41
M  V30 END BOND
M  V30 END CTAB
M  END
>  <Dataset>  (463) 
ChEMBL_Kinases

>  <Ligand_Instance>  (463) 
nan

>  <PDB_ID>  (463) 
nan

>  <Standardized_SMILES>  (463) 
O=C1NCc2c1c1c(c3[nH]c4ccccc4c23)CCc2ccccc2-1

>  <Name>  (463) 
nan

>  <Pocket>  (463) 
nan

>  <ATP_Site>  (463) 
nan

>  <Peripheral>  (463) 
nan

>  <Num_H_Atoms_ProtBoundConf>  (463) 
nan

>  <Num_Resolved_Atoms>  (463) 
nan

>  <Num_Not_Resolved_Atoms>  (463) 
nan

$$$$
CHEMBL3702544
     RDKit          3D

  0  0  0  0  0  0  0  0  0  0999 V3000
M  V30 BEGIN CTAB
M  V30 COUNTS 45 47 0 0 0
M  V30 BEGIN ATOM
M  V30 1 C -0.961919 -3.418868 3.734978 0
M  V30 2 O -1.224156 -4.229439 2.621061 0
M  V30 3 C -1.542600 -3.798550 1.359486 0
M  V30 4 C -1.759462 -4.795881 0.417255 0
M  V30 5 C -2.086050 -4.490174 -0.885349 0
M  V30 6 C -2.214151 -3.176698 -1.319444 0
M  V30 7 C -1.996970 -2.193651 -0.376836 0
M  V30 8 C -2.092210 -0.718818 -0.667489 0
M  V30 9 O -0.782147 -0.354941 -1.064082 0
M  V30 10 C -0.372846 0.901038 -1.431085 0
M  V30 11 O -1.247952 1.802221 -1.409676 0
M  V30 12 C 1.040394 0.920266 -1.779472 0
M  V30 13 C 2.031883 1.154231 -0.883937 0
M  V30 14 C 1.888354 1.426156 0.537720 0
M  V30 15 C 2.676935 0.739743 1.468295 0
M  V30 16 C 2.647098 0.901404 2.820783 0
M  V30 17 C 1.755817 1.828458 3.315668 0
M  V30 18 C 1.638560 2.085237 4.761038 0
M  V30 19 N 2.454926 1.370628 5.685587 0
M  V30 20 O 0.844941 2.917963 5.275478 0
M  V30 21 C 0.943594 2.546442 2.468133 0
M  V30 22 C 1.026065 2.332445 1.109906 0
M  V30 23 C 3.372329 1.142390 -1.366406 0
M  V30 24 S 3.241117 0.797341 -3.106053 0
M  V30 25 C 1.373430 0.684837 -3.099224 0
M  V30 26 N 0.532563 0.413421 -4.235490 0
M  V30 27 C -1.666138 -2.494480 0.943261 0
M  V30 28 H -0.078631 -3.860957 4.264579 0
M  V30 29 H -0.753248 -2.381794 3.467048 0
M  V30 30 H -1.787362 -3.421366 4.482166 0
M  V30 31 H -1.679425 -5.842232 0.673940 0
M  V30 32 H -2.256299 -5.253703 -1.623807 0
M  V30 33 H -2.465897 -2.865979 -2.318701 0
M  V30 34 H -2.822450 -0.591239 -1.496171 0
M  V30 35 H -2.477882 -0.153817 0.188351 0
M  V30 36 H 3.380047 0.008744 1.081201 0
M  V30 37 H 3.287265 0.333959 3.471890 0
M  V30 38 H 3.378764 1.478026 6.171896 0
M  V30 39 H 1.816321 0.539480 5.812080 0
M  V30 40 H 0.244251 3.275600 2.874168 0
M  V30 41 H 0.393070 2.899004 0.464957 0
M  V30 42 H 4.299401 1.289831 -0.896813 0
M  V30 43 H 0.191949 -0.503863 -4.573742 0
M  V30 44 H 0.133128 1.111663 -4.900257 0
M  V30 45 H -1.495574 -1.727085 1.683252 0
M  V30 END ATOM
M  V30 BEGIN BOND
M  V30 1 1 1 2
M  V30 2 1 2 3
M  V30 3 2 3 4
M  V30 4 1 4 5
M  V30 5 2 5 6
M  V30 6 1 6 7
M  V30 7 1 7 8
M  V30 8 1 8 9
M  V30 9 1 9 10
M  V30 10 2 10 11
M  V30 11 1 10 12
M  V30 12 1 12 13
M  V30 13 1 13 14
M  V30 14 2 14 15
M  V30 15 1 15 16
M  V30 16 2 16 17
M  V30 17 1 17 18
M  V30 18 1 18 19
M  V30 19 2 18 20
M  V30 20 1 17 21
M  V30 21 2 21 22
M  V30 22 2 13 23
M  V30 23 1 23 24
M  V30 24 1 24 25
M  V30 25 1 25 26
M  V30 26 2 7 27
M  V30 27 1 27 3
M  V30 28 2 25 12
M  V30 29 1 22 14
M  V30 30 1 1 28
M  V30 31 1 1 29
M  V30 32 1 1 30
M  V30 33 1 4 31
M  V30 34 1 5 32
M  V30 35 1 6 33
M  V30 36 1 8 34
M  V30 37 1 8 35
M  V30 38 1 15 36
M  V30 39 1 16 37
M  V30 40 1 19 38
M  V30 41 1 19 39
M  V30 42 1 21 40
M  V30 43 1 22 41
M  V30 44 1 23 42
M  V30 45 1 26 43
M  V30 46 1 26 44
M  V30 47 1 27 45
M  V30 END BOND
M  V30 END CTAB
M  END
>  <Dataset>  (464) 
ChEMBL_Kinases

>  <Ligand_Instance>  (464) 
nan

>  <PDB_ID>  (464) 
nan

>  <Standardized_SMILES>  (464) 
COc1cccc(COC(=O)c2c(-c3ccc(C(N)=O)cc3)csc2N)c1

>  <Name>  (464) 
nan

>  <Pocket>  (464) 
nan

>  <ATP_Site>  (464) 
nan

>  <Peripheral>  (464) 
nan

>  <Num_H_Atoms_ProtBoundConf>  (464) 
nan

>  <Num_Resolved_Atoms>  (464) 
nan

>  <Num_Not_Resolved_Atoms>  (464) 
nan

$$$$
CHEMBL3702546
     RDKit          3D

  0  0  0  0  0  0  0  0  0  0999 V3000
M  V30 BEGIN CTAB
M  V30 COUNTS 36 38 0 0 0
M  V30 BEGIN ATOM
M  V30 1 C 1.210704 -3.152214 3.647554 0
M  V30 2 C 0.539424 -2.004240 2.949348 0
M  V30 3 C -0.820620 -2.491646 2.490166 0
M  V30 4 O 1.236477 -1.570758 1.804568 0
M  V30 5 C 1.668655 -0.297259 1.541907 0
M  V30 6 O 1.387659 0.527136 2.448004 0
M  V30 7 C 2.358382 -0.205619 0.259084 0
M  V30 8 C 1.673369 0.071943 -0.895681 0
M  V30 9 C 0.252233 0.318160 -1.083421 0
M  V30 10 C -0.420545 -0.337137 -2.113034 0
M  V30 11 C -1.761401 -0.172336 -2.379616 0
M  V30 12 C -2.476895 0.689871 -1.581978 0
M  V30 13 C -1.861171 1.363856 -0.549659 0
M  V30 14 C -0.529404 1.155624 -0.339059 0
M  V30 15 O -2.846702 2.127764 0.034702 0
M  V30 16 C -4.054881 2.043878 -0.689052 0
M  V30 17 O -3.821132 1.025810 -1.641889 0
M  V30 18 C 2.492623 0.126534 -2.069953 0
M  V30 19 S 4.149290 -0.214227 -1.461433 0
M  V30 20 C 3.688950 -0.404687 0.254504 0
M  V30 21 N 4.617576 -0.695092 1.252636 0
M  V30 22 H 2.296056 -3.082040 3.707271 0
M  V30 23 H 0.832759 -3.189761 4.699995 0
M  V30 24 H 0.941708 -4.154002 3.231820 0
M  V30 25 H 0.351496 -1.184207 3.674898 0
M  V30 26 H -1.559448 -1.668090 2.559860 0
M  V30 27 H -0.780215 -2.929607 1.471622 0
M  V30 28 H -1.168986 -3.254353 3.214101 0
M  V30 29 H 0.121300 -1.027944 -2.763055 0
M  V30 30 H -2.218797 -0.716960 -3.199918 0
M  V30 31 H -0.077481 1.691457 0.463477 0
M  V30 32 H -4.331570 2.986704 -1.194513 0
M  V30 33 H -4.898357 1.787111 -0.011794 0
M  V30 34 H 2.216309 0.323089 -3.095314 0
M  V30 35 H 5.448027 -0.069251 1.361716 0
M  V30 36 H 4.358270 -1.544378 1.797115 0
M  V30 END ATOM
M  V30 BEGIN BOND
M  V30 1 1 1 2
M  V30 2 1 2 3
M  V30 3 1 2 4
M  V30 4 1 4 5
M  V30 5 2 5 6
M  V30 6 1 5 7
M  V30 7 1 7 8
M  V30 8 1 8 9
M  V30 9 2 9 10
M  V30 10 1 10 11
M  V30 11 2 11 12
M  V30 12 1 12 13
M  V30 13 2 13 14
M  V30 14 1 13 15
M  V30 15 1 15 16
M  V30 16 1 16 17
M  V30 17 2 8 18
M  V30 18 1 18 19
M  V30 19 1 19 20
M  V30 20 1 20 21
M  V30 21 2 20 7
M  V30 22 1 14 9
M  V30 23 1 17 12
M  V30 24 1 1 22
M  V30 25 1 1 23
M  V30 26 1 1 24
M  V30 27 1 2 25
M  V30 28 1 3 26
M  V30 29 1 3 27
M  V30 30 1 3 28
M  V30 31 1 10 29
M  V30 32 1 11 30
M  V30 33 1 14 31
M  V30 34 1 16 32
M  V30 35 1 16 33
M  V30 36 1 18 34
M  V30 37 1 21 35
M  V30 38 1 21 36
M  V30 END BOND
M  V30 END CTAB
M  END
>  <Dataset>  (465) 
ChEMBL_Kinases

>  <Ligand_Instance>  (465) 
nan

>  <PDB_ID>  (465) 
nan

>  <Standardized_SMILES>  (465) 
CC(C)OC(=O)c1c(-c2ccc3c(c2)OCO3)csc1N

>  <Name>  (465) 
nan

>  <Pocket>  (465) 
nan

>  <ATP_Site>  (465) 
nan

>  <Peripheral>  (465) 
nan

>  <Num_H_Atoms_ProtBoundConf>  (465) 
nan

>  <Num_Resolved_Atoms>  (465) 
nan

>  <Num_Not_Resolved_Atoms>  (465) 
nan

$$$$
CHEMBL5091949
     RDKit          3D

  0  0  0  0  0  0  0  0  0  0999 V3000
M  V30 BEGIN CTAB
M  V30 COUNTS 68 72 0 0 0
M  V30 BEGIN ATOM
M  V30 1 C 4.610661 0.112156 6.750534 0
M  V30 2 C 5.360509 0.264027 5.452769 0
M  V30 3 C 6.795473 -0.146587 5.688492 0
M  V30 4 N 4.764423 -0.471780 4.371001 0
M  V30 5 C 3.426226 -0.112054 4.071429 0
M  V30 6 C 3.146968 0.270515 2.651161 0
M  V30 7 N 4.235167 0.918421 1.970854 0
M  V30 8 C 3.996964 1.862855 0.944365 0
M  V30 9 O 4.871031 2.484403 0.288540 0
M  V30 10 C 2.686727 2.279541 0.468018 0
M  V30 11 C 1.825563 1.328322 0.010149 0
M  V30 12 C 0.588004 1.764185 -0.431831 0
M  V30 13 C 0.165953 3.074781 -0.443819 0
M  V30 14 N -1.096460 3.550424 -0.880039 0
M  V30 15 C -2.199248 2.801239 -1.366632 0
M  V30 16 N -3.313356 3.452320 -1.790826 0
M  V30 17 C -4.394705 2.823376 -2.250774 0
M  V30 18 C -4.388957 1.448008 -2.300934 0
M  V30 19 C -3.286359 0.742407 -1.883089 0
M  V30 20 C -3.290723 -0.712676 -1.928980 0
M  V30 21 C -2.199422 -1.437026 -1.503833 0
M  V30 22 C -2.154717 -2.807379 -1.521579 0
M  V30 23 C -3.228713 -3.536651 -1.977556 0
M  V30 24 N -3.187317 -4.889726 -1.993546 0
M  V30 25 C -4.280703 -5.565394 -2.453479 0
M  V30 26 C -5.394776 -4.882662 -2.888717 0
M  V30 27 N -6.557463 -5.537092 -3.367555 0
M  V30 28 C -6.771206 -6.966543 -3.444267 0
M  V30 29 C -7.697981 -4.790698 -3.854203 0
M  V30 30 N -5.381752 -3.543896 -2.851582 0
M  V30 31 C -4.332237 -2.831304 -2.408602 0
M  V30 32 C -4.352696 -1.435540 -2.380471 0
M  V30 33 N -2.255553 1.461810 -1.440221 0
M  V30 34 N 1.070988 3.951604 0.022121 0
M  V30 35 C 2.288267 3.617870 0.468383 0
M  V30 36 C 5.600671 0.606703 2.332901 0
M  V30 37 C 5.624118 -0.610372 3.240289 0
M  V30 38 H 4.259949 -0.916781 6.936113 0
M  V30 39 H 5.341526 0.349034 7.565541 0
M  V30 40 H 3.805509 0.882922 6.858370 0
M  V30 41 H 5.352031 1.337279 5.193268 0
M  V30 42 H 7.525258 0.402017 5.053744 0
M  V30 43 H 6.902101 -1.262684 5.592119 0
M  V30 44 H 7.015499 0.072040 6.774442 0
M  V30 45 H 2.982262 0.655948 4.734784 0
M  V30 46 H 2.798721 -1.033149 4.272247 0
M  V30 47 H 2.291016 1.008506 2.611539 0
M  V30 48 H 2.767560 -0.616882 2.059946 0
M  V30 49 H 2.047788 0.265494 -0.031079 0
M  V30 50 H -0.079401 1.014748 -0.789225 0
M  V30 51 H -1.236699 4.589161 -0.840519 0
M  V30 52 H -5.220300 3.432101 -2.560032 0
M  V30 53 H -5.300006 1.015348 -2.684846 0
M  V30 54 H -1.292592 -0.995460 -1.122672 0
M  V30 55 H -1.292137 -3.396247 -1.186209 0
M  V30 56 H -4.236127 -6.641413 -2.462654 0
M  V30 57 H -6.007425 -7.524627 -2.853956 0
M  V30 58 H -6.826469 -7.300389 -4.488407 0
M  V30 59 H -7.745174 -7.253698 -2.955013 0
M  V30 60 H -7.900509 -5.056231 -4.930650 0
M  V30 61 H -7.477165 -3.684334 -3.880322 0
M  V30 62 H -8.578239 -4.965509 -3.217570 0
M  V30 63 H -5.249642 -0.990123 -2.734479 0
M  V30 64 H 2.989941 4.350319 0.835417 0
M  V30 65 H 6.083966 1.482683 2.777480 0
M  V30 66 H 6.137147 0.297665 1.393062 0
M  V30 67 H 6.664703 -0.725059 3.596710 0
M  V30 68 H 5.366316 -1.511129 2.649144 0
M  V30 END ATOM
M  V30 BEGIN BOND
M  V30 1 1 1 2
M  V30 2 1 2 3
M  V30 3 1 2 4
M  V30 4 1 4 5
M  V30 5 1 5 6
M  V30 6 1 6 7
M  V30 7 1 7 8
M  V30 8 2 8 9
M  V30 9 1 8 10
M  V30 10 2 10 11
M  V30 11 1 11 12
M  V30 12 2 12 13
M  V30 13 1 13 14
M  V30 14 1 14 15
M  V30 15 2 15 16
M  V30 16 1 16 17
M  V30 17 2 17 18
M  V30 18 1 18 19
M  V30 19 1 19 20
M  V30 20 2 20 21
M  V30 21 1 21 22
M  V30 22 2 22 23
M  V30 23 1 23 24
M  V30 24 2 24 25
M  V30 25 1 25 26
M  V30 26 1 26 27
M  V30 27 1 27 28
M  V30 28 1 27 29
M  V30 29 2 26 30
M  V30 30 1 30 31
M  V30 31 2 31 32
M  V30 32 2 19 33
M  V30 33 1 13 34
M  V30 34 2 34 35
M  V30 35 1 7 36
M  V30 36 1 36 37
M  V30 37 1 37 4
M  V30 38 1 35 10
M  V30 39 1 33 15
M  V30 40 1 32 20
M  V30 41 1 31 23
M  V30 42 1 1 38
M  V30 43 1 1 39
M  V30 44 1 1 40
M  V30 45 1 2 41
M  V30 46 1 3 42
M  V30 47 1 3 43
M  V30 48 1 3 44
M  V30 49 1 5 45
M  V30 50 1 5 46
M  V30 51 1 6 47
M  V30 52 1 6 48
M  V30 53 1 11 49
M  V30 54 1 12 50
M  V30 55 1 14 51
M  V30 56 1 17 52
M  V30 57 1 18 53
M  V30 58 1 21 54
M  V30 59 1 22 55
M  V30 60 1 25 56
M  V30 61 1 28 57
M  V30 62 1 28 58
M  V30 63 1 28 59
M  V30 64 1 29 60
M  V30 65 1 29 61
M  V30 66 1 29 62
M  V30 67 1 32 63
M  V30 68 1 35 64
M  V30 69 1 36 65
M  V30 70 1 36 66
M  V30 71 1 37 67
M  V30 72 1 37 68
M  V30 END BOND
M  V30 END CTAB
M  END
>  <Dataset>  (466) 
ChEMBL_Kinases

>  <Ligand_Instance>  (466) 
nan

>  <PDB_ID>  (466) 
nan

>  <Standardized_SMILES>  (466) 
CC(C)N1CCN(C(=O)c2ccc(Nc3nccc(-c4ccc5ncc(N(C)C)nc5c4)n3)nc2)CC1

>  <Name>  (466) 
nan

>  <Pocket>  (466) 
nan

>  <ATP_Site>  (466) 
nan

>  <Peripheral>  (466) 
nan

>  <Num_H_Atoms_ProtBoundConf>  (466) 
nan

>  <Num_Resolved_Atoms>  (466) 
nan

>  <Num_Not_Resolved_Atoms>  (466) 
nan

$$$$
CHEMBL5092006
     RDKit          3D

  0  0  0  0  0  0  0  0  0  0999 V3000
M  V30 BEGIN CTAB
M  V30 COUNTS 38 40 0 0 0
M  V30 BEGIN ATOM
M  V30 1 C -0.689659 -5.508735 2.631061 0
M  V30 2 C -0.004968 -4.908466 1.709334 0
M  V30 3 C 0.591741 -3.756878 1.105123 0
M  V30 4 O 1.095431 -4.325475 0.088767 0
M  V30 5 N 0.778476 -2.373072 1.243480 0
M  V30 6 C 1.452463 -1.761564 0.116187 0
M  V30 7 O 2.084086 -2.597615 -0.620045 0
M  V30 8 C 1.451658 -0.295511 -0.217035 0
M  V30 9 C 0.066755 0.237537 -0.379433 0
M  V30 10 C 0.106476 1.459469 -1.228791 0
M  V30 11 C -0.527791 1.489428 -2.466582 0
M  V30 12 C -0.481557 2.635110 -3.245712 0
M  V30 13 C 0.194140 3.768707 -2.809794 0
M  V30 14 C 0.275453 4.982485 -3.573297 0
M  V30 15 N 0.350737 5.953705 -4.201410 0
M  V30 16 C 0.808432 3.686044 -1.570356 0
M  V30 17 C 0.793153 2.572250 -0.756073 0
M  V30 18 S -0.740303 0.689766 1.175417 0
M  V30 19 C -0.370665 -0.480469 2.469598 0
M  V30 20 C -0.792669 -0.048763 3.708118 0
M  V30 21 C -0.553799 -0.863943 4.801101 0
M  V30 22 C 0.089637 -2.101013 4.734815 0
M  V30 23 C 0.520235 -2.552783 3.508388 0
M  V30 24 C 0.268831 -1.716415 2.418388 0
M  V30 25 H -1.177064 -5.137032 3.540295 0
M  V30 26 H -1.179801 -5.135040 3.545371 0
M  V30 27 H -0.119262 -5.943389 1.567450 0
M  V30 28 H 1.932461 -0.217734 -1.236463 0
M  V30 29 H 2.083348 0.284942 0.467609 0
M  V30 30 H -0.526078 -0.509208 -0.949521 0
M  V30 31 H -1.068451 0.607137 -2.834134 0
M  V30 32 H -0.971514 2.663932 -4.206175 0
M  V30 33 H 1.334663 4.579000 -1.238525 0
M  V30 34 H 1.300992 2.594846 0.199708 0
M  V30 35 H -1.297851 0.896861 3.842984 0
M  V30 36 H -0.896630 -0.504711 5.778083 0
M  V30 37 H 0.253200 -2.700371 5.613368 0
M  V30 38 H 1.040417 -3.484166 3.350881 0
M  V30 END ATOM
M  V30 BEGIN BOND
M  V30 1 2 1 2
M  V30 2 1 2 3
M  V30 3 2 3 4
M  V30 4 1 3 5
M  V30 5 1 5 6
M  V30 6 2 6 7
M  V30 7 1 6 8
M  V30 8 1 8 9
M  V30 9 1 9 10
M  V30 10 2 10 11
M  V30 11 1 11 12
M  V30 12 2 12 13
M  V30 13 1 13 14
M  V30 14 3 14 15
M  V30 15 1 13 16
M  V30 16 2 16 17
M  V30 17 1 9 18
M  V30 18 1 18 19
M  V30 19 2 19 20
M  V30 20 1 20 21
M  V30 21 2 21 22
M  V30 22 1 22 23
M  V30 23 2 23 24
M  V30 24 1 24 5
M  V30 25 1 17 10
M  V30 26 1 24 19
M  V30 27 1 1 25
M  V30 28 1 1 26
M  V30 29 1 2 27
M  V30 30 1 8 28
M  V30 31 1 8 29
M  V30 32 1 9 30
M  V30 33 1 11 31
M  V30 34 1 12 32
M  V30 35 1 16 33
M  V30 36 1 17 34
M  V30 37 1 20 35
M  V30 38 1 21 36
M  V30 39 1 22 37
M  V30 40 1 23 38
M  V30 END BOND
M  V30 END CTAB
M  END
>  <Dataset>  (467) 
ChEMBL_Kinases

>  <Ligand_Instance>  (467) 
nan

>  <PDB_ID>  (467) 
nan

>  <Standardized_SMILES>  (467) 
C=CC(=O)N1C(=O)CC(c2ccc(C#N)cc2)Sc2ccccc21

>  <Name>  (467) 
nan

>  <Pocket>  (467) 
nan

>  <ATP_Site>  (467) 
nan

>  <Peripheral>  (467) 
nan

>  <Num_H_Atoms_ProtBoundConf>  (467) 
nan

>  <Num_Resolved_Atoms>  (467) 
nan

>  <Num_Not_Resolved_Atoms>  (467) 
nan

$$$$
CHEMBL3702547
     RDKit          3D

  0  0  0  0  0  0  0  0  0  0999 V3000
M  V30 BEGIN CTAB
M  V30 COUNTS 44 46 0 0 0
M  V30 BEGIN ATOM
M  V30 1 C 2.063612 -5.031086 -1.571163 0
M  V30 2 O 1.116770 -4.342529 -0.830680 0
M  V30 3 C 1.298510 -3.237008 -0.027290 0
M  V30 4 C 2.581867 -2.743973 0.057063 0
M  V30 5 C 2.796341 -1.622480 0.865455 0
M  V30 6 C 1.755519 -1.039441 1.547742 0
M  V30 7 C 1.882723 0.091822 2.435928 0
M  V30 8 C 2.790474 -0.296716 3.480905 0
M  V30 9 S 2.840603 1.084719 4.588263 0
M  V30 10 C 1.630265 2.122416 3.581402 0
M  V30 11 N 1.330323 3.419114 4.089618 0
M  V30 12 C 1.295264 1.305019 2.474766 0
M  V30 13 C 0.367264 1.882233 1.543472 0
M  V30 14 O -0.181794 2.915714 2.077676 0
M  V30 15 N -0.130196 1.691494 0.248119 0
M  V30 16 C -0.003173 0.847829 -0.901335 0
M  V30 17 C -1.316095 0.162541 -1.161034 0
M  V30 18 O -2.290324 0.557699 -0.270913 0
M  V30 19 C -2.505354 1.933599 -0.296321 0
M  V30 20 C -1.180049 2.638664 -0.185501 0
M  V30 21 C 0.463009 -1.567644 1.438238 0
M  V30 22 C 0.226437 -2.684390 0.639324 0
M  V30 23 O -0.996619 -3.304374 0.445958 0
M  V30 24 C -2.168876 -2.833768 1.077214 0
M  V30 25 H 3.022801 -4.545402 -1.741537 0
M  V30 26 H 2.227766 -6.070861 -1.211571 0
M  V30 27 H 1.612746 -5.174193 -2.598972 0
M  V30 28 H 3.478530 -3.092161 -0.411857 0
M  V30 29 H 3.748239 -1.139965 1.017563 0
M  V30 30 H 3.397634 -1.133780 3.747032 0
M  V30 31 H 1.993778 4.208029 3.927986 0
M  V30 32 H 0.416113 3.425559 4.600350 0
M  V30 33 H 0.215182 1.487288 -1.827200 0
M  V30 34 H 0.814325 0.088880 -0.832499 0
M  V30 35 H -1.674662 0.441337 -2.172465 0
M  V30 36 H -1.167981 -0.935598 -1.182025 0
M  V30 37 H -3.210665 2.238865 0.505938 0
M  V30 38 H -2.981265 2.176166 -1.262852 0
M  V30 39 H -1.258920 3.492843 0.534561 0
M  V30 40 H -0.939344 3.089500 -1.162893 0
M  V30 41 H -0.361387 -1.142682 1.947336 0
M  V30 42 H -2.677323 -2.057648 0.439828 0
M  V30 43 H -1.984978 -2.337763 2.048983 0
M  V30 44 H -2.939203 -3.638691 1.164974 0
M  V30 END ATOM
M  V30 BEGIN BOND
M  V30 1 1 1 2
M  V30 2 1 2 3
M  V30 3 2 3 4
M  V30 4 1 4 5
M  V30 5 2 5 6
M  V30 6 1 6 7
M  V30 7 2 7 8
M  V30 8 1 8 9
M  V30 9 1 9 10
M  V30 10 1 10 11
M  V30 11 2 10 12
M  V30 12 1 12 13
M  V30 13 2 13 14
M  V30 14 1 13 15
M  V30 15 1 15 16
M  V30 16 1 16 17
M  V30 17 1 17 18
M  V30 18 1 18 19
M  V30 19 1 19 20
M  V30 20 1 6 21
M  V30 21 2 21 22
M  V30 22 1 22 23
M  V30 23 1 23 24
M  V30 24 1 22 3
M  V30 25 1 12 7
M  V30 26 1 20 15
M  V30 27 1 1 25
M  V30 28 1 1 26
M  V30 29 1 1 27
M  V30 30 1 4 28
M  V30 31 1 5 29
M  V30 32 1 8 30
M  V30 33 1 11 31
M  V30 34 1 11 32
M  V30 35 1 16 33
M  V30 36 1 16 34
M  V30 37 1 17 35
M  V30 38 1 17 36
M  V30 39 1 19 37
M  V30 40 1 19 38
M  V30 41 1 20 39
M  V30 42 1 20 40
M  V30 43 1 21 41
M  V30 44 1 24 42
M  V30 45 1 24 43
M  V30 46 1 24 44
M  V30 END BOND
M  V30 END CTAB
M  END
>  <Dataset>  (468) 
ChEMBL_Kinases

>  <Ligand_Instance>  (468) 
nan

>  <PDB_ID>  (468) 
nan

>  <Standardized_SMILES>  (468) 
COc1ccc(-c2csc(N)c2C(=O)N2CCOCC2)cc1OC

>  <Name>  (468) 
nan

>  <Pocket>  (468) 
nan

>  <ATP_Site>  (468) 
nan

>  <Peripheral>  (468) 
nan

>  <Num_H_Atoms_ProtBoundConf>  (468) 
nan

>  <Num_Resolved_Atoms>  (468) 
nan

>  <Num_Not_Resolved_Atoms>  (468) 
nan

$$$$
CHEMBL3702548
     RDKit          3D

  0  0  0  0  0  0  0  0  0  0999 V3000
M  V30 BEGIN CTAB
M  V30 COUNTS 34 35 0 0 0
M  V30 BEGIN ATOM
M  V30 1 C -0.451688 -1.122252 3.931558 0
M  V30 2 C -0.564060 -2.055446 2.754776 0
M  V30 3 C -2.052061 -2.410739 2.648650 0
M  V30 4 N -0.175455 -1.467755 1.518674 0
M  V30 5 C 0.785219 -1.945424 0.630793 0
M  V30 6 O 1.222207 -3.002268 1.149938 0
M  V30 7 C 1.257581 -1.436582 -0.631136 0
M  V30 8 C 0.988694 -0.264851 -1.261675 0
M  V30 9 C 0.211111 0.876600 -0.834330 0
M  V30 10 C -0.873649 1.319791 -1.599428 0
M  V30 11 C -1.684678 2.405391 -1.348898 0
M  V30 12 C -1.363960 3.105975 -0.215982 0
M  V30 13 Cl -2.342491 4.508416 0.187494 0
M  V30 14 C -0.331263 2.779191 0.615900 0
M  V30 15 Cl 0.053244 3.692700 2.054224 0
M  V30 16 C 0.421392 1.677253 0.280485 0
M  V30 17 C 1.573992 -0.039048 -2.492342 0
M  V30 18 S 2.590147 -1.611546 -2.779892 0
M  V30 19 C 2.082926 -2.360396 -1.195065 0
M  V30 20 N 2.660728 -3.603492 -1.029657 0
M  V30 21 H 0.582064 -0.696147 3.921298 0
M  V30 22 H -0.528072 -1.747089 4.845446 0
M  V30 23 H -1.231919 -0.353924 3.987491 0
M  V30 24 H -0.016175 -2.977925 2.978086 0
M  V30 25 H -2.529178 -2.364345 3.658497 0
M  V30 26 H -2.512798 -1.656314 1.980317 0
M  V30 27 H -2.103770 -3.401109 2.191648 0
M  V30 28 H -0.711759 -0.603163 1.305060 0
M  V30 29 H -1.093561 0.729346 -2.496440 0
M  V30 30 H -2.489308 2.625877 -2.034275 0
M  V30 31 H 1.262600 1.369131 0.912355 0
M  V30 32 H 1.583170 0.730219 -3.232673 0
M  V30 33 H 2.334594 -4.452528 -1.552488 0
M  V30 34 H 3.444571 -3.791031 -0.390164 0
M  V30 END ATOM
M  V30 BEGIN BOND
M  V30 1 1 1 2
M  V30 2 1 2 3
M  V30 3 1 2 4
M  V30 4 1 4 5
M  V30 5 2 5 6
M  V30 6 1 5 7
M  V30 7 1 7 8
M  V30 8 1 8 9
M  V30 9 2 9 10
M  V30 10 1 10 11
M  V30 11 2 11 12
M  V30 12 1 12 13
M  V30 13 1 12 14
M  V30 14 1 14 15
M  V30 15 2 14 16
M  V30 16 2 8 17
M  V30 17 1 17 18
M  V30 18 1 18 19
M  V30 19 1 19 20
M  V30 20 2 19 7
M  V30 21 1 16 9
M  V30 22 1 1 21
M  V30 23 1 1 22
M  V30 24 1 1 23
M  V30 25 1 2 24
M  V30 26 1 3 25
M  V30 27 1 3 26
M  V30 28 1 3 27
M  V30 29 1 4 28
M  V30 30 1 10 29
M  V30 31 1 11 30
M  V30 32 1 16 31
M  V30 33 1 17 32
M  V30 34 1 20 33
M  V30 35 1 20 34
M  V30 END BOND
M  V30 END CTAB
M  END
>  <Dataset>  (469) 
ChEMBL_Kinases

>  <Ligand_Instance>  (469) 
nan

>  <PDB_ID>  (469) 
nan

>  <Standardized_SMILES>  (469) 
CC(C)NC(=O)c1c(-c2ccc(Cl)c(Cl)c2)csc1N

>  <Name>  (469) 
nan

>  <Pocket>  (469) 
nan

>  <ATP_Site>  (469) 
nan

>  <Peripheral>  (469) 
nan

>  <Num_H_Atoms_ProtBoundConf>  (469) 
nan

>  <Num_Resolved_Atoms>  (469) 
nan

>  <Num_Not_Resolved_Atoms>  (469) 
nan

$$$$
CHEMBL3751908
     RDKit          3D

  0  0  0  0  0  0  0  0  0  0999 V3000
M  V30 BEGIN CTAB
M  V30 COUNTS 31 32 0 0 0
M  V30 BEGIN ATOM
M  V30 1 C 0.085383 -1.178308 3.797909 0
M  V30 2 C 0.918105 -0.496426 2.765877 0
M  V30 3 N 2.202414 -0.149182 2.941892 0
M  V30 4 C 2.636728 0.440641 1.815942 0
M  V30 5 C 3.834393 0.977817 1.443917 0
M  V30 6 Br 5.336526 0.986794 2.646748 0
M  V30 7 C 4.038928 1.540144 0.198593 0
M  V30 8 Br 5.711400 2.290329 -0.320866 0
M  V30 9 C 2.989360 1.544450 -0.668458 0
M  V30 10 Br 3.227159 2.313300 -2.405381 0
M  V30 11 C 1.778432 0.995874 -0.278618 0
M  V30 12 Br 0.375486 1.051704 -1.567941 0
M  V30 13 C 1.552802 0.428991 0.961127 0
M  V30 14 N 0.473280 -0.145483 1.522481 0
M  V30 15 C -0.842295 -0.340411 0.942548 0
M  V30 16 C -0.956553 -1.652371 0.217249 0
M  V30 17 C -2.347224 -1.779701 -0.354789 0
M  V30 18 C -2.549698 -3.077637 -1.105674 0
M  V30 19 C -3.945300 -3.074099 -1.611183 0
M  V30 20 N -5.046797 -3.086202 -1.998757 0
M  V30 21 H 0.516985 -0.974311 4.808924 0
M  V30 22 H -0.953460 -0.766426 3.839044 0
M  V30 23 H 0.024634 -2.264158 3.618176 0
M  V30 24 H -1.251796 0.525321 0.425126 0
M  V30 25 H -1.520311 -0.458787 1.842992 0
M  V30 26 H -0.168007 -1.881675 -0.490490 0
M  V30 27 H -0.883119 -2.456324 1.007993 0
M  V30 28 H -3.126952 -1.761548 0.428788 0
M  V30 29 H -2.575949 -0.952378 -1.057401 0
M  V30 30 H -2.473727 -3.964577 -0.453652 0
M  V30 31 H -1.906191 -3.159676 -1.996653 0
M  V30 END ATOM
M  V30 BEGIN BOND
M  V30 1 1 1 2
M  V30 2 2 2 3
M  V30 3 1 3 4
M  V30 4 2 4 5
M  V30 5 1 5 6
M  V30 6 1 5 7
M  V30 7 1 7 8
M  V30 8 2 7 9
M  V30 9 1 9 10
M  V30 10 1 9 11
M  V30 11 1 11 12
M  V30 12 2 11 13
M  V30 13 1 13 14
M  V30 14 1 14 15
M  V30 15 1 15 16
M  V30 16 1 16 17
M  V30 17 1 17 18
M  V30 18 1 18 19
M  V30 19 3 19 20
M  V30 20 1 14 2
M  V30 21 1 13 4
M  V30 22 1 1 21
M  V30 23 1 1 22
M  V30 24 1 1 23
M  V30 25 1 15 24
M  V30 26 1 15 25
M  V30 27 1 16 26
M  V30 28 1 16 27
M  V30 29 1 17 28
M  V30 30 1 17 29
M  V30 31 1 18 30
M  V30 32 1 18 31
M  V30 END BOND
M  V30 END CTAB
M  END
>  <Dataset>  (470) 
ChEMBL_Kinases

>  <Ligand_Instance>  (470) 
nan

>  <PDB_ID>  (470) 
nan

>  <Standardized_SMILES>  (470) 
Cc1nc2c(Br)c(Br)c(Br)c(Br)c2n1CCCCC#N

>  <Name>  (470) 
nan

>  <Pocket>  (470) 
nan

>  <ATP_Site>  (470) 
nan

>  <Peripheral>  (470) 
nan

>  <Num_H_Atoms_ProtBoundConf>  (470) 
nan

>  <Num_Resolved_Atoms>  (470) 
nan

>  <Num_Not_Resolved_Atoms>  (470) 
nan

$$$$
CHEMBL3702549
     RDKit          3D

  0  0  0  0  0  0  0  0  0  0999 V3000
M  V30 BEGIN CTAB
M  V30 COUNTS 36 38 0 0 0
M  V30 BEGIN ATOM
M  V30 1 N 2.221347 -0.549587 4.492611 0
M  V30 2 C 2.061216 -1.221214 3.277702 0
M  V30 3 S 3.077065 -2.658936 3.040117 0
M  V30 4 C 2.446902 -3.070772 1.386064 0
M  V30 5 C 1.510276 -2.047118 1.185921 0
M  V30 6 C 0.993113 -2.241570 -0.155880 0
M  V30 7 C 0.343376 -3.346417 -0.659203 0
M  V30 8 C -0.058923 -3.387305 -1.989997 0
M  V30 9 C 0.203506 -2.305821 -2.793944 0
M  V30 10 Cl -0.349502 -2.472672 -4.448004 0
M  V30 11 C 0.861137 -1.171623 -2.310386 0
M  V30 12 Cl 1.087133 0.068361 -3.497847 0
M  V30 13 C 1.264747 -1.133956 -0.969398 0
M  V30 14 C 1.301913 -1.108358 2.128558 0
M  V30 15 C 0.376069 0.003171 2.071586 0
M  V30 16 O 0.618250 0.855883 3.008686 0
M  V30 17 N -0.727338 0.505254 1.346990 0
M  V30 18 C -1.594824 0.174175 0.235458 0
M  V30 19 C -1.391206 1.168964 -0.885980 0
M  V30 20 O -1.861467 2.426664 -0.458866 0
M  V30 21 C -1.059620 2.783454 0.609921 0
M  V30 22 C -1.285684 1.803842 1.727097 0
M  V30 23 H 1.599426 -0.198750 5.228979 0
M  V30 24 H 3.161848 -0.273802 4.865333 0
M  V30 25 H 2.860282 -3.933080 0.908382 0
M  V30 26 H 0.191892 -4.143493 0.078261 0
M  V30 27 H -0.561281 -4.291447 -2.299525 0
M  V30 28 H 1.766081 -0.221198 -0.676787 0
M  V30 29 H -2.687140 0.248480 0.501780 0
M  V30 30 H -1.432590 -0.850759 -0.126776 0
M  V30 31 H -2.037101 0.843501 -1.721219 0
M  V30 32 H -0.334689 1.255595 -1.142488 0
M  V30 33 H -0.001787 2.598839 0.260859 0
M  V30 34 H -1.187987 3.830573 0.946125 0
M  V30 35 H -2.362545 1.774254 1.957442 0
M  V30 36 H -0.798228 2.159998 2.673413 0
M  V30 END ATOM
M  V30 BEGIN BOND
M  V30 1 1 1 2
M  V30 2 1 2 3
M  V30 3 1 3 4
M  V30 4 2 4 5
M  V30 5 1 5 6
M  V30 6 2 6 7
M  V30 7 1 7 8
M  V30 8 2 8 9
M  V30 9 1 9 10
M  V30 10 1 9 11
M  V30 11 1 11 12
M  V30 12 2 11 13
M  V30 13 1 5 14
M  V30 14 1 14 15
M  V30 15 2 15 16
M  V30 16 1 15 17
M  V30 17 1 17 18
M  V30 18 1 18 19
M  V30 19 1 19 20
M  V30 20 1 20 21
M  V30 21 1 21 22
M  V30 22 2 14 2
M  V30 23 1 22 17
M  V30 24 1 13 6
M  V30 25 1 1 23
M  V30 26 1 1 24
M  V30 27 1 4 25
M  V30 28 1 7 26
M  V30 29 1 8 27
M  V30 30 1 13 28
M  V30 31 1 18 29
M  V30 32 1 18 30
M  V30 33 1 19 31
M  V30 34 1 19 32
M  V30 35 1 21 33
M  V30 36 1 21 34
M  V30 37 1 22 35
M  V30 38 1 22 36
M  V30 END BOND
M  V30 END CTAB
M  END
>  <Dataset>  (471) 
ChEMBL_Kinases

>  <Ligand_Instance>  (471) 
nan

>  <PDB_ID>  (471) 
nan

>  <Standardized_SMILES>  (471) 
Nc1scc(-c2ccc(Cl)c(Cl)c2)c1C(=O)N1CCOCC1

>  <Name>  (471) 
nan

>  <Pocket>  (471) 
nan

>  <ATP_Site>  (471) 
nan

>  <Peripheral>  (471) 
nan

>  <Num_H_Atoms_ProtBoundConf>  (471) 
nan

>  <Num_Resolved_Atoms>  (471) 
nan

>  <Num_Not_Resolved_Atoms>  (471) 
nan

$$$$
CHEMBL3702550
     RDKit          3D

  0  0  0  0  0  0  0  0  0  0999 V3000
M  V30 BEGIN CTAB
M  V30 COUNTS 31 32 0 0 0
M  V30 BEGIN ATOM
M  V30 1 C -1.585570 -1.510068 3.969220 0
M  V30 2 C -2.203636 -1.258389 2.623226 0
M  V30 3 N -1.214890 -0.992433 1.586139 0
M  V30 4 C -0.262183 -1.979488 1.309953 0
M  V30 5 O -0.541858 -2.925495 2.096631 0
M  V30 6 C 0.835060 -2.048120 0.376974 0
M  V30 7 C 1.311222 -1.081931 -0.420554 0
M  V30 8 C 0.986728 0.318754 -0.582498 0
M  V30 9 C 0.602235 0.828854 -1.830482 0
M  V30 10 C 0.298127 2.123777 -2.160540 0
M  V30 11 C 0.394100 3.004835 -1.106383 0
M  V30 12 Cl 0.026299 4.700593 -1.409216 0
M  V30 13 C 0.759858 2.643026 0.171139 0
M  V30 14 Cl 0.869899 3.794881 1.483662 0
M  V30 15 C 1.043987 1.319758 0.396185 0
M  V30 16 C 2.400673 -1.435023 -1.259732 0
M  V30 17 S 2.703274 -3.184825 -0.853776 0
M  V30 18 C 1.370247 -3.279290 0.375310 0
M  V30 19 N 1.258030 -4.551704 0.968334 0
M  V30 20 H -0.638929 -0.935746 4.123756 0
M  V30 21 H -1.494548 -2.580317 4.203043 0
M  V30 22 H -2.300225 -1.103432 4.740618 0
M  V30 23 H -2.756504 -2.206001 2.357263 0
M  V30 24 H -2.874549 -0.397786 2.677873 0
M  V30 25 H -1.210795 -0.111072 1.049353 0
M  V30 26 H 0.544796 0.073127 -2.630074 0
M  V30 27 H 0.016105 2.373223 -3.167391 0
M  V30 28 H 1.337762 0.973418 1.381143 0
M  V30 29 H 3.007237 -0.933950 -1.997037 0
M  V30 30 H 2.100302 -5.026871 1.411942 0
M  V30 31 H 0.372383 -5.136618 1.031383 0
M  V30 END ATOM
M  V30 BEGIN BOND
M  V30 1 1 1 2
M  V30 2 1 2 3
M  V30 3 1 3 4
M  V30 4 2 4 5
M  V30 5 1 4 6
M  V30 6 1 6 7
M  V30 7 1 7 8
M  V30 8 2 8 9
M  V30 9 1 9 10
M  V30 10 2 10 11
M  V30 11 1 11 12
M  V30 12 1 11 13
M  V30 13 1 13 14
M  V30 14 2 13 15
M  V30 15 2 7 16
M  V30 16 1 16 17
M  V30 17 1 17 18
M  V30 18 1 18 19
M  V30 19 2 18 6
M  V30 20 1 15 8
M  V30 21 1 1 20
M  V30 22 1 1 21
M  V30 23 1 1 22
M  V30 24 1 2 23
M  V30 25 1 2 24
M  V30 26 1 3 25
M  V30 27 1 9 26
M  V30 28 1 10 27
M  V30 29 1 15 28
M  V30 30 1 16 29
M  V30 31 1 19 30
M  V30 32 1 19 31
M  V30 END BOND
M  V30 END CTAB
M  END
>  <Dataset>  (472) 
ChEMBL_Kinases

>  <Ligand_Instance>  (472) 
nan

>  <PDB_ID>  (472) 
nan

>  <Standardized_SMILES>  (472) 
CCNC(=O)c1c(-c2ccc(Cl)c(Cl)c2)csc1N

>  <Name>  (472) 
nan

>  <Pocket>  (472) 
nan

>  <ATP_Site>  (472) 
nan

>  <Peripheral>  (472) 
nan

>  <Num_H_Atoms_ProtBoundConf>  (472) 
nan

>  <Num_Resolved_Atoms>  (472) 
nan

>  <Num_Not_Resolved_Atoms>  (472) 
nan

$$$$
CHEMBL3702551
     RDKit          3D

  0  0  0  0  0  0  0  0  0  0999 V3000
M  V30 BEGIN CTAB
M  V30 COUNTS 30 31 0 0 0
M  V30 BEGIN ATOM
M  V30 1 C -2.894804 -1.739981 2.320152 0
M  V30 2 C -1.744701 -1.925818 3.285888 0
M  V30 3 O -0.540989 -2.300438 2.623423 0
M  V30 4 C 0.049027 -1.502477 1.661707 0
M  V30 5 O -0.808549 -0.596660 1.719060 0
M  V30 6 C 1.269613 -1.800999 0.937145 0
M  V30 7 C 1.719522 -0.918879 0.016671 0
M  V30 8 C 1.165658 0.337919 -0.457830 0
M  V30 9 C -0.117017 0.539594 -0.922093 0
M  V30 10 C -0.599356 1.758347 -1.345295 0
M  V30 11 C 0.270403 2.820728 -1.291829 0
M  V30 12 F -0.178347 4.032353 -1.702451 0
M  V30 13 C 1.549499 2.724936 -0.852275 0
M  V30 14 C 1.972947 1.480778 -0.442617 0
M  V30 15 C 2.910412 -1.295275 -0.598272 0
M  V30 16 S 3.344168 -2.865347 0.138961 0
M  V30 17 C 1.926898 -2.966672 1.239778 0
M  V30 18 N 1.642314 -3.984149 2.129364 0
M  V30 19 H -2.633006 -2.061055 1.302313 0
M  V30 20 H -3.807402 -2.254767 2.718891 0
M  V30 21 H -3.091611 -0.632118 2.252259 0
M  V30 22 H -1.641748 -1.048931 3.927662 0
M  V30 23 H -1.998655 -2.789125 3.962944 0
M  V30 24 H -0.774496 -0.299946 -0.964865 0
M  V30 25 H -1.627626 1.839627 -1.699605 0
M  V30 26 H 2.199478 3.586202 -0.827156 0
M  V30 27 H 2.986301 1.359575 -0.084561 0
M  V30 28 H 3.540734 -0.861085 -1.348550 0
M  V30 29 H 0.831968 -4.641766 1.928195 0
M  V30 30 H 2.282242 -4.011716 2.955887 0
M  V30 END ATOM
M  V30 BEGIN BOND
M  V30 1 1 1 2
M  V30 2 1 2 3
M  V30 3 1 3 4
M  V30 4 2 4 5
M  V30 5 1 4 6
M  V30 6 1 6 7
M  V30 7 1 7 8
M  V30 8 2 8 9
M  V30 9 1 9 10
M  V30 10 2 10 11
M  V30 11 1 11 12
M  V30 12 1 11 13
M  V30 13 2 13 14
M  V30 14 2 7 15
M  V30 15 1 15 16
M  V30 16 1 16 17
M  V30 17 1 17 18
M  V30 18 2 17 6
M  V30 19 1 14 8
M  V30 20 1 1 19
M  V30 21 1 1 20
M  V30 22 1 1 21
M  V30 23 1 2 22
M  V30 24 1 2 23
M  V30 25 1 9 24
M  V30 26 1 10 25
M  V30 27 1 13 26
M  V30 28 1 14 27
M  V30 29 1 15 28
M  V30 30 1 18 29
M  V30 31 1 18 30
M  V30 END BOND
M  V30 END CTAB
M  END
>  <Dataset>  (473) 
ChEMBL_Kinases

>  <Ligand_Instance>  (473) 
nan

>  <PDB_ID>  (473) 
nan

>  <Standardized_SMILES>  (473) 
CCOC(=O)c1c(-c2ccc(F)cc2)csc1N

>  <Name>  (473) 
nan

>  <Pocket>  (473) 
nan

>  <ATP_Site>  (473) 
nan

>  <Peripheral>  (473) 
nan

>  <Num_H_Atoms_ProtBoundConf>  (473) 
nan

>  <Num_Resolved_Atoms>  (473) 
nan

>  <Num_Not_Resolved_Atoms>  (473) 
nan

$$$$
CHEMBL375144
     RDKit          3D

  0  0  0  0  0  0  0  0  0  0999 V3000
M  V30 BEGIN CTAB
M  V30 COUNTS 57 60 0 0 0
M  V30 BEGIN ATOM
M  V30 1 C 3.785617 -2.391836 0.194825 0
M  V30 2 N 4.086021 -1.934770 1.514147 0
M  V30 3 C 4.045018 -2.700878 2.612480 0
M  V30 4 N 4.408764 -1.924030 3.641070 0
M  V30 5 C 4.663299 -0.702390 3.149207 0
M  V30 6 C 4.460053 -0.687597 1.774615 0
M  V30 7 C 4.675673 0.593180 1.085161 0
M  V30 8 N 3.576730 1.502922 1.179435 0
M  V30 9 C 2.252069 1.768768 0.834042 0
M  V30 10 C 1.708062 0.773207 0.053574 0
M  V30 11 C 0.430331 0.758474 -0.446019 0
M  V30 12 C -0.362835 1.878661 -0.108819 0
M  V30 13 C 0.175410 2.878584 0.671252 0
M  V30 14 C 1.462202 2.855436 1.153087 0
M  V30 15 Cl 2.220417 4.066402 2.139369 0
M  V30 16 N -1.723504 2.213332 -0.445676 0
M  V30 17 C -2.977652 1.575222 -0.233771 0
M  V30 18 O -2.002772 0.967498 0.243196 0
M  V30 19 N -4.228459 0.939301 -0.022716 0
M  V30 20 C -4.558707 -0.310612 0.627435 0
M  V30 21 C -5.561654 -0.346956 1.553340 0
M  V30 22 N -5.780598 -1.557975 2.092973 0
M  V30 23 C -5.052447 -2.628710 1.729079 0
M  V30 24 C -5.335100 -3.906508 2.345703 0
M  V30 25 N -5.553719 -4.945621 2.827121 0
M  V30 26 C -4.036729 -2.558556 0.782668 0
M  V30 27 N -3.827400 -1.349313 0.251069 0
M  V30 28 O -3.275987 -3.684804 0.410020 0
M  V30 29 C -1.848713 -3.618804 0.494872 0
M  V30 30 C -1.318495 -2.527644 -0.411095 0
M  V30 31 C -1.458229 -2.839192 -1.873474 0
M  V30 32 C -1.242844 -1.652217 -2.741004 0
M  V30 33 C -0.065290 -0.766568 -2.400780 0
M  V30 34 O -0.231980 -0.122108 -1.204043 0
M  V30 35 H 4.177435 -1.721345 -0.586941 0
M  V30 36 H 2.679340 -2.437181 0.087340 0
M  V30 37 H 4.187298 -3.433156 0.050775 0
M  V30 38 H 3.766810 -3.749096 2.638743 0
M  V30 39 H 4.973554 0.040060 3.882453 0
M  V30 40 H 5.629378 1.018590 1.400064 0
M  V30 41 H 4.810788 0.339113 -0.019775 0
M  V30 42 H 3.892832 2.340667 1.765398 0
M  V30 43 H 2.192988 -0.121700 -0.281802 0
M  V30 44 H -0.333700 3.788142 0.993761 0
M  V30 45 H -1.818440 3.141703 -0.964342 0
M  V30 46 H -5.047292 1.448006 -0.415587 0
M  V30 47 H -6.056670 0.590781 1.740706 0
M  V30 48 H -1.532677 -3.517420 1.543993 0
M  V30 49 H -1.468016 -4.583018 0.114688 0
M  V30 50 H -1.611008 -1.539948 -0.116947 0
M  V30 51 H -0.187807 -2.560259 -0.228993 0
M  V30 52 H -0.753850 -3.658684 -2.162949 0
M  V30 53 H -2.505898 -3.188568 -2.028751 0
M  V30 54 H -2.145984 -0.978373 -2.694718 0
M  V30 55 H -1.208092 -1.963100 -3.813996 0
M  V30 56 H 0.894626 -1.355327 -2.462057 0
M  V30 57 H 0.019848 -0.027538 -3.222314 0
M  V30 END ATOM
M  V30 BEGIN BOND
M  V30 1 1 1 2
M  V30 2 1 2 3
M  V30 3 2 3 4
M  V30 4 1 4 5
M  V30 5 2 5 6
M  V30 6 1 6 7
M  V30 7 1 7 8
M  V30 8 1 8 9
M  V30 9 2 9 10
M  V30 10 1 10 11
M  V30 11 2 11 12
M  V30 12 1 12 13
M  V30 13 2 13 14
M  V30 14 1 14 15
M  V30 15 1 12 16
M  V30 16 1 16 17
M  V30 17 2 17 18
M  V30 18 1 17 19
M  V30 19 1 19 20
M  V30 20 1 20 21
M  V30 21 2 21 22
M  V30 22 1 22 23
M  V30 23 1 23 24
M  V30 24 3 24 25
M  V30 25 2 23 26
M  V30 26 1 26 27
M  V30 27 1 26 28
M  V30 28 1 28 29
M  V30 29 1 29 30
M  V30 30 1 30 31
M  V30 31 1 31 32
M  V30 32 1 32 33
M  V30 33 1 33 34
M  V30 34 1 6 2
M  V30 35 1 14 9
M  V30 36 2 27 20
M  V30 37 1 34 11
M  V30 38 1 1 35
M  V30 39 1 1 36
M  V30 40 1 1 37
M  V30 41 1 3 38
M  V30 42 1 5 39
M  V30 43 1 7 40
M  V30 44 1 7 41
M  V30 45 1 8 42
M  V30 46 1 10 43
M  V30 47 1 13 44
M  V30 48 1 16 45
M  V30 49 1 19 46
M  V30 50 1 21 47
M  V30 51 1 29 48
M  V30 52 1 29 49
M  V30 53 1 30 50
M  V30 54 1 30 51
M  V30 55 1 31 52
M  V30 56 1 31 53
M  V30 57 1 32 54
M  V30 58 1 32 55
M  V30 59 1 33 56
M  V30 60 1 33 57
M  V30 END BOND
M  V30 END CTAB
M  END
>  <Dataset>  (474) 
ChEMBL_Kinases

>  <Ligand_Instance>  (474) 
nan

>  <PDB_ID>  (474) 
nan

>  <Standardized_SMILES>  (474) 
Cn1cncc1CNc1cc2c(cc1Cl)NC(=O)Nc1cnc(C#N)c(n1)OCCCCCO2

>  <Name>  (474) 
nan

>  <Pocket>  (474) 
nan

>  <ATP_Site>  (474) 
nan

>  <Peripheral>  (474) 
nan

>  <Num_H_Atoms_ProtBoundConf>  (474) 
nan

>  <Num_Resolved_Atoms>  (474) 
nan

>  <Num_Not_Resolved_Atoms>  (474) 
nan

$$$$
CHEMBL5092329
     RDKit          3D

  0  0  0  0  0  0  0  0  0  0999 V3000
M  V30 BEGIN CTAB
M  V30 COUNTS 63 68 0 0 0
M  V30 BEGIN ATOM
M  V30 1 O 2.106788 0.591479 2.258393 0
M  V30 2 S 3.046933 -0.530586 2.528320 0
M  V30 3 O 3.711147 -0.379412 3.879338 0
M  V30 4 N 4.296616 -0.704072 1.371341 0
M  V30 5 C 4.183501 0.223148 0.316576 0
M  V30 6 C 3.596344 -0.225757 -0.966742 0
M  V30 7 N 2.266253 -0.697642 -0.986247 0
M  V30 8 C 1.093863 0.077241 -0.778139 0
M  V30 9 N 1.099460 1.403236 -0.557362 0
M  V30 10 C 0.014941 2.161590 -0.367160 0
M  V30 11 C -1.213148 1.515824 -0.402704 0
M  V30 12 C -1.284892 0.167287 -0.623205 0
M  V30 13 C -2.588689 -0.480028 -0.658652 0
M  V30 14 C -3.434222 -0.103578 -1.669871 0
M  V30 15 C -3.464278 0.796927 -2.813969 0
M  V30 16 C -4.380122 1.849740 -2.871088 0
M  V30 17 C -4.344100 2.657828 -3.990689 0
M  V30 18 C -3.446510 2.454050 -5.028328 0
M  V30 19 C -2.569036 1.401981 -4.916561 0
M  V30 20 O -1.614653 1.101359 -5.907851 0
M  V30 21 C -2.532295 0.535024 -3.825051 0
M  V30 22 N -4.568000 -0.812128 -1.517359 0
M  V30 23 C -4.456322 -1.612417 -0.451098 0
M  V30 24 S -5.132752 -2.902312 0.717057 0
M  V30 25 C -3.645927 -2.987703 1.778223 0
M  V30 26 C -2.793364 -2.060461 1.173868 0
M  V30 27 N -3.199190 -1.401574 0.094430 0
M  V30 28 N -0.126637 -0.439617 -0.792271 0
M  V30 29 C 4.348392 -2.083527 1.058282 0
M  V30 30 C 3.185490 -2.809331 1.574347 0
M  V30 31 N 2.360915 -2.082568 2.435071 0
M  V30 32 C 0.956218 -2.151008 2.292986 0
M  V30 33 C 0.295401 -2.253176 3.634065 0
M  V30 34 C 0.015466 -3.480445 4.206101 0
M  V30 35 C -0.578747 -3.693623 5.424323 0
M  V30 36 C -0.919606 -2.536438 6.125631 0
M  V30 37 C -0.674030 -1.256594 5.624345 0
M  V30 38 C -0.071698 -1.158978 4.388991 0
M  V30 39 H 5.235681 0.573157 0.075860 0
M  V30 40 H 3.667065 1.173422 0.599522 0
M  V30 41 H 4.282937 -0.974503 -1.420469 0
M  V30 42 H 3.631477 0.661459 -1.688774 0
M  V30 43 H 2.097357 -1.731157 -1.174225 0
M  V30 44 H 0.186866 3.233384 -0.198702 0
M  V30 45 H -2.086394 2.137335 -0.247525 0
M  V30 46 H -5.072146 2.001936 -2.065663 0
M  V30 47 H -5.030367 3.486785 -4.085845 0
M  V30 48 H -3.369878 3.048967 -5.923342 0
M  V30 49 H -1.627757 1.614386 -6.784724 0
M  V30 50 H -1.846022 -0.293838 -3.729497 0
M  V30 51 H -3.728787 -3.654807 2.553367 0
M  V30 52 H -1.890985 -2.056731 1.752537 0
M  V30 53 H 5.256852 -2.482989 1.611749 0
M  V30 54 H 4.552749 -2.352428 0.011033 0
M  V30 55 H 2.561330 -3.139536 0.690900 0
M  V30 56 H 3.499201 -3.805650 2.020491 0
M  V30 57 H 0.497573 -1.275752 1.791745 0
M  V30 58 H 0.689481 -3.062078 1.736581 0
M  V30 59 H 0.309896 -4.342061 3.597741 0
M  V30 60 H -0.781358 -4.662509 5.837770 0
M  V30 61 H -1.395875 -2.565913 7.102866 0
M  V30 62 H -0.954695 -0.383871 6.203107 0
M  V30 63 H 0.120823 -0.173314 3.996447 0
M  V30 END ATOM
M  V30 BEGIN BOND
M  V30 1 2 1 2
M  V30 2 2 2 3
M  V30 3 1 2 4
M  V30 4 1 4 5
M  V30 5 1 5 6
M  V30 6 1 6 7
M  V30 7 1 7 8
M  V30 8 2 8 9
M  V30 9 1 9 10
M  V30 10 2 10 11
M  V30 11 1 11 12
M  V30 12 1 12 13
M  V30 13 2 13 14
M  V30 14 1 14 15
M  V30 15 2 15 16
M  V30 16 1 16 17
M  V30 17 2 17 18
M  V30 18 1 18 19
M  V30 19 1 19 20
M  V30 20 2 19 21
M  V30 21 1 14 22
M  V30 22 2 22 23
M  V30 23 1 23 24
M  V30 24 1 24 25
M  V30 25 2 25 26
M  V30 26 1 26 27
M  V30 27 2 12 28
M  V30 28 1 4 29
M  V30 29 1 29 30
M  V30 30 1 30 31
M  V30 31 1 31 32
M  V30 32 1 32 33
M  V30 33 2 33 34
M  V30 34 1 34 35
M  V30 35 2 35 36
M  V30 36 1 36 37
M  V30 37 2 37 38
M  V30 38 1 31 2
M  V30 39 1 38 33
M  V30 40 1 28 8
M  V30 41 1 27 13
M  V30 42 1 21 15
M  V30 43 1 27 23
M  V30 44 1 5 39
M  V30 45 1 5 40
M  V30 46 1 6 41
M  V30 47 1 6 42
M  V30 48 1 7 43
M  V30 49 1 10 44
M  V30 50 1 11 45
M  V30 51 1 16 46
M  V30 52 1 17 47
M  V30 53 1 18 48
M  V30 54 1 20 49
M  V30 55 1 21 50
M  V30 56 1 25 51
M  V30 57 1 26 52
M  V30 58 1 29 53
M  V30 59 1 29 54
M  V30 60 1 30 55
M  V30 61 1 30 56
M  V30 62 1 32 57
M  V30 63 1 32 58
M  V30 64 1 34 59
M  V30 65 1 35 60
M  V30 66 1 36 61
M  V30 67 1 37 62
M  V30 68 1 38 63
M  V30 END BOND
M  V30 END CTAB
M  END
>  <Dataset>  (475) 
ChEMBL_Kinases

>  <Ligand_Instance>  (475) 
nan

>  <PDB_ID>  (475) 
nan

>  <Standardized_SMILES>  (475) 
O=S1(=O)N(CCNc2nccc(-c3c(-c4cccc(O)c4)nc4sccn34)n2)CCN1Cc1ccccc1

>  <Name>  (475) 
nan

>  <Pocket>  (475) 
nan

>  <ATP_Site>  (475) 
nan

>  <Peripheral>  (475) 
nan

>  <Num_H_Atoms_ProtBoundConf>  (475) 
nan

>  <Num_Resolved_Atoms>  (475) 
nan

>  <Num_Not_Resolved_Atoms>  (475) 
nan

$$$$
CHEMBL5092007
     RDKit          3D

  0  0  0  0  0  0  0  0  0  0999 V3000
M  V30 BEGIN CTAB
M  V30 COUNTS 54 58 0 0 0
M  V30 BEGIN ATOM
M  V30 1 O 3.189319 -3.762035 2.384790 0
M  V30 2 S 1.919315 -3.619831 1.560650 0
M  V30 3 O 2.267401 -4.090549 0.188433 0
M  V30 4 N 1.528803 -1.931902 1.504874 0
M  V30 5 C 1.320823 -1.404394 2.819505 0
M  V30 6 C 0.980185 0.071970 2.826086 0
M  V30 7 N 2.004350 0.871683 2.160834 0
M  V30 8 C 2.034953 1.075881 0.734414 0
M  V30 9 N 3.082511 1.578402 0.024032 0
M  V30 10 C 2.938069 1.769501 -1.311995 0
M  V30 11 C 1.770377 1.474824 -1.979788 0
M  V30 12 C 0.718791 0.966709 -1.246433 0
M  V30 13 C -0.530781 0.676741 -1.941044 0
M  V30 14 C -1.634705 1.415983 -1.535828 0
M  V30 15 C -1.769623 2.440346 -0.514150 0
M  V30 16 C -1.809839 2.267272 0.850088 0
M  V30 17 C -1.913232 3.295162 1.756907 0
M  V30 18 C -1.979786 4.582943 1.232677 0
M  V30 19 C -1.941732 4.779689 -0.133449 0
M  V30 20 C -1.838125 3.739719 -1.028600 0
M  V30 21 N -2.697054 1.043354 -2.262458 0
M  V30 22 C -2.229162 0.081981 -3.100850 0
M  V30 23 S -2.746654 -1.024857 -4.412370 0
M  V30 24 C -1.011461 -1.765938 -4.618369 0
M  V30 25 C -0.222779 -1.035368 -3.608688 0
M  V30 26 N -0.931279 -0.149380 -2.920815 0
M  V30 27 N 0.885784 0.784004 0.081435 0
M  V30 28 C 0.637255 -4.569545 2.243040 0
M  V30 29 C 0.364142 -4.851546 3.565588 0
M  V30 30 C -0.709171 -5.651791 3.898538 0
M  V30 31 C -1.528408 -6.186361 2.934301 0
M  V30 32 O -2.600184 -6.990676 3.301911 0
M  V30 33 C -1.307554 -5.939992 1.575423 0
M  V30 34 C -0.221951 -5.134278 1.309416 0
M  V30 35 H 2.272563 -1.406125 0.978126 0
M  V30 36 H 2.220762 -1.511780 3.465547 0
M  V30 37 H 0.478223 -1.961853 3.304674 0
M  V30 38 H -0.002569 0.246996 2.357724 0
M  V30 39 H 0.983869 0.415410 3.889216 0
M  V30 40 H 2.798379 1.361885 2.651749 0
M  V30 41 H 3.809098 2.175381 -1.850053 0
M  V30 42 H 1.714255 1.648074 -3.043920 0
M  V30 43 H -1.749685 1.193341 1.062545 0
M  V30 44 H -1.934493 3.006165 2.810501 0
M  V30 45 H -2.060071 5.376964 1.959803 0
M  V30 46 H -1.993157 5.794530 -0.500862 0
M  V30 47 H -1.812334 3.965787 -2.096929 0
M  V30 48 H -0.462185 -2.584401 -5.287628 0
M  V30 49 H 0.815263 -1.315905 -3.566565 0
M  V30 50 H 1.073988 -4.375675 4.251628 0
M  V30 51 H -0.862725 -5.832108 4.951900 0
M  V30 52 H -3.373695 -7.193857 2.679194 0
M  V30 53 H -1.946559 -6.358719 0.827387 0
M  V30 54 H -0.096567 -4.975281 0.226558 0
M  V30 END ATOM
M  V30 BEGIN BOND
M  V30 1 2 1 2
M  V30 2 2 2 3
M  V30 3 1 2 4
M  V30 4 1 4 5
M  V30 5 1 5 6
M  V30 6 1 6 7
M  V30 7 1 7 8
M  V30 8 2 8 9
M  V30 9 1 9 10
M  V30 10 2 10 11
M  V30 11 1 11 12
M  V30 12 1 12 13
M  V30 13 2 13 14
M  V30 14 1 14 15
M  V30 15 2 15 16
M  V30 16 1 16 17
M  V30 17 2 17 18
M  V30 18 1 18 19
M  V30 19 2 19 20
M  V30 20 1 14 21
M  V30 21 2 21 22
M  V30 22 1 22 23
M  V30 23 1 23 24
M  V30 24 2 24 25
M  V30 25 1 25 26
M  V30 26 2 12 27
M  V30 27 1 2 28
M  V30 28 2 28 29
M  V30 29 1 29 30
M  V30 30 2 30 31
M  V30 31 1 31 32
M  V30 32 1 31 33
M  V30 33 2 33 34
M  V30 34 1 27 8
M  V30 35 1 34 28
M  V30 36 1 26 13
M  V30 37 1 20 15
M  V30 38 1 26 22
M  V30 39 1 4 35
M  V30 40 1 5 36
M  V30 41 1 5 37
M  V30 42 1 6 38
M  V30 43 1 6 39
M  V30 44 1 7 40
M  V30 45 1 10 41
M  V30 46 1 11 42
M  V30 47 1 16 43
M  V30 48 1 17 44
M  V30 49 1 18 45
M  V30 50 1 19 46
M  V30 51 1 20 47
M  V30 52 1 24 48
M  V30 53 1 25 49
M  V30 54 1 29 50
M  V30 55 1 30 51
M  V30 56 1 32 52
M  V30 57 1 33 53
M  V30 58 1 34 54
M  V30 END BOND
M  V30 END CTAB
M  END
>  <Dataset>  (476) 
ChEMBL_Kinases

>  <Ligand_Instance>  (476) 
nan

>  <PDB_ID>  (476) 
nan

>  <Standardized_SMILES>  (476) 
O=S(=O)(NCCNc1nccc(-c2c(-c3ccccc3)nc3sccn23)n1)c1ccc(O)cc1

>  <Name>  (476) 
nan

>  <Pocket>  (476) 
nan

>  <ATP_Site>  (476) 
nan

>  <Peripheral>  (476) 
nan

>  <Num_H_Atoms_ProtBoundConf>  (476) 
nan

>  <Num_Resolved_Atoms>  (476) 
nan

>  <Num_Not_Resolved_Atoms>  (476) 
nan

$$$$
CHEMBL5092022
     RDKit          3D

  0  0  0  0  0  0  0  0  0  0999 V3000
M  V30 BEGIN CTAB
M  V30 COUNTS 28 30 0 0 0
M  V30 BEGIN ATOM
M  V30 1 N -2.660660 -3.564035 1.653684 0
M  V30 2 C -1.449494 -2.906015 2.009905 0
M  V30 3 C -0.966799 -1.860247 1.250603 0
M  V30 4 C 0.188318 -1.144321 1.488165 0
M  V30 5 C 0.577315 -0.056541 0.593936 0
M  V30 6 C 1.276609 0.986714 1.192236 0
M  V30 7 C 1.673030 2.051497 0.386528 0
M  V30 8 C 1.346545 2.011336 -0.974183 0
M  V30 9 N 1.616197 2.909935 -1.943164 0
M  V30 10 C 1.116183 2.474964 -3.122724 0
M  V30 11 C 0.522902 1.257481 -2.827082 0
M  V30 12 N 0.667109 0.977622 -1.507183 0
M  V30 13 C 0.265237 -0.076918 -0.750330 0
M  V30 14 C 0.937808 -1.501513 2.586958 0
M  V30 15 C 0.461989 -2.543230 3.347992 0
M  V30 16 N 1.203102 -2.948658 4.495301 0
M  V30 17 N -0.682993 -3.229203 3.085417 0
M  V30 18 H -2.605421 -4.438329 1.074873 0
M  V30 19 H -3.583632 -3.159656 1.978318 0
M  V30 20 H -1.543859 -1.567640 0.384418 0
M  V30 21 H 1.525240 1.010229 2.244531 0
M  V30 22 H 2.211852 2.859492 0.837859 0
M  V30 23 H 1.139425 2.929575 -4.117969 0
M  V30 24 H 0.020879 0.636049 -3.563393 0
M  V30 25 H -0.278937 -0.903174 -1.181729 0
M  V30 26 H 1.836931 -0.968701 2.799188 0
M  V30 27 H 2.020340 -3.499438 4.151504 0
M  V30 28 H 1.370387 -2.990259 5.528950 0
M  V30 END ATOM
M  V30 BEGIN BOND
M  V30 1 1 1 2
M  V30 2 2 2 3
M  V30 3 1 3 4
M  V30 4 1 4 5
M  V30 5 1 5 6
M  V30 6 2 6 7
M  V30 7 1 7 8
M  V30 8 2 8 9
M  V30 9 1 9 10
M  V30 10 2 10 11
M  V30 11 1 11 12
M  V30 12 1 12 13
M  V30 13 2 4 14
M  V30 14 1 14 15
M  V30 15 1 15 16
M  V30 16 2 15 17
M  V30 17 1 17 2
M  V30 18 2 13 5
M  V30 19 1 12 8
M  V30 20 1 1 18
M  V30 21 1 1 19
M  V30 22 1 3 20
M  V30 23 1 6 21
M  V30 24 1 7 22
M  V30 25 1 10 23
M  V30 26 1 11 24
M  V30 27 1 13 25
M  V30 28 1 14 26
M  V30 29 1 16 27
M  V30 30 1 16 28
M  V30 END BOND
M  V30 END CTAB
M  END
>  <Dataset>  (477) 
ChEMBL_Kinases

>  <Ligand_Instance>  (477) 
nan

>  <PDB_ID>  (477) 
nan

>  <Standardized_SMILES>  (477) 
Nc1cc(-c2ccc3nccn3c2)cc(N)n1

>  <Name>  (477) 
nan

>  <Pocket>  (477) 
nan

>  <ATP_Site>  (477) 
nan

>  <Peripheral>  (477) 
nan

>  <Num_H_Atoms_ProtBoundConf>  (477) 
nan

>  <Num_Resolved_Atoms>  (477) 
nan

>  <Num_Not_Resolved_Atoms>  (477) 
nan

$$$$
CHEMBL3702553
     RDKit          3D

  0  0  0  0  0  0  0  0  0  0999 V3000
M  V30 BEGIN CTAB
M  V30 COUNTS 27 28 0 0 0
M  V30 BEGIN ATOM
M  V30 1 C -3.014706 -1.461284 -0.202405 0
M  V30 2 O -2.080466 -0.873419 0.709093 0
M  V30 3 C -1.009367 -1.650307 1.182735 0
M  V30 4 O -0.993192 -2.823947 0.732306 0
M  V30 5 C -0.146238 -0.914993 2.100549 0
M  V30 6 C 0.950144 -0.170566 1.745761 0
M  V30 7 C 1.445933 0.011087 0.385793 0
M  V30 8 C 1.777304 1.288005 -0.084403 0
M  V30 9 C 2.255710 1.552051 -1.349083 0
M  V30 10 C 2.425741 0.500005 -2.223584 0
M  V30 11 Br 3.083215 0.807954 -3.982318 0
M  V30 12 C 2.112891 -0.777930 -1.806307 0
M  V30 13 C 1.638653 -0.976133 -0.528892 0
M  V30 14 C 1.645644 0.453965 2.739066 0
M  V30 15 S 0.786206 0.030683 4.300213 0
M  V30 16 C -0.499814 -1.006792 3.401539 0
M  V30 17 N -1.507881 -1.641190 4.128403 0
M  V30 18 H -2.411553 -2.188055 -0.814038 0
M  V30 19 H -3.750273 -2.092701 0.349551 0
M  V30 20 H -3.446037 -0.753827 -0.906965 0
M  V30 21 H 1.651485 2.141995 0.590725 0
M  V30 22 H 2.489078 2.561380 -1.639404 0
M  V30 23 H 2.246225 -1.604447 -2.492615 0
M  V30 24 H 1.412402 -1.991301 -0.251413 0
M  V30 25 H 2.508391 1.076943 2.756889 0
M  V30 26 H -2.410904 -1.452313 3.638136 0
M  V30 27 H -1.312934 -2.189226 4.998901 0
M  V30 END ATOM
M  V30 BEGIN BOND
M  V30 1 1 1 2
M  V30 2 1 2 3
M  V30 3 2 3 4
M  V30 4 1 3 5
M  V30 5 1 5 6
M  V30 6 1 6 7
M  V30 7 2 7 8
M  V30 8 1 8 9
M  V30 9 2 9 10
M  V30 10 1 10 11
M  V30 11 1 10 12
M  V30 12 2 12 13
M  V30 13 2 6 14
M  V30 14 1 14 15
M  V30 15 1 15 16
M  V30 16 1 16 17
M  V30 17 2 16 5
M  V30 18 1 13 7
M  V30 19 1 1 18
M  V30 20 1 1 19
M  V30 21 1 1 20
M  V30 22 1 8 21
M  V30 23 1 9 22
M  V30 24 1 12 23
M  V30 25 1 13 24
M  V30 26 1 14 25
M  V30 27 1 17 26
M  V30 28 1 17 27
M  V30 END BOND
M  V30 END CTAB
M  END
>  <Dataset>  (478) 
ChEMBL_Kinases

>  <Ligand_Instance>  (478) 
nan

>  <PDB_ID>  (478) 
nan

>  <Standardized_SMILES>  (478) 
COC(=O)c1c(-c2ccc(Br)cc2)csc1N

>  <Name>  (478) 
nan

>  <Pocket>  (478) 
nan

>  <ATP_Site>  (478) 
nan

>  <Peripheral>  (478) 
nan

>  <Num_H_Atoms_ProtBoundConf>  (478) 
nan

>  <Num_Resolved_Atoms>  (478) 
nan

>  <Num_Not_Resolved_Atoms>  (478) 
nan

$$$$
CHEMBL375097
     RDKit          3D

  0  0  0  0  0  0  0  0  0  0999 V3000
M  V30 BEGIN CTAB
M  V30 COUNTS 39 41 0 0 0
M  V30 BEGIN ATOM
M  V30 1 N 5.083072 -4.091817 1.358113 0
M  V30 2 C 4.268297 -3.447724 1.889950 0
M  V30 3 C 3.283284 -2.656075 2.562769 0
M  V30 4 N 3.340883 -2.150079 3.796227 0
M  V30 5 C 2.303979 -1.429538 4.243208 0
M  V30 6 C 1.232859 -1.231544 3.447110 0
M  V30 7 N 1.174413 -1.736573 2.217755 0
M  V30 8 C 2.198006 -2.457898 1.750435 0
M  V30 9 O 1.765361 -2.798017 0.454550 0
M  V30 10 C 1.220360 -1.759577 -0.381056 0
M  V30 11 C 2.208230 -0.682824 -0.685250 0
M  V30 12 C 1.704639 0.542399 -1.347545 0
M  V30 13 C 0.968061 1.533839 -0.507803 0
M  V30 14 O -0.168761 1.159577 0.056308 0
M  V30 15 C -1.416202 0.744708 -0.203571 0
M  V30 16 C -1.929825 0.526313 -1.454328 0
M  V30 17 C -3.223177 0.103372 -1.596074 0
M  V30 18 C -4.060365 -0.121272 -0.528706 0
M  V30 19 Cl -5.675818 -0.658001 -0.918192 0
M  V30 20 C -3.563315 0.092340 0.739480 0
M  V30 21 C -2.262227 0.518075 0.899464 0
M  V30 22 N -1.984876 0.644030 2.328291 0
M  V30 23 C -1.003670 0.193783 3.295009 0
M  V30 24 O -0.817126 -0.180695 2.116528 0
M  V30 25 N 0.123634 -0.432187 3.889257 0
M  V30 26 H 2.210468 -0.965492 5.195810 0
M  V30 27 H 1.024444 -2.311835 -1.354895 0
M  V30 28 H 0.293091 -1.415224 0.026398 0
M  V30 29 H 2.775944 -0.437525 0.272539 0
M  V30 30 H 3.056101 -1.083167 -1.335958 0
M  V30 31 H 1.109941 0.234625 -2.247815 0
M  V30 32 H 2.565038 1.114707 -1.806066 0
M  V30 33 H 1.747419 1.886084 0.279839 0
M  V30 34 H 0.753705 2.470289 -1.138457 0
M  V30 35 H -1.233770 0.717441 -2.258681 0
M  V30 36 H -3.539311 -0.041925 -2.609270 0
M  V30 37 H -4.293590 -0.109911 1.509484 0
M  V30 38 H -2.679223 1.236008 2.885720 0
M  V30 39 H 0.026993 -0.159494 4.905536 0
M  V30 END ATOM
M  V30 BEGIN BOND
M  V30 1 3 1 2
M  V30 2 1 2 3
M  V30 3 2 3 4
M  V30 4 1 4 5
M  V30 5 2 5 6
M  V30 6 1 6 7
M  V30 7 2 7 8
M  V30 8 1 8 9
M  V30 9 1 9 10
M  V30 10 1 10 11
M  V30 11 1 11 12
M  V30 12 1 12 13
M  V30 13 1 13 14
M  V30 14 1 14 15
M  V30 15 2 15 16
M  V30 16 1 16 17
M  V30 17 2 17 18
M  V30 18 1 18 19
M  V30 19 1 18 20
M  V30 20 2 20 21
M  V30 21 1 21 22
M  V30 22 1 22 23
M  V30 23 2 23 24
M  V30 24 1 23 25
M  V30 25 1 8 3
M  V30 26 1 21 15
M  V30 27 1 25 6
M  V30 28 1 5 26
M  V30 29 1 10 27
M  V30 30 1 10 28
M  V30 31 1 11 29
M  V30 32 1 11 30
M  V30 33 1 12 31
M  V30 34 1 12 32
M  V30 35 1 13 33
M  V30 36 1 13 34
M  V30 37 1 16 35
M  V30 38 1 17 36
M  V30 39 1 20 37
M  V30 40 1 22 38
M  V30 41 1 25 39
M  V30 END BOND
M  V30 END CTAB
M  END
>  <Dataset>  (479) 
ChEMBL_Kinases

>  <Ligand_Instance>  (479) 
nan

>  <PDB_ID>  (479) 
nan

>  <Standardized_SMILES>  (479) 
N#Cc1ncc2nc1OCCCCOc1ccc(Cl)cc1NC(=O)N2

>  <Name>  (479) 
nan

>  <Pocket>  (479) 
nan

>  <ATP_Site>  (479) 
nan

>  <Peripheral>  (479) 
nan

>  <Num_H_Atoms_ProtBoundConf>  (479) 
nan

>  <Num_Resolved_Atoms>  (479) 
nan

>  <Num_Not_Resolved_Atoms>  (479) 
nan

$$$$
CHEMBL5092060
     RDKit          3D

  0  0  0  0  0  0  0  0  0  0999 V3000
M  V30 BEGIN CTAB
M  V30 COUNTS 60 64 0 0 0
M  V30 BEGIN ATOM
M  V30 1 C 0.076369 -0.561464 6.139053 0
M  V30 2 O -0.211429 -1.146923 4.896716 0
M  V30 3 C -0.033497 -0.426979 3.707098 0
M  V30 4 C 0.422445 0.852269 3.750030 0
M  V30 5 C 0.614777 1.601923 2.620230 0
M  V30 6 N 1.095261 2.927544 2.709251 0
M  V30 7 C 1.448147 3.637661 3.941919 0
M  V30 8 C 2.587417 4.540700 3.521674 0
M  V30 9 C 2.526687 4.672302 2.016657 0
M  V30 10 C 1.342068 3.850697 1.638623 0
M  V30 11 O 0.639036 3.907489 0.582314 0
M  V30 12 C 0.327693 1.011655 1.418510 0
M  V30 13 C -0.130665 -0.279010 1.399146 0
M  V30 14 C -0.340991 -1.075307 2.504255 0
M  V30 15 N -0.820424 -2.409623 2.457440 0
M  V30 16 C -1.153937 -3.209420 1.334801 0
M  V30 17 N -1.046389 -2.863178 0.051417 0
M  V30 18 C -1.368206 -3.617202 -1.006726 0
M  V30 19 N -1.224380 -3.191763 -2.346095 0
M  V30 20 C -0.705547 -1.922417 -2.775438 0
M  V30 21 C 0.711184 -1.684144 -2.391677 0
M  V30 22 C 0.991297 -0.200049 -2.423934 0
M  V30 23 C 0.065122 0.436529 -3.417596 0
M  V30 24 C -0.148631 -0.447921 -4.637421 0
M  V30 25 C -0.836328 -1.729024 -4.269215 0
M  V30 26 C -1.852264 -4.860971 -0.692521 0
M  V30 27 C -2.292803 -5.936193 -1.429852 0
M  V30 28 C -2.376816 -6.070704 -2.851005 0
M  V30 29 N -2.450594 -6.198209 -3.993895 0
M  V30 30 C -2.677845 -6.962142 -0.572381 0
M  V30 31 N -2.480137 -6.531921 0.669159 0
M  V30 32 C -1.989594 -5.284069 0.609100 0
M  V30 33 N -1.633333 -4.438481 1.586484 0
M  V30 34 H -0.533821 0.384122 6.184234 0
M  V30 35 H -0.207530 -1.243226 6.954861 0
M  V30 36 H 1.127598 -0.243514 6.191375 0
M  V30 37 H 0.631834 1.263757 4.741046 0
M  V30 38 H 0.588508 4.229798 4.318861 0
M  V30 39 H 1.789592 2.932047 4.712249 0
M  V30 40 H 3.567672 4.079746 3.842081 0
M  V30 41 H 2.500293 5.495797 4.062836 0
M  V30 42 H 3.454477 4.312759 1.530911 0
M  V30 43 H 2.395492 5.725983 1.762980 0
M  V30 44 H 0.473251 1.587771 0.519878 0
M  V30 45 H -0.334424 -0.667785 0.418854 0
M  V30 46 H -0.930993 -2.833812 3.419985 0
M  V30 47 H -1.503941 -3.814557 -3.120546 0
M  V30 48 H -1.377064 -1.150468 -2.301165 0
M  V30 49 H 1.025331 -2.147591 -1.436731 0
M  V30 50 H 1.389271 -2.158272 -3.159323 0
M  V30 51 H 0.871779 0.247396 -1.420587 0
M  V30 52 H 2.041820 -0.043255 -2.778007 0
M  V30 53 H -0.873954 0.828657 -2.995239 0
M  V30 54 H 0.592898 1.351435 -3.818233 0
M  V30 55 H 0.869678 -0.620750 -5.063061 0
M  V30 56 H -0.766836 0.123500 -5.347770 0
M  V30 57 H -1.889920 -1.794661 -4.607364 0
M  V30 58 H -0.268568 -2.550950 -4.793685 0
M  V30 59 H -3.071008 -7.945243 -0.833552 0
M  V30 60 H -2.678452 -7.085305 1.533859 0
M  V30 END ATOM
M  V30 BEGIN BOND
M  V30 1 1 1 2
M  V30 2 1 2 3
M  V30 3 2 3 4
M  V30 4 1 4 5
M  V30 5 1 5 6
M  V30 6 1 6 7
M  V30 7 1 7 8
M  V30 8 1 8 9
M  V30 9 1 9 10
M  V30 10 2 10 11
M  V30 11 2 5 12
M  V30 12 1 12 13
M  V30 13 2 13 14
M  V30 14 1 14 15
M  V30 15 1 15 16
M  V30 16 2 16 17
M  V30 17 1 17 18
M  V30 18 1 18 19
M  V30 19 1 19 20
M  V30 20 1 20 21
M  V30 21 1 21 22
M  V30 22 1 22 23
M  V30 23 1 23 24
M  V30 24 1 24 25
M  V30 25 2 18 26
M  V30 26 1 26 27
M  V30 27 1 27 28
M  V30 28 3 28 29
M  V30 29 2 27 30
M  V30 30 1 30 31
M  V30 31 1 31 32
M  V30 32 2 32 33
M  V30 33 1 14 3
M  V30 34 1 33 16
M  V30 35 1 10 6
M  V30 36 1 25 20
M  V30 37 1 32 26
M  V30 38 1 1 34
M  V30 39 1 1 35
M  V30 40 1 1 36
M  V30 41 1 4 37
M  V30 42 1 7 38
M  V30 43 1 7 39
M  V30 44 1 8 40
M  V30 45 1 8 41
M  V30 46 1 9 42
M  V30 47 1 9 43
M  V30 48 1 12 44
M  V30 49 1 13 45
M  V30 50 1 15 46
M  V30 51 1 19 47
M  V30 52 1 20 48
M  V30 53 1 21 49
M  V30 54 1 21 50
M  V30 55 1 22 51
M  V30 56 1 22 52
M  V30 57 1 23 53
M  V30 58 1 23 54
M  V30 59 1 24 55
M  V30 60 1 24 56
M  V30 61 1 25 57
M  V30 62 1 25 58
M  V30 63 1 30 59
M  V30 64 1 31 60
M  V30 END BOND
M  V30 END CTAB
M  END
>  <Dataset>  (480) 
ChEMBL_Kinases

>  <Ligand_Instance>  (480) 
nan

>  <PDB_ID>  (480) 
nan

>  <Standardized_SMILES>  (480) 
COc1cc(N2CCCC2=O)ccc1Nc1nc(NC2CCCCC2)c2c(C#N)c[nH]c2n1

>  <Name>  (480) 
nan

>  <Pocket>  (480) 
nan

>  <ATP_Site>  (480) 
nan

>  <Peripheral>  (480) 
nan

>  <Num_H_Atoms_ProtBoundConf>  (480) 
nan

>  <Num_Resolved_Atoms>  (480) 
nan

>  <Num_Not_Resolved_Atoms>  (480) 
nan

$$$$
CHEMBL5092112
     RDKit          3D

  0  0  0  0  0  0  0  0  0  0999 V3000
M  V30 BEGIN CTAB
M  V30 COUNTS 59 63 0 0 0
M  V30 BEGIN ATOM
M  V30 1 C 2.379069 -2.510821 3.638859 0
M  V30 2 O 2.008044 -1.665943 4.723160 0
M  V30 3 C 1.891277 -0.310228 4.433421 0
M  V30 4 C 1.533303 0.523298 5.468071 0
M  V30 5 C 1.399587 1.869417 5.255422 0
M  V30 6 C 1.607105 2.465507 4.029937 0
M  V30 7 C 1.971105 1.614787 2.979593 0
M  V30 8 C 2.219873 2.082803 1.628385 0
M  V30 9 N 3.411219 2.463461 1.201004 0
M  V30 10 C 3.249362 2.834825 -0.108596 0
M  V30 11 S 4.102860 3.477762 -1.610383 0
M  V30 12 C 2.614154 3.479893 -2.620836 0
M  V30 13 C 1.634672 3.011865 -1.768722 0
M  V30 14 N 1.956345 2.690751 -0.514437 0
M  V30 15 C 1.337714 2.223178 0.579969 0
M  V30 16 C -0.084382 1.864392 0.776311 0
M  V30 17 C -1.158358 2.752285 0.625055 0
M  V30 18 C -2.398271 2.226637 0.849741 0
M  V30 19 N -2.569520 0.928747 1.196583 0
M  V30 20 C -1.529245 0.089708 1.338062 0
M  V30 21 N -1.633319 -1.285858 1.698452 0
M  V30 22 C -1.675918 -2.158637 0.541269 0
M  V30 23 C -2.814353 -1.903532 -0.382867 0
M  V30 24 N -2.884584 -2.737448 -1.531417 0
M  V30 25 C -2.397579 -4.069480 -1.432795 0
M  V30 26 C -1.091299 -4.235713 -2.095153 0
M  V30 27 C -1.187180 -5.289609 -3.196871 0
M  V30 28 C 0.000799 -4.693881 -1.107693 0
M  V30 29 N -0.594420 -3.037236 -2.671809 0
M  V30 30 S -2.018478 -2.088310 -2.882880 0
M  V30 31 O -1.762623 -0.622845 -2.754184 0
M  V30 32 O -2.715618 -2.460548 -4.158428 0
M  V30 33 N -0.278037 0.576375 1.122306 0
M  V30 34 C 2.106804 0.254928 3.192713 0
M  V30 35 H 3.354041 -2.197414 3.215739 0
M  V30 36 H 1.623481 -2.388711 2.831781 0
M  V30 37 H 2.474388 -3.567181 3.942677 0
M  V30 38 H 1.352356 0.151174 6.449631 0
M  V30 39 H 1.114892 2.562115 6.061393 0
M  V30 40 H 1.523857 3.512493 3.777483 0
M  V30 41 H 2.607886 3.790155 -3.631657 0
M  V30 42 H 0.653804 2.944702 -2.213733 0
M  V30 43 H -0.901899 3.764777 0.345729 0
M  V30 44 H -3.236028 2.898503 0.737159 0
M  V30 45 H -1.651698 -1.299788 2.735584 0
M  V30 46 H -0.688990 -2.121516 0.098305 0
M  V30 47 H -1.824750 -3.190230 0.979654 0
M  V30 48 H -2.744762 -0.851369 -0.732611 0
M  V30 49 H -3.786642 -1.984757 0.143497 0
M  V30 50 H -3.155359 -4.695433 -1.994952 0
M  V30 51 H -2.365671 -4.530438 -0.447503 0
M  V30 52 H -0.644359 -6.207934 -2.872703 0
M  V30 53 H -2.264189 -5.565971 -3.329813 0
M  V30 54 H -0.731585 -4.920796 -4.119796 0
M  V30 55 H -0.485118 -5.176169 -0.249156 0
M  V30 56 H 0.613273 -5.448341 -1.614489 0
M  V30 57 H 0.678207 -3.856102 -0.833041 0
M  V30 58 H 0.136748 -2.575378 -2.106861 0
M  V30 59 H 2.386880 -0.421858 2.395991 0
M  V30 END ATOM
M  V30 BEGIN BOND
M  V30 1 1 1 2
M  V30 2 1 2 3
M  V30 3 2 3 4
M  V30 4 1 4 5
M  V30 5 2 5 6
M  V30 6 1 6 7
M  V30 7 1 7 8
M  V30 8 1 8 9
M  V30 9 2 9 10
M  V30 10 1 10 11
M  V30 11 1 11 12
M  V30 12 2 12 13
M  V30 13 1 13 14
M  V30 14 1 14 15
M  V30 15 1 15 16
M  V30 16 2 16 17
M  V30 17 1 17 18
M  V30 18 2 18 19
M  V30 19 1 19 20
M  V30 20 1 20 21
M  V30 21 1 21 22
M  V30 22 1 22 23
M  V30 23 1 23 24
M  V30 24 1 24 25
M  V30 25 1 25 26
M  V30 26 1 26 27
M  V30 27 1 26 28
M  V30 28 1 26 29
M  V30 29 1 29 30
M  V30 30 2 30 31
M  V30 31 2 30 32
M  V30 32 2 20 33
M  V30 33 2 7 34
M  V30 34 1 34 3
M  V30 35 2 15 8
M  V30 36 1 33 16
M  V30 37 1 14 10
M  V30 38 1 30 24
M  V30 39 1 1 35
M  V30 40 1 1 36
M  V30 41 1 1 37
M  V30 42 1 4 38
M  V30 43 1 5 39
M  V30 44 1 6 40
M  V30 45 1 12 41
M  V30 46 1 13 42
M  V30 47 1 17 43
M  V30 48 1 18 44
M  V30 49 1 21 45
M  V30 50 1 22 46
M  V30 51 1 22 47
M  V30 52 1 23 48
M  V30 53 1 23 49
M  V30 54 1 25 50
M  V30 55 1 25 51
M  V30 56 1 27 52
M  V30 57 1 27 53
M  V30 58 1 27 54
M  V30 59 1 28 55
M  V30 60 1 28 56
M  V30 61 1 28 57
M  V30 62 1 29 58
M  V30 63 1 34 59
M  V30 END BOND
M  V30 END CTAB
M  END
>  <Dataset>  (481) 
ChEMBL_Kinases

>  <Ligand_Instance>  (481) 
nan

>  <PDB_ID>  (481) 
nan

>  <Standardized_SMILES>  (481) 
COc1cccc(-c2nc3sccn3c2-c2ccnc(NCCN3CC(C)(C)NS3(=O)=O)n2)c1

>  <Name>  (481) 
nan

>  <Pocket>  (481) 
nan

>  <ATP_Site>  (481) 
nan

>  <Peripheral>  (481) 
nan

>  <Num_H_Atoms_ProtBoundConf>  (481) 
nan

>  <Num_Resolved_Atoms>  (481) 
nan

>  <Num_Not_Resolved_Atoms>  (481) 
nan

$$$$
CHEMBL3702554
     RDKit          3D

  0  0  0  0  0  0  0  0  0  0999 V3000
M  V30 BEGIN CTAB
M  V30 COUNTS 30 31 0 0 0
M  V30 BEGIN ATOM
M  V30 1 C -3.260913 -1.327174 1.032758 0
M  V30 2 C -2.563535 -1.581748 2.360279 0
M  V30 3 O -1.248696 -2.061506 2.124632 0
M  V30 4 C -0.309213 -1.326604 1.424933 0
M  V30 5 O -1.164930 -1.968261 2.048574 0
M  V30 6 C 1.048215 -1.873005 1.207054 0
M  V30 7 C 1.884097 -1.067283 0.509738 0
M  V30 8 C 1.698169 0.255293 -0.074971 0
M  V30 9 C 1.076934 1.150753 0.768019 0
M  V30 10 C 0.833733 2.440612 0.340876 0
M  V30 11 C 1.221471 2.807037 -0.931169 0
M  V30 12 Cl 0.930903 4.440524 -1.516518 0
M  V30 13 C 1.842836 1.893322 -1.759766 0
M  V30 14 C 2.099661 0.587519 -1.354077 0
M  V30 15 C 3.172296 -1.583488 0.302004 0
M  V30 16 S 3.170256 -3.252615 1.125734 0
M  V30 17 C 1.456189 -3.076604 1.654064 0
M  V30 18 N 0.670366 -3.999956 2.391208 0
M  V30 19 H -2.483211 -1.240581 0.247523 0
M  V30 20 H -3.982743 -2.131111 0.785350 0
M  V30 21 H -3.802830 -0.347400 1.079531 0
M  V30 22 H -2.588115 -0.643691 2.954719 0
M  V30 23 H -3.159026 -2.354669 2.885278 0
M  V30 24 H 0.753167 0.924681 1.766138 0
M  V30 25 H 0.348839 3.214209 0.938566 0
M  V30 26 H 2.163160 2.143175 -2.768066 0
M  V30 27 H 2.581217 -0.159493 -1.964600 0
M  V30 28 H 4.051175 -1.260107 -0.172832 0
M  V30 29 H -0.104968 -4.365052 1.774787 0
M  V30 30 H 0.868372 -4.253918 3.403137 0
M  V30 END ATOM
M  V30 BEGIN BOND
M  V30 1 1 1 2
M  V30 2 1 2 3
M  V30 3 1 3 4
M  V30 4 2 4 5
M  V30 5 1 4 6
M  V30 6 1 6 7
M  V30 7 1 7 8
M  V30 8 2 8 9
M  V30 9 1 9 10
M  V30 10 2 10 11
M  V30 11 1 11 12
M  V30 12 1 11 13
M  V30 13 2 13 14
M  V30 14 2 7 15
M  V30 15 1 15 16
M  V30 16 1 16 17
M  V30 17 1 17 18
M  V30 18 2 17 6
M  V30 19 1 14 8
M  V30 20 1 1 19
M  V30 21 1 1 20
M  V30 22 1 1 21
M  V30 23 1 2 22
M  V30 24 1 2 23
M  V30 25 1 9 24
M  V30 26 1 10 25
M  V30 27 1 13 26
M  V30 28 1 14 27
M  V30 29 1 15 28
M  V30 30 1 18 29
M  V30 31 1 18 30
M  V30 END BOND
M  V30 END CTAB
M  END
>  <Dataset>  (482) 
ChEMBL_Kinases

>  <Ligand_Instance>  (482) 
nan

>  <PDB_ID>  (482) 
nan

>  <Standardized_SMILES>  (482) 
CCOC(=O)c1c(-c2ccc(Cl)cc2)csc1N

>  <Name>  (482) 
nan

>  <Pocket>  (482) 
nan

>  <ATP_Site>  (482) 
nan

>  <Peripheral>  (482) 
nan

>  <Num_H_Atoms_ProtBoundConf>  (482) 
nan

>  <Num_Resolved_Atoms>  (482) 
nan

>  <Num_Not_Resolved_Atoms>  (482) 
nan

$$$$
CHEMBL5092129
     RDKit          3D

  0  0  0  0  0  0  0  0  0  0999 V3000
M  V30 BEGIN CTAB
M  V30 COUNTS 60 63 0 0 0
M  V30 BEGIN ATOM
M  V30 1 C 3.500351 -1.153595 1.794663 0
M  V30 2 C 4.698264 -0.422133 2.296943 0
M  V30 3 C 4.476985 1.055359 2.539186 0 CFG=2
M  V30 4 C 3.409697 1.298487 3.550222 0
M  V30 5 N 4.372204 1.833983 1.351273 0
M  V30 6 C 5.403776 2.147397 0.534464 0
M  V30 7 N 4.988577 2.891572 -0.502240 0
M  V30 8 N 3.690106 3.065898 -0.366095 0
M  V30 9 C 3.344997 2.418009 0.759007 0
M  V30 10 C 1.962258 2.399984 1.222825 0
M  V30 11 C 1.394541 3.372602 2.045954 0
M  V30 12 C 0.070360 3.208103 2.394773 0
M  V30 13 C -0.715199 2.151862 1.982956 0
M  V30 14 C -0.095659 1.227082 1.172963 0
M  V30 15 N -0.839603 0.104897 0.709708 0
M  V30 16 C -1.602679 0.146741 -0.554160 0
M  V30 17 C -2.248115 -1.157887 -0.630254 0
M  V30 18 C -3.115785 -1.742016 -1.509082 0
M  V30 19 C -3.653680 -1.173458 -2.737096 0
M  V30 20 N -2.844939 -1.274743 -3.892639 0
M  V30 21 C -1.596946 -0.624006 -3.823128 0
M  V30 22 C -3.549843 -3.050564 -1.247718 0
M  V30 23 C -3.163050 -3.802247 -0.158416 0
M  V30 24 N -3.628371 -5.124078 0.068692 0
M  V30 25 C -4.553508 -5.756649 -0.853441 0
M  V30 26 C -3.170698 -5.850535 1.238330 0
M  V30 27 C -2.286289 -3.210811 0.728506 0
M  V30 28 C -1.866337 -1.916103 0.457325 0
M  V30 29 C -0.974058 -1.163630 1.333818 0
M  V30 30 O -0.406565 -1.479282 2.411082 0
M  V30 31 N 1.203618 1.370214 0.818679 0
M  V30 32 H 3.883653 -2.156060 1.438841 0
M  V30 33 H 3.100970 -0.684779 0.873709 0
M  V30 34 H 2.744215 -1.407937 2.551924 0
M  V30 35 H 5.510629 -0.538695 1.549103 0
M  V30 36 H 5.046037 -0.886509 3.242233 0
M  V30 37 H 5.441604 1.393380 3.031974 0
M  V30 38 H 3.395832 2.352357 3.871477 0
M  V30 39 H 2.445662 0.867401 3.269445 0
M  V30 40 H 3.703134 0.729844 4.483377 0
M  V30 41 H 6.457474 1.878224 0.621384 0
M  V30 42 H 2.023152 4.191652 2.359608 0
M  V30 43 H -0.320737 3.999205 3.039291 0
M  V30 44 H -1.742486 2.081046 2.290668 0
M  V30 45 H -2.326441 0.992458 -0.500759 0
M  V30 46 H -0.882750 0.412487 -1.322285 0
M  V30 47 H -3.869045 -0.081026 -2.567754 0
M  V30 48 H -4.655729 -1.632753 -2.991701 0
M  V30 49 H -2.905964 -2.131473 -4.448507 0
M  V30 50 H -1.125728 -0.645523 -4.840777 0
M  V30 51 H -0.856715 -1.108539 -3.149348 0
M  V30 52 H -1.767588 0.437179 -3.528313 0
M  V30 53 H -4.248074 -3.582750 -1.912791 0
M  V30 54 H -5.401190 -5.063468 -1.119945 0
M  V30 55 H -4.002560 -5.923274 -1.801503 0
M  V30 56 H -4.961036 -6.701861 -0.441068 0
M  V30 57 H -3.403836 -6.927813 1.138897 0
M  V30 58 H -2.048420 -5.798865 1.214165 0
M  V30 59 H -3.503541 -5.405275 2.192671 0
M  V30 60 H -1.978259 -3.794049 1.583751 0
M  V30 END ATOM
M  V30 BEGIN BOND
M  V30 1 1 1 2
M  V30 2 1 2 3
M  V30 3 1 3 4
M  V30 4 1 3 5
M  V30 5 1 5 6
M  V30 6 2 6 7
M  V30 7 1 7 8
M  V30 8 2 8 9
M  V30 9 1 9 10
M  V30 10 2 10 11
M  V30 11 1 11 12
M  V30 12 2 12 13
M  V30 13 1 13 14
M  V30 14 1 14 15
M  V30 15 1 15 16
M  V30 16 1 16 17
M  V30 17 2 17 18
M  V30 18 1 18 19
M  V30 19 1 19 20
M  V30 20 1 20 21
M  V30 21 1 18 22
M  V30 22 2 22 23
M  V30 23 1 23 24
M  V30 24 1 24 25
M  V30 25 1 24 26
M  V30 26 1 23 27
M  V30 27 2 27 28
M  V30 28 1 28 29
M  V30 29 2 29 30
M  V30 30 2 14 31
M  V30 31 1 9 5
M  V30 32 1 31 10
M  V30 33 1 29 15
M  V30 34 1 28 17
M  V30 35 1 1 32
M  V30 36 1 1 33
M  V30 37 1 1 34
M  V30 38 1 2 35
M  V30 39 1 2 36
M  V30 40 1 3 37 CFG=1
M  V30 41 1 4 38
M  V30 42 1 4 39
M  V30 43 1 4 40
M  V30 44 1 6 41
M  V30 45 1 11 42
M  V30 46 1 12 43
M  V30 47 1 13 44
M  V30 48 1 16 45
M  V30 49 1 16 46
M  V30 50 1 19 47
M  V30 51 1 19 48
M  V30 52 1 20 49
M  V30 53 1 21 50
M  V30 54 1 21 51
M  V30 55 1 21 52
M  V30 56 1 22 53
M  V30 57 1 25 54
M  V30 58 1 25 55
M  V30 59 1 25 56
M  V30 60 1 26 57
M  V30 61 1 26 58
M  V30 62 1 26 59
M  V30 63 1 27 60
M  V30 END BOND
M  V30 END CTAB
M  END
>  <Dataset>  (483) 
ChEMBL_Kinases

>  <Ligand_Instance>  (483) 
nan

>  <PDB_ID>  (483) 
nan

>  <Standardized_SMILES>  (483) 
CC[C@H](C)n1cnnc1-c1cccc(N2Cc3c(CNC)cc(N(C)C)cc3C2=O)n1

>  <Name>  (483) 
nan

>  <Pocket>  (483) 
nan

>  <ATP_Site>  (483) 
nan

>  <Peripheral>  (483) 
nan

>  <Num_H_Atoms_ProtBoundConf>  (483) 
nan

>  <Num_Resolved_Atoms>  (483) 
nan

>  <Num_Not_Resolved_Atoms>  (483) 
nan

$$$$
CHEMBL5092254
     RDKit          3D

  0  0  0  0  0  0  0  0  0  0999 V3000
M  V30 BEGIN CTAB
M  V30 COUNTS 57 60 0 0 0
M  V30 BEGIN ATOM
M  V30 1 C 4.015152 -2.546362 6.413842 0
M  V30 2 C 3.606897 -1.991487 5.075009 0
M  V30 3 O 3.147645 -0.645333 5.191060 0
M  V30 4 C 2.725200 0.047960 4.073312 0
M  V30 5 C 2.748895 -0.567950 2.839415 0
M  V30 6 C 2.335825 0.089682 1.700829 0
M  V30 7 N 2.388047 -0.573785 0.542334 0
M  V30 8 C 1.978445 0.092219 -0.554079 0
M  V30 9 N 1.537029 1.359307 -0.502992 0
M  V30 10 C 1.453410 2.094741 0.618300 0
M  V30 11 N 1.014392 3.424459 0.657171 0
M  V30 12 C 0.554774 4.190490 -0.443358 0
M  V30 13 C -0.794649 3.903058 -0.983565 0
M  V30 14 C -1.076010 2.565417 -1.472538 0
M  V30 15 C -1.662539 1.601856 -0.639155 0
M  V30 16 C -1.899764 0.354530 -1.172787 0
M  V30 17 C -1.614004 -0.040033 -2.456016 0
M  V30 18 N -1.848581 -1.312967 -3.023853 0
M  V30 19 C -2.418671 -2.468628 -2.436341 0
M  V30 20 O -2.792419 -2.438546 -1.251409 0
M  V30 21 N -2.612469 -3.698901 -3.086814 0
M  V30 22 C -3.210665 -4.732819 -2.288894 0
M  V30 23 C -4.548712 -4.986724 -2.163112 0
M  V30 24 C -5.012931 -6.007265 -1.368081 0
M  V30 25 C -4.078003 -6.787004 -0.684675 0
M  V30 26 F -4.499019 -7.815736 0.119506 0
M  V30 27 C -2.706177 -6.553369 -0.792131 0
M  V30 28 Cl -1.573008 -7.571388 0.094970 0
M  V30 29 C -2.278602 -5.503975 -1.612570 0
M  V30 30 C -1.042996 0.921782 -3.243221 0
M  V30 31 C -0.781683 2.186895 -2.765934 0
M  V30 32 C 1.878525 1.389846 1.725837 0
M  V30 33 C 1.868424 1.972923 2.972181 0
M  V30 34 C 2.271802 1.350957 4.129538 0
M  V30 35 F 2.258785 1.929875 5.347966 0
M  V30 36 H 3.990741 -1.753370 7.207802 0
M  V30 37 H 3.317473 -3.360604 6.725704 0
M  V30 38 H 5.023629 -2.995627 6.377486 0
M  V30 39 H 2.780793 -2.608099 4.669004 0
M  V30 40 H 4.482512 -2.049907 4.400814 0
M  V30 41 H 3.097779 -1.582123 2.770311 0
M  V30 42 H 1.986740 -0.373730 -1.547116 0
M  V30 43 H 0.984079 3.988290 1.530147 0
M  V30 44 H 1.274927 4.017168 -1.312397 0
M  V30 45 H 0.654059 5.309236 -0.302645 0
M  V30 46 H -1.545586 4.097736 -0.153332 0
M  V30 47 H -1.081876 4.703816 -1.735428 0
M  V30 48 H -1.910609 1.846540 0.375471 0
M  V30 49 H -2.350582 -0.347271 -0.492830 0
M  V30 50 H -1.587944 -1.497790 -4.016500 0
M  V30 51 H -2.311608 -3.784935 -4.103417 0
M  V30 52 H -5.215698 -4.334279 -2.728160 0
M  V30 53 H -6.073593 -6.197305 -1.277425 0
M  V30 54 H -1.206100 -5.381405 -1.648161 0
M  V30 55 H -0.784912 0.686431 -4.279323 0
M  V30 56 H -0.328816 2.888397 -3.452543 0
M  V30 57 H 1.534263 2.981351 3.123885 0
M  V30 END ATOM
M  V30 BEGIN BOND
M  V30 1 1 1 2
M  V30 2 1 2 3
M  V30 3 1 3 4
M  V30 4 2 4 5
M  V30 5 1 5 6
M  V30 6 2 6 7
M  V30 7 1 7 8
M  V30 8 2 8 9
M  V30 9 1 9 10
M  V30 10 1 10 11
M  V30 11 1 11 12
M  V30 12 1 12 13
M  V30 13 1 13 14
M  V30 14 2 14 15
M  V30 15 1 15 16
M  V30 16 2 16 17
M  V30 17 1 17 18
M  V30 18 1 18 19
M  V30 19 2 19 20
M  V30 20 1 19 21
M  V30 21 1 21 22
M  V30 22 2 22 23
M  V30 23 1 23 24
M  V30 24 2 24 25
M  V30 25 1 25 26
M  V30 26 1 25 27
M  V30 27 1 27 28
M  V30 28 2 27 29
M  V30 29 1 17 30
M  V30 30 2 30 31
M  V30 31 2 10 32
M  V30 32 1 32 33
M  V30 33 2 33 34
M  V30 34 1 34 35
M  V30 35 1 34 4
M  V30 36 1 32 6
M  V30 37 1 31 14
M  V30 38 1 29 22
M  V30 39 1 1 36
M  V30 40 1 1 37
M  V30 41 1 1 38
M  V30 42 1 2 39
M  V30 43 1 2 40
M  V30 44 1 5 41
M  V30 45 1 8 42
M  V30 46 1 11 43
M  V30 47 1 12 44
M  V30 48 1 12 45
M  V30 49 1 13 46
M  V30 50 1 13 47
M  V30 51 1 15 48
M  V30 52 1 16 49
M  V30 53 1 18 50
M  V30 54 1 21 51
M  V30 55 1 23 52
M  V30 56 1 24 53
M  V30 57 1 29 54
M  V30 58 1 30 55
M  V30 59 1 31 56
M  V30 60 1 33 57
M  V30 END BOND
M  V30 END CTAB
M  END
>  <Dataset>  (484) 
ChEMBL_Kinases

>  <Ligand_Instance>  (484) 
nan

>  <PDB_ID>  (484) 
nan

>  <Standardized_SMILES>  (484) 
CCOc1cc2ncnc(NCCc3ccc(NC(=O)Nc4ccc(F)c(Cl)c4)cc3)c2cc1F

>  <Name>  (484) 
nan

>  <Pocket>  (484) 
nan

>  <ATP_Site>  (484) 
nan

>  <Peripheral>  (484) 
nan

>  <Num_H_Atoms_ProtBoundConf>  (484) 
nan

>  <Num_Resolved_Atoms>  (484) 
nan

>  <Num_Not_Resolved_Atoms>  (484) 
nan

$$$$
CHEMBL583189
     RDKit          3D

  0  0  0  0  0  0  0  0  0  0999 V3000
M  V30 BEGIN CTAB
M  V30 COUNTS 38 41 0 0 0
M  V30 BEGIN ATOM
M  V30 1 C -0.544599 -2.661258 -2.209970 0
M  V30 2 C 0.783211 -3.114195 -1.788603 0
M  V30 3 C 0.964470 -4.467718 -1.603173 0
M  V30 4 C 2.191463 -4.936580 -1.241018 0
M  V30 5 C 3.233942 -4.053968 -1.064995 0
M  V30 6 C 2.977801 -2.710248 -1.268175 0
M  V30 7 Cl 4.391175 -1.681767 -1.011099 0
M  V30 8 C 1.748440 -2.171897 -1.637434 0
M  V30 9 C 1.721618 -0.714734 -1.756353 0
M  V30 10 N 1.249994 -0.024729 -0.589943 0
M  V30 11 C 0.148245 0.195089 0.264287 0
M  V30 12 N -1.020445 -0.409332 0.021712 0
M  V30 13 N -1.957312 -0.117840 0.880287 0
M  V30 14 C -1.368642 0.727803 1.736477 0
M  V30 15 C -0.057860 0.954491 1.396372 0
M  V30 16 C 0.664720 1.872870 2.284626 0
M  V30 17 C -0.384633 2.219035 3.276076 0
M  V30 18 C -0.317349 3.049152 4.373047 0
M  V30 19 C -1.446516 3.205629 5.145862 0
M  V30 20 C -2.623156 2.528202 4.807390 0
M  V30 21 C -2.697530 1.690704 3.703910 0
M  V30 22 C -1.538935 1.547428 2.934205 0
M  V30 23 H -0.590550 -1.694332 -2.712334 0
M  V30 24 H -1.285178 -2.798916 -1.385084 0
M  V30 25 H -0.887965 -3.406915 -2.989660 0
M  V30 26 H 0.155740 -5.146259 -1.740652 0
M  V30 27 H 2.335683 -6.000186 -1.094706 0
M  V30 28 H 4.192078 -4.451020 -0.779379 0
M  V30 29 H 1.033296 -0.380049 -2.587936 0
M  V30 30 H 2.727741 -0.348797 -2.062655 0
M  V30 31 H 2.053636 0.562934 -0.199662 0
M  V30 32 H -2.947186 -0.439939 0.932346 0
M  V30 33 H 1.535772 1.347820 2.772810 0
M  V30 34 H 1.055503 2.774063 1.744656 0
M  V30 35 H 0.592908 3.575511 4.637814 0
M  V30 36 H -1.483131 3.838839 6.026748 0
M  V30 37 H -3.519819 2.648868 5.416763 0
M  V30 38 H -3.611912 1.171108 3.449623 0
M  V30 END ATOM
M  V30 BEGIN BOND
M  V30 1 1 1 2
M  V30 2 2 2 3
M  V30 3 1 3 4
M  V30 4 2 4 5
M  V30 5 1 5 6
M  V30 6 1 6 7
M  V30 7 2 6 8
M  V30 8 1 8 9
M  V30 9 1 9 10
M  V30 10 1 10 11
M  V30 11 2 11 12
M  V30 12 1 12 13
M  V30 13 1 13 14
M  V30 14 2 14 15
M  V30 15 1 15 16
M  V30 16 1 16 17
M  V30 17 2 17 18
M  V30 18 1 18 19
M  V30 19 2 19 20
M  V30 20 1 20 21
M  V30 21 2 21 22
M  V30 22 1 8 2
M  V30 23 1 15 11
M  V30 24 1 22 17
M  V30 25 1 22 14
M  V30 26 1 1 23
M  V30 27 1 1 24
M  V30 28 1 1 25
M  V30 29 1 3 26
M  V30 30 1 4 27
M  V30 31 1 5 28
M  V30 32 1 9 29
M  V30 33 1 9 30
M  V30 34 1 10 31
M  V30 35 1 13 32
M  V30 36 1 16 33
M  V30 37 1 16 34
M  V30 38 1 18 35
M  V30 39 1 19 36
M  V30 40 1 20 37
M  V30 41 1 21 38
M  V30 END BOND
M  V30 END CTAB
M  END
>  <Dataset>  (485) 
ChEMBL_Kinases

>  <Ligand_Instance>  (485) 
nan

>  <PDB_ID>  (485) 
nan

>  <Standardized_SMILES>  (485) 
Cc1cccc(Cl)c1CNc1n[nH]c2c1Cc1ccccc1-2

>  <Name>  (485) 
nan

>  <Pocket>  (485) 
nan

>  <ATP_Site>  (485) 
nan

>  <Peripheral>  (485) 
nan

>  <Num_H_Atoms_ProtBoundConf>  (485) 
nan

>  <Num_Resolved_Atoms>  (485) 
nan

>  <Num_Not_Resolved_Atoms>  (485) 
nan

$$$$
CHEMBL5092306
     RDKit          3D

  0  0  0  0  0  0  0  0  0  0999 V3000
M  V30 BEGIN CTAB
M  V30 COUNTS 51 52 0 0 0
M  V30 BEGIN ATOM
M  V30 1 C 1.414549 -7.663411 1.173083 0
M  V30 2 C 1.839825 -6.539375 0.273633 0
M  V30 3 C 1.168557 -5.340392 0.419825 0
M  V30 4 C 1.618887 -4.341864 -0.450621 0
M  V30 5 C 0.996644 -3.040069 -0.397505 0
M  V30 6 C 1.740660 -1.921405 -0.699099 0
M  V30 7 C 1.078609 -0.726183 -0.625837 0
M  V30 8 C -0.225734 -0.490523 -0.292093 0
M  V30 9 O -1.002520 0.582291 -0.177452 0
M  V30 10 C -0.983126 1.932962 -0.303163 0
M  V30 11 C -0.131590 2.809550 0.523790 0 CFG=1
M  V30 12 C 1.324150 2.676481 0.031267 0
M  V30 13 N -0.434880 4.184708 0.092959 0
M  V30 14 C -0.057079 2.675558 1.970303 0
M  V30 15 C -1.164275 2.841968 2.887154 0
M  V30 16 C -2.331907 1.923886 2.751350 0
M  V30 17 C -1.726539 4.249575 2.991294 0
M  V30 18 C -0.954876 -1.665555 0.009804 0
M  V30 19 C -2.409139 -1.710380 0.401820 0
M  V30 20 F -3.194157 -1.169076 -0.571071 0
M  V30 21 F -2.482489 -1.041198 1.615478 0
M  V30 22 C -0.327354 -2.914294 -0.049491 0
M  V30 23 C 2.632486 -4.549206 -1.358106 0
M  V30 24 C 3.233336 -5.787432 -1.418243 0
M  V30 25 N 2.837670 -6.792930 -0.598545 0
M  V30 26 H 0.304904 -7.603244 1.233771 0
M  V30 27 H 1.712150 -8.650077 0.729054 0
M  V30 28 H 1.830391 -7.536440 2.172721 0
M  V30 29 H 0.384291 -5.212886 1.136085 0
M  V30 30 H 2.770292 -1.990608 -0.972444 0
M  V30 31 H 1.664387 0.121306 -0.878589 0
M  V30 32 H -0.691242 2.112288 -1.428961 0
M  V30 33 H -2.056023 2.282629 -0.355394 0
M  V30 34 H 1.844811 1.927835 0.661466 0
M  V30 35 H 1.878113 3.638359 0.250561 0
M  V30 36 H 1.392497 2.484631 -1.037337 0
M  V30 37 H -1.379287 4.294129 -0.290563 0
M  V30 38 H -0.051878 4.898890 0.699131 0
M  V30 39 H 0.382381 1.634316 2.170404 0
M  V30 40 H 0.831580 3.319667 2.304020 0
M  V30 41 H -0.768814 2.655771 3.939902 0
M  V30 42 H -2.058742 0.974090 3.301540 0
M  V30 43 H -3.247643 2.356168 3.234428 0
M  V30 44 H -2.627788 1.620907 1.760357 0
M  V30 45 H -2.380969 4.231003 3.910308 0
M  V30 46 H -2.406666 4.516434 2.166755 0
M  V30 47 H -0.948897 5.009067 3.214879 0
M  V30 48 H -2.716886 -2.777171 0.536824 0
M  V30 49 H -0.848789 -3.846355 0.174812 0
M  V30 50 H 2.936711 -3.754308 -1.997610 0
M  V30 51 H 4.039109 -6.016793 -2.111993 0
M  V30 END ATOM
M  V30 BEGIN BOND
M  V30 1 1 1 2
M  V30 2 2 2 3
M  V30 3 1 3 4
M  V30 4 1 4 5
M  V30 5 2 5 6
M  V30 6 1 6 7
M  V30 7 2 7 8
M  V30 8 1 8 9
M  V30 9 1 9 10
M  V30 10 1 10 11
M  V30 11 1 11 12
M  V30 12 1 11 13 CFG=1
M  V30 13 1 11 14
M  V30 14 1 14 15
M  V30 15 1 15 16
M  V30 16 1 15 17
M  V30 17 1 8 18
M  V30 18 1 18 19
M  V30 19 1 19 20
M  V30 20 1 19 21
M  V30 21 2 18 22
M  V30 22 2 4 23
M  V30 23 1 23 24
M  V30 24 2 24 25
M  V30 25 1 25 2
M  V30 26 1 22 5
M  V30 27 1 1 26
M  V30 28 1 1 27
M  V30 29 1 1 28
M  V30 30 1 3 29
M  V30 31 1 6 30
M  V30 32 1 7 31
M  V30 33 1 10 32
M  V30 34 1 10 33
M  V30 35 1 12 34
M  V30 36 1 12 35
M  V30 37 1 12 36
M  V30 38 1 13 37
M  V30 39 1 13 38
M  V30 40 1 14 39
M  V30 41 1 14 40
M  V30 42 1 15 41
M  V30 43 1 16 42
M  V30 44 1 16 43
M  V30 45 1 16 44
M  V30 46 1 17 45
M  V30 47 1 17 46
M  V30 48 1 17 47
M  V30 49 1 19 48
M  V30 50 1 22 49
M  V30 51 1 23 50
M  V30 52 1 24 51
M  V30 END BOND
M  V30 END CTAB
M  END
>  <Dataset>  (486) 
ChEMBL_Kinases

>  <Ligand_Instance>  (486) 
nan

>  <PDB_ID>  (486) 
nan

>  <Standardized_SMILES>  (486) 
Cc1cc(-c2ccc(OC[C@@](C)(N)CC(C)C)c(C(F)F)c2)ccn1

>  <Name>  (486) 
nan

>  <Pocket>  (486) 
nan

>  <ATP_Site>  (486) 
nan

>  <Peripheral>  (486) 
nan

>  <Num_H_Atoms_ProtBoundConf>  (486) 
nan

>  <Num_Resolved_Atoms>  (486) 
nan

>  <Num_Not_Resolved_Atoms>  (486) 
nan

$$$$
CHEMBL3702552
     RDKit          3D

  0  0  0  0  0  0  0  0  0  0999 V3000
M  V30 BEGIN CTAB
M  V30 COUNTS 32 33 0 0 0
M  V30 BEGIN ATOM
M  V30 1 C -2.143771 -0.457786 4.313373 0
M  V30 2 C -0.761962 -0.678630 3.794167 0
M  V30 3 O -0.662652 -1.398564 2.617741 0
M  V30 4 C -1.202670 -1.077777 1.405342 0
M  V30 5 O -1.780823 -0.010146 1.640646 0
M  V30 6 C -1.180956 -1.729358 0.104517 0
M  V30 7 C -0.222907 -1.490366 -0.844162 0
M  V30 8 C 0.922481 -0.596482 -0.774984 0
M  V30 9 C 1.234075 0.278502 -1.796180 0
M  V30 10 C 2.321313 1.127464 -1.744658 0
M  V30 11 C 3.150484 1.126281 -0.641609 0
M  V30 12 N 4.258386 1.993931 -0.593081 0 CHG=1 VAL=4
M  V30 13 O 4.502636 2.768852 -1.539549 0
M  V30 14 O 5.082016 1.975195 0.531500 0 CHG=-1 VAL=1
M  V30 15 C 2.883161 0.270264 0.407102 0
M  V30 16 C 1.779097 -0.560176 0.302726 0
M  V30 17 C -0.350386 -2.201100 -2.045914 0
M  V30 18 S -1.911075 -3.245924 -1.782021 0
M  V30 19 C -2.169168 -2.607921 -0.152809 0
M  V30 20 N -3.277377 -3.067366 0.586892 0
M  V30 21 H -2.227697 0.588952 4.657652 0
M  V30 22 H -2.893581 -0.744954 3.560634 0
M  V30 23 H -2.349970 -1.137975 5.191086 0
M  V30 24 H -0.176786 -1.231809 4.586029 0
M  V30 25 H -0.214132 0.288403 3.672770 0
M  V30 26 H 0.615966 0.321956 -2.688278 0
M  V30 27 H 2.530030 1.804873 -2.578466 0
M  V30 28 H 3.534743 0.272320 1.268995 0
M  V30 29 H 1.631031 -1.203326 1.153385 0
M  V30 30 H 0.253668 -2.213542 -2.963458 0
M  V30 31 H -4.220572 -3.165696 0.150452 0
M  V30 32 H -3.254718 -3.342392 1.607532 0
M  V30 END ATOM
M  V30 BEGIN BOND
M  V30 1 1 1 2
M  V30 2 1 2 3
M  V30 3 1 3 4
M  V30 4 2 4 5
M  V30 5 1 4 6
M  V30 6 1 6 7
M  V30 7 1 7 8
M  V30 8 2 8 9
M  V30 9 1 9 10
M  V30 10 2 10 11
M  V30 11 1 11 12
M  V30 12 2 12 13
M  V30 13 1 12 14
M  V30 14 1 11 15
M  V30 15 2 15 16
M  V30 16 2 7 17
M  V30 17 1 17 18
M  V30 18 1 18 19
M  V30 19 1 19 20
M  V30 20 2 19 6
M  V30 21 1 16 8
M  V30 22 1 1 21
M  V30 23 1 1 22
M  V30 24 1 1 23
M  V30 25 1 2 24
M  V30 26 1 2 25
M  V30 27 1 9 26
M  V30 28 1 10 27
M  V30 29 1 15 28
M  V30 30 1 16 29
M  V30 31 1 17 30
M  V30 32 1 20 31
M  V30 33 1 20 32
M  V30 END BOND
M  V30 END CTAB
M  END
>  <Dataset>  (487) 
ChEMBL_Kinases

>  <Ligand_Instance>  (487) 
nan

>  <PDB_ID>  (487) 
nan

>  <Standardized_SMILES>  (487) 
CCOC(=O)c1c(-c2ccc([N+](=O)[O-])cc2)csc1N

>  <Name>  (487) 
nan

>  <Pocket>  (487) 
nan

>  <ATP_Site>  (487) 
nan

>  <Peripheral>  (487) 
nan

>  <Num_H_Atoms_ProtBoundConf>  (487) 
nan

>  <Num_Resolved_Atoms>  (487) 
nan

>  <Num_Not_Resolved_Atoms>  (487) 
nan

$$$$
CHEMBL585
     RDKit          3D

  0  0  0  0  0  0  0  0  0  0999 V3000
M  V30 BEGIN CTAB
M  V30 COUNTS 30 32 0 0 0
M  V30 BEGIN ATOM
M  V30 1 N -2.584408 -1.717070 5.625298 0
M  V30 2 C -1.660183 -1.595556 4.550869 0
M  V30 3 N -0.376350 -2.024233 4.589654 0
M  V30 4 C 0.434635 -1.862506 3.505614 0
M  V30 5 N 1.770072 -2.336513 3.617972 0
M  V30 6 C -0.063249 -1.259115 2.370176 0
M  V30 7 N 0.737462 -1.099769 1.300699 0
M  V30 8 C 0.291580 -0.518092 0.177954 0
M  V30 9 C 1.072904 -0.294289 -1.040787 0
M  V30 10 C 1.866658 -1.309409 -1.534413 0
M  V30 11 C 2.611925 -1.100976 -2.693885 0
M  V30 12 C 2.506814 0.138747 -3.290816 0
M  V30 13 C 1.724030 1.178839 -2.827378 0
M  V30 14 C 0.987206 0.941612 -1.662373 0
M  V30 15 C -1.036675 -0.078058 0.146729 0
M  V30 16 N -1.675553 0.560485 -0.962428 0
M  V30 17 N -1.869577 -0.227258 1.216781 0
M  V30 18 C -1.377676 -0.816670 2.321359 0
M  V30 19 N -2.110567 -1.013053 3.429744 0
M  V30 20 H -2.641767 -2.594711 6.211844 0
M  V30 21 H -3.229147 -0.917844 5.846654 0
M  V30 22 H 2.330491 -1.447375 3.508273 0
M  V30 23 H 2.765756 -2.026029 3.606035 0
M  V30 24 H 1.928339 -2.283801 -1.036188 0
M  V30 25 H 3.260492 -1.869899 -3.133483 0
M  V30 26 H 3.082369 0.334551 -4.207126 0
M  V30 27 H 1.705924 2.117152 -3.364474 0
M  V30 28 H 0.360489 1.757272 -1.281121 0
M  V30 29 H -1.971297 1.539667 -0.727912 0
M  V30 30 H -1.637824 -0.193241 -1.680367 0
M  V30 END ATOM
M  V30 BEGIN BOND
M  V30 1 1 1 2
M  V30 2 2 2 3
M  V30 3 1 3 4
M  V30 4 1 4 5
M  V30 5 2 4 6
M  V30 6 1 6 7
M  V30 7 2 7 8
M  V30 8 1 8 9
M  V30 9 2 9 10
M  V30 10 1 10 11
M  V30 11 2 11 12
M  V30 12 1 12 13
M  V30 13 2 13 14
M  V30 14 1 8 15
M  V30 15 1 15 16
M  V30 16 2 15 17
M  V30 17 1 17 18
M  V30 18 2 18 19
M  V30 19 1 19 2
M  V30 20 1 18 6
M  V30 21 1 14 9
M  V30 22 1 1 20
M  V30 23 1 1 21
M  V30 24 1 5 22
M  V30 25 1 5 23
M  V30 26 1 10 24
M  V30 27 1 11 25
M  V30 28 1 12 26
M  V30 29 1 13 27
M  V30 30 1 14 28
M  V30 31 1 16 29
M  V30 32 1 16 30
M  V30 END BOND
M  V30 END CTAB
M  END
>  <Dataset>  (488) 
ChEMBL_Kinases

>  <Ligand_Instance>  (488) 
nan

>  <PDB_ID>  (488) 
nan

>  <Standardized_SMILES>  (488) 
Nc1nc(N)c2nc(-c3ccccc3)c(N)nc2n1

>  <Name>  (488) 
TRIAMTERENE

>  <Pocket>  (488) 
nan

>  <ATP_Site>  (488) 
nan

>  <Peripheral>  (488) 
nan

>  <Num_H_Atoms_ProtBoundConf>  (488) 
nan

>  <Num_Resolved_Atoms>  (488) 
nan

>  <Num_Not_Resolved_Atoms>  (488) 
nan

$$$$
CHEMBL5089497
     RDKit          3D

  0  0  0  0  0  0  0  0  0  0999 V3000
M  V30 BEGIN CTAB
M  V30 COUNTS 50 53 0 0 0
M  V30 BEGIN ATOM
M  V30 1 C 5.220191 0.219129 -2.963487 0
M  V30 2 N 5.902297 -0.440778 -1.869042 0
M  V30 3 C 7.371699 -0.449441 -1.939416 0
M  V30 4 C 5.272194 -1.068993 -0.759389 0
M  V30 5 O 5.984548 -1.606137 0.140906 0
M  V30 6 C 3.826503 -1.112412 -0.624913 0
M  V30 7 C 3.142692 -1.911466 -1.517226 0
M  V30 8 C 1.754899 -1.997806 -1.424604 0
M  V30 9 C 1.071637 -1.279249 -0.438334 0
M  V30 10 C 1.813879 -0.494375 0.426334 0
M  V30 11 C 3.173029 -0.393786 0.357778 0
M  V30 12 C 1.341541 0.359389 1.541795 0
M  V30 13 O 2.108496 1.089520 2.193541 0
M  V30 14 C -0.075732 0.404805 1.961009 0
M  V30 15 C -0.200478 0.764561 3.309603 0
M  V30 16 C -1.493453 0.811921 3.803079 0
M  V30 17 C -2.616131 0.531334 3.057305 0
M  V30 18 N -3.914450 0.602592 3.662021 0
M  V30 19 C -4.904063 -0.187896 2.969160 0
M  V30 20 C -6.079116 0.123696 2.343212 0
M  V30 21 C -6.817484 -0.879379 1.774805 0
M  V30 22 C -6.456080 -2.205236 1.787529 0
M  V30 23 F -7.239302 -3.129729 1.199183 0
M  V30 24 C -5.261349 -2.542017 2.420640 0
M  V30 25 C -4.509623 -1.536401 2.997045 0
M  V30 26 F -3.364732 -2.031441 3.579118 0
M  V30 27 C -2.438193 0.184445 1.735345 0
M  V30 28 C -1.184386 0.116102 1.170167 0
M  V30 29 C -1.199781 -0.259716 -0.274217 0
M  V30 30 C -0.395351 -1.517791 -0.499824 0
M  V30 31 H 4.373067 -0.451405 -3.280135 0
M  V30 32 H 5.868831 0.388188 -3.824293 0
M  V30 33 H 4.720262 1.151818 -2.575320 0
M  V30 34 H 7.797996 -0.780842 -0.961543 0
M  V30 35 H 7.702680 -1.121707 -2.744950 0
M  V30 36 H 7.765945 0.572632 -2.123380 0
M  V30 37 H 3.537682 -2.513846 -2.322351 0
M  V30 38 H 1.115925 -2.598018 -2.076783 0
M  V30 39 H 3.721295 0.223508 1.045168 0
M  V30 40 H 0.695794 0.975429 3.861865 0
M  V30 41 H -1.644320 1.090135 4.854162 0
M  V30 42 H -4.039549 1.194467 4.514643 0
M  V30 43 H -6.265677 1.188943 2.393432 0
M  V30 44 H -7.737309 -0.557548 1.298064 0
M  V30 45 H -4.996089 -3.589897 2.420234 0
M  V30 46 H -3.322053 -0.039333 1.132406 0
M  V30 47 H -0.612425 0.561593 -0.780819 0
M  V30 48 H -2.218351 -0.332007 -0.659905 0
M  V30 49 H -0.692266 -2.220592 0.336652 0
M  V30 50 H -0.703817 -1.946404 -1.457005 0
M  V30 END ATOM
M  V30 BEGIN BOND
M  V30 1 1 1 2
M  V30 2 1 2 3
M  V30 3 1 2 4
M  V30 4 2 4 5
M  V30 5 1 4 6
M  V30 6 2 6 7
M  V30 7 1 7 8
M  V30 8 2 8 9
M  V30 9 1 9 10
M  V30 10 2 10 11
M  V30 11 1 10 12
M  V30 12 2 12 13
M  V30 13 1 12 14
M  V30 14 2 14 15
M  V30 15 1 15 16
M  V30 16 2 16 17
M  V30 17 1 17 18
M  V30 18 1 18 19
M  V30 19 2 19 20
M  V30 20 1 20 21
M  V30 21 2 21 22
M  V30 22 1 22 23
M  V30 23 1 22 24
M  V30 24 2 24 25
M  V30 25 1 25 26
M  V30 26 1 17 27
M  V30 27 2 27 28
M  V30 28 1 28 29
M  V30 29 1 29 30
M  V30 30 1 11 6
M  V30 31 1 28 14
M  V30 32 1 30 9
M  V30 33 1 25 19
M  V30 34 1 1 31
M  V30 35 1 1 32
M  V30 36 1 1 33
M  V30 37 1 3 34
M  V30 38 1 3 35
M  V30 39 1 3 36
M  V30 40 1 7 37
M  V30 41 1 8 38
M  V30 42 1 11 39
M  V30 43 1 15 40
M  V30 44 1 16 41
M  V30 45 1 18 42
M  V30 46 1 20 43
M  V30 47 1 21 44
M  V30 48 1 24 45
M  V30 49 1 27 46
M  V30 50 1 29 47
M  V30 51 1 29 48
M  V30 52 1 30 49
M  V30 53 1 30 50
M  V30 END BOND
M  V30 END CTAB
M  END
>  <Dataset>  (489) 
ChEMBL_Kinases

>  <Ligand_Instance>  (489) 
nan

>  <PDB_ID>  (489) 
nan

>  <Standardized_SMILES>  (489) 
CN(C)C(=O)c1ccc2c(c1)C(=O)c1ccc(Nc3ccc(F)cc3F)cc1CC2

>  <Name>  (489) 
nan

>  <Pocket>  (489) 
nan

>  <ATP_Site>  (489) 
nan

>  <Peripheral>  (489) 
nan

>  <Num_H_Atoms_ProtBoundConf>  (489) 
nan

>  <Num_Resolved_Atoms>  (489) 
nan

>  <Num_Not_Resolved_Atoms>  (489) 
nan

$$$$
CHEMBL584976
     RDKit          3D

  0  0  0  0  0  0  0  0  0  0999 V3000
M  V30 BEGIN CTAB
M  V30 COUNTS 37 40 0 0 0
M  V30 BEGIN ATOM
M  V30 1 C 0.541896 -6.122580 1.545255 0
M  V30 2 S 2.063030 -5.298449 2.031828 0 CHG=1 VAL=3
M  V30 3 O 1.934623 -5.087359 3.706492 0 CHG=-1 VAL=1
M  V30 4 C 2.138876 -3.705435 1.313164 0
M  V30 5 C 1.614450 -2.620179 1.986735 0
M  V30 6 C 1.658256 -1.350944 1.447668 0
M  V30 7 C 2.223554 -1.100244 0.217267 0
M  V30 8 C 2.253937 0.253612 -0.324908 0
M  V30 9 C 3.315133 0.909839 -0.937309 0
M  V30 10 O 2.943233 2.117146 -1.287447 0
M  V30 11 C 1.699764 2.361723 -0.968101 0
M  V30 12 C 0.856966 3.445977 -1.112561 0
M  V30 13 C -0.445715 3.412837 -0.664313 0
M  V30 14 C -0.913562 2.251834 -0.051812 0
M  V30 15 C -2.280353 2.136368 0.450180 0
M  V30 16 N -3.233133 3.084596 0.395861 0
M  V30 17 N -4.355263 2.608887 0.957681 0
M  V30 18 C -4.073498 1.355181 1.356214 0
M  V30 19 N -4.978236 0.469392 2.006555 0
M  V30 20 O -2.835487 1.100565 1.042674 0
M  V30 21 C -0.056566 1.173943 0.085404 0
M  V30 22 C 1.248605 1.199267 -0.360602 0
M  V30 23 C 2.757029 -2.184565 -0.474899 0
M  V30 24 C 2.710499 -3.468787 0.074988 0
M  V30 25 H 0.690130 -7.196027 1.691095 0
M  V30 26 H -0.325057 -5.726043 2.125861 0
M  V30 27 H 0.383611 -5.887844 0.472234 0
M  V30 28 H 1.163608 -2.809121 2.964141 0
M  V30 29 H 1.220198 -0.581071 2.058832 0
M  V30 30 H 4.296733 0.454499 -1.086345 0
M  V30 31 H 1.219719 4.366482 -1.595447 0
M  V30 32 H -1.098543 4.261579 -0.779706 0
M  V30 33 H -4.637268 -0.409222 2.454956 0
M  V30 34 H -5.998891 0.665798 2.056295 0
M  V30 35 H -0.441915 0.288666 0.561989 0
M  V30 36 H 3.207703 -2.035992 -1.437592 0
M  V30 37 H 3.129582 -4.290753 -0.479352 0
M  V30 END ATOM
M  V30 BEGIN BOND
M  V30 1 1 1 2
M  V30 2 1 2 3
M  V30 3 1 2 4
M  V30 4 2 4 5
M  V30 5 1 5 6
M  V30 6 2 6 7
M  V30 7 1 7 8
M  V30 8 2 8 9
M  V30 9 1 9 10
M  V30 10 1 10 11
M  V30 11 2 11 12
M  V30 12 1 12 13
M  V30 13 2 13 14
M  V30 14 1 14 15
M  V30 15 2 15 16
M  V30 16 1 16 17
M  V30 17 2 17 18
M  V30 18 1 18 19
M  V30 19 1 18 20
M  V30 20 1 14 21
M  V30 21 2 21 22
M  V30 22 1 7 23
M  V30 23 2 23 24
M  V30 24 1 24 4
M  V30 25 1 22 8
M  V30 26 1 22 11
M  V30 27 1 20 15
M  V30 28 1 1 25
M  V30 29 1 1 26
M  V30 30 1 1 27
M  V30 31 1 5 28
M  V30 32 1 6 29
M  V30 33 1 9 30
M  V30 34 1 12 31
M  V30 35 1 13 32
M  V30 36 1 19 33
M  V30 37 1 19 34
M  V30 38 1 21 35
M  V30 39 1 23 36
M  V30 40 1 24 37
M  V30 END BOND
M  V30 END CTAB
M  END
>  <Dataset>  (490) 
ChEMBL_Kinases

>  <Ligand_Instance>  (490) 
nan

>  <PDB_ID>  (490) 
nan

>  <Standardized_SMILES>  (490) 
C[S+]([O-])c1ccc(-c2coc3ccc(-c4nnc(N)o4)cc23)cc1

>  <Name>  (490) 
nan

>  <Pocket>  (490) 
nan

>  <ATP_Site>  (490) 
nan

>  <Peripheral>  (490) 
nan

>  <Num_H_Atoms_ProtBoundConf>  (490) 
nan

>  <Num_Resolved_Atoms>  (490) 
nan

>  <Num_Not_Resolved_Atoms>  (490) 
nan

$$$$
CHEMBL584757
     RDKit          3D

  0  0  0  0  0  0  0  0  0  0999 V3000
M  V30 BEGIN CTAB
M  V30 COUNTS 41 44 0 0 0
M  V30 BEGIN ATOM
M  V30 1 C 1.739748 -7.079306 0.842962 0
M  V30 2 C 1.524160 -5.599952 0.705728 0
M  V30 3 C 0.757077 -4.922348 1.647801 0
M  V30 4 C 0.781403 -3.612366 1.202651 0
M  V30 5 C 1.529927 -3.546933 0.056731 0
M  V30 6 C 1.805821 -2.346961 -0.732377 0
M  V30 7 C 2.573492 -2.407927 -1.867583 0
M  V30 8 C 2.796666 -1.234841 -2.569047 0
M  V30 9 C 2.292090 -0.011482 -2.191991 0
M  V30 10 O 2.345734 1.219395 -2.656596 0
M  V30 11 C 1.659542 2.033523 -1.878828 0
M  V30 12 C 1.096946 1.334448 -0.814870 0
M  V30 13 C 0.267618 1.867835 0.265892 0
M  V30 14 C 0.515055 1.483425 1.581510 0
M  V30 15 C -0.259275 1.974573 2.640057 0
M  V30 16 C -1.301988 2.867690 2.380582 0
M  V30 17 S -2.196716 3.410092 3.786682 0
M  V30 18 C -3.565068 2.362499 4.145332 0
M  V30 19 O -1.275175 3.492690 4.991025 0
M  V30 20 O -2.706755 4.797753 3.538342 0
M  V30 21 C -1.552946 3.253089 1.078850 0
M  V30 22 C -0.778513 2.758646 0.043613 0
M  V30 23 C 1.520836 0.038441 -1.047947 0
M  V30 24 C 1.293321 -1.126553 -0.342488 0
M  V30 25 O 1.957585 -4.752780 -0.210214 0
M  V30 26 H 0.775645 -7.581619 1.079221 0
M  V30 27 H 2.173102 -7.498810 -0.085480 0
M  V30 28 H 2.409513 -7.281371 1.719852 0
M  V30 29 H 0.253982 -5.295044 2.520525 0
M  V30 30 H 0.280705 -2.800200 1.702227 0
M  V30 31 H 2.969453 -3.348088 -2.169671 0
M  V30 32 H 3.406993 -1.304031 -3.465127 0
M  V30 33 H 1.554041 3.112754 -2.056852 0
M  V30 34 H 1.301729 0.799204 1.853474 0
M  V30 35 H -0.032062 1.646803 3.664585 0
M  V30 36 H -3.433395 1.334592 3.702430 0
M  V30 37 H -3.735886 2.225807 5.230274 0
M  V30 38 H -4.534240 2.753902 3.748814 0
M  V30 39 H -2.364623 3.941130 0.929236 0
M  V30 40 H -0.989601 3.071351 -0.967941 0
M  V30 41 H 0.696897 -1.125083 0.553695 0
M  V30 END ATOM
M  V30 BEGIN BOND
M  V30 1 1 1 2
M  V30 2 2 2 3
M  V30 3 1 3 4
M  V30 4 2 4 5
M  V30 5 1 5 6
M  V30 6 2 6 7
M  V30 7 1 7 8
M  V30 8 2 8 9
M  V30 9 1 9 10
M  V30 10 1 10 11
M  V30 11 2 11 12
M  V30 12 1 12 13
M  V30 13 2 13 14
M  V30 14 1 14 15
M  V30 15 2 15 16
M  V30 16 1 16 17
M  V30 17 1 17 18
M  V30 18 2 17 19
M  V30 19 2 17 20
M  V30 20 1 16 21
M  V30 21 2 21 22
M  V30 22 1 12 23
M  V30 23 2 23 24
M  V30 24 1 5 25
M  V30 25 1 25 2
M  V30 26 1 24 6
M  V30 27 1 23 9
M  V30 28 1 22 13
M  V30 29 1 1 26
M  V30 30 1 1 27
M  V30 31 1 1 28
M  V30 32 1 3 29
M  V30 33 1 4 30
M  V30 34 1 7 31
M  V30 35 1 8 32
M  V30 36 1 11 33
M  V30 37 1 14 34
M  V30 38 1 15 35
M  V30 39 1 18 36
M  V30 40 1 18 37
M  V30 41 1 18 38
M  V30 42 1 21 39
M  V30 43 1 22 40
M  V30 44 1 24 41
M  V30 END BOND
M  V30 END CTAB
M  END
>  <Dataset>  (491) 
ChEMBL_Kinases

>  <Ligand_Instance>  (491) 
nan

>  <PDB_ID>  (491) 
nan

>  <Standardized_SMILES>  (491) 
Cc1ccc(-c2ccc3occ(-c4ccc(S(C)(=O)=O)cc4)c3c2)o1

>  <Name>  (491) 
nan

>  <Pocket>  (491) 
nan

>  <ATP_Site>  (491) 
nan

>  <Peripheral>  (491) 
nan

>  <Num_H_Atoms_ProtBoundConf>  (491) 
nan

>  <Num_Resolved_Atoms>  (491) 
nan

>  <Num_Not_Resolved_Atoms>  (491) 
nan

$$$$
CHEMBL58458
     RDKit          3D

  0  0  0  0  0  0  0  0  0  0999 V3000
M  V30 BEGIN CTAB
M  V30 COUNTS 50 55 0 0 0
M  V30 BEGIN ATOM
M  V30 1 C 0.138949 -0.146230 4.240728 0
M  V30 2 C -0.415760 -1.282703 3.345273 0
M  V30 3 N 0.417586 -1.462577 2.261585 0
M  V30 4 C 1.518664 -2.290486 2.376594 0
M  V30 5 C 1.957337 -3.057980 3.479089 0
M  V30 6 C 3.068381 -3.858236 3.524948 0
M  V30 7 C 3.806390 -3.893575 2.363948 0
M  V30 8 C 3.397950 -3.155002 1.280797 0
M  V30 9 C 2.288525 -2.356472 1.236896 0
M  V30 10 C 1.646961 -1.532063 0.355519 0
M  V30 11 C 2.000975 -1.208017 -0.926040 0
M  V30 12 C 1.240857 -0.322489 -1.661666 0
M  V30 13 C 0.118660 0.181909 -0.988730 0
M  V30 14 C -0.812844 1.069323 -1.485810 0
M  V30 15 C -0.953996 1.712652 -2.691571 0
M  V30 16 C -2.011730 2.555252 -2.904774 0
M  V30 17 C -2.947627 2.773857 -1.925229 0
M  V30 18 C -2.747349 2.105047 -0.755750 0
M  V30 19 C -1.695817 1.226021 -0.451677 0
M  V30 20 N -1.384986 0.496533 0.659726 0
M  V30 21 C -2.227441 0.557875 1.755008 0
M  V30 22 C -3.486457 -0.288333 1.697017 0
M  V30 23 C -3.332532 -1.681251 1.489383 0
M  V30 24 N -3.190683 -2.797849 1.330340 0
M  V30 25 C -0.257306 -0.143540 0.317107 0
M  V30 26 C 0.537940 -1.024679 1.009021 0
M  V30 27 C 1.765012 -0.066935 -3.014075 0
M  V30 28 N 2.924706 -0.928927 -3.091472 0
M  V30 29 C 3.051350 -1.573786 -1.844893 0
M  V30 30 O 4.013583 -2.322163 -1.753465 0
M  V30 31 H -0.661441 0.148428 4.937200 0
M  V30 32 H 0.372923 0.680168 3.531003 0
M  V30 33 H 1.016497 -0.432383 4.806997 0
M  V30 34 H -0.247506 -2.139676 4.093556 0
M  V30 35 H -1.471868 -1.403190 3.365023 0
M  V30 36 H 1.429642 -3.090046 4.455258 0
M  V30 37 H 3.375045 -4.432206 4.385360 0
M  V30 38 H 4.695625 -4.511931 2.346944 0
M  V30 39 H 4.045283 -3.262819 0.447569 0
M  V30 40 H -0.246936 1.572723 -3.494217 0
M  V30 41 H -2.092246 3.044496 -3.863411 0
M  V30 42 H -3.776422 3.440642 -2.106906 0
M  V30 43 H -3.535818 2.324769 -0.014634 0
M  V30 44 H -2.779252 1.585021 1.687961 0
M  V30 45 H -1.889126 0.834182 2.758627 0
M  V30 46 H -4.223995 0.082798 0.921793 0
M  V30 47 H -4.027979 -0.022829 2.655572 0
M  V30 48 H 2.020632 0.990766 -3.197243 0
M  V30 49 H 1.045732 -0.418000 -3.779919 0
M  V30 50 H 3.423438 -0.917526 -3.995095 0
M  V30 END ATOM
M  V30 BEGIN BOND
M  V30 1 1 1 2
M  V30 2 1 2 3
M  V30 3 1 3 4
M  V30 4 2 4 5
M  V30 5 1 5 6
M  V30 6 2 6 7
M  V30 7 1 7 8
M  V30 8 2 8 9
M  V30 9 1 9 10
M  V30 10 2 10 11
M  V30 11 1 11 12
M  V30 12 2 12 13
M  V30 13 1 13 14
M  V30 14 2 14 15
M  V30 15 1 15 16
M  V30 16 2 16 17
M  V30 17 1 17 18
M  V30 18 2 18 19
M  V30 19 1 19 20
M  V30 20 1 20 21
M  V30 21 1 21 22
M  V30 22 1 22 23
M  V30 23 3 23 24
M  V30 24 1 20 25
M  V30 25 2 25 26
M  V30 26 1 12 27
M  V30 27 1 27 28
M  V30 28 1 28 29
M  V30 29 2 29 30
M  V30 30 1 26 3
M  V30 31 1 9 4
M  V30 32 1 26 10
M  V30 33 1 29 11
M  V30 34 1 25 13
M  V30 35 1 19 14
M  V30 36 1 1 31
M  V30 37 1 1 32
M  V30 38 1 1 33
M  V30 39 1 2 34
M  V30 40 1 2 35
M  V30 41 1 5 36
M  V30 42 1 6 37
M  V30 43 1 7 38
M  V30 44 1 8 39
M  V30 45 1 15 40
M  V30 46 1 16 41
M  V30 47 1 17 42
M  V30 48 1 18 43
M  V30 49 1 21 44
M  V30 50 1 21 45
M  V30 51 1 22 46
M  V30 52 1 22 47
M  V30 53 1 27 48
M  V30 54 1 27 49
M  V30 55 1 28 50
M  V30 END BOND
M  V30 END CTAB
M  END
>  <Dataset>  (492) 
ChEMBL_Kinases

>  <Ligand_Instance>  (492) 
nan

>  <PDB_ID>  (492) 
nan

>  <Standardized_SMILES>  (492) 
CCn1c2ccccc2c2c3c(c4c5ccccc5n(CCC#N)c4c21)CNC3=O

>  <Name>  (492) 
nan

>  <Pocket>  (492) 
nan

>  <ATP_Site>  (492) 
nan

>  <Peripheral>  (492) 
nan

>  <Num_H_Atoms_ProtBoundConf>  (492) 
nan

>  <Num_Resolved_Atoms>  (492) 
nan

>  <Num_Not_Resolved_Atoms>  (492) 
nan

$$$$
CHEMBL584564
     RDKit          3D

  0  0  0  0  0  0  0  0  0  0999 V3000
M  V30 BEGIN CTAB
M  V30 COUNTS 39 42 0 0 0
M  V30 BEGIN ATOM
M  V30 1 O -3.145319 -3.181072 0.508681 0
M  V30 2 C -2.057809 -2.668495 0.804243 0
M  V30 3 N -0.872108 -2.949554 0.176717 0
M  V30 4 C 0.285861 -2.310404 0.591460 0
M  V30 5 C 1.584706 -2.612277 -0.142297 0
M  V30 6 N 1.843313 -1.700337 -1.176321 0
M  V30 7 C 0.886543 -1.473803 -2.176632 0
M  V30 8 C 0.196152 -0.141622 -2.104086 0
M  V30 9 C 1.222961 0.935566 -2.093056 0
M  V30 10 C 2.361311 0.712423 -1.172498 0
M  V30 11 O 2.046613 1.339649 0.061377 0
M  V30 12 C 2.792412 -0.690083 -0.928662 0
M  V30 13 N 0.354012 -1.417495 1.581660 0
M  V30 14 C -0.700762 -1.019366 2.307467 0
M  V30 15 C -1.685610 -1.701031 1.796083 0
M  V30 16 S -3.176278 -1.158741 2.795650 0
M  V30 17 C -2.271122 -0.059950 3.799100 0
M  V30 18 C -2.557404 0.794340 4.835892 0
M  V30 19 C -1.623346 1.597759 5.498451 0
M  V30 20 C -0.342230 1.410465 4.956740 0
M  V30 21 Cl 0.863096 2.407451 5.785980 0
M  V30 22 C -0.031063 0.562645 3.918502 0
M  V30 23 C -1.016390 -0.191032 3.325128 0
M  V30 24 H -0.855228 -3.643076 -0.596941 0
M  V30 25 H 1.495661 -3.633937 -0.606666 0
M  V30 26 H 2.431473 -2.672296 0.561553 0
M  V30 27 H 1.417525 -1.461885 -3.175887 0
M  V30 28 H 0.134721 -2.261360 -2.227848 0
M  V30 29 H -0.436721 -0.028958 -3.012703 0
M  V30 30 H -0.425722 -0.064099 -1.186008 0
M  V30 31 H 1.577453 1.175998 -3.120154 0
M  V30 32 H 0.673641 1.871735 -1.778070 0
M  V30 33 H 3.219126 1.326947 -1.574036 0
M  V30 34 H 2.084737 2.326588 -0.067484 0
M  V30 35 H 3.194739 -0.787118 0.090048 0
M  V30 36 H 3.668399 -0.898995 -1.613929 0
M  V30 37 H -3.624617 0.790198 5.116426 0
M  V30 38 H -1.973165 2.228070 6.294943 0
M  V30 39 H 1.047403 0.606347 3.693289 0
M  V30 END ATOM
M  V30 BEGIN BOND
M  V30 1 2 1 2
M  V30 2 1 2 3
M  V30 3 1 3 4
M  V30 4 1 4 5
M  V30 5 1 5 6
M  V30 6 1 6 7
M  V30 7 1 7 8
M  V30 8 1 8 9
M  V30 9 1 9 10
M  V30 10 1 10 11
M  V30 11 1 10 12
M  V30 12 2 4 13
M  V30 13 1 13 14
M  V30 14 2 14 15
M  V30 15 1 15 16
M  V30 16 1 16 17
M  V30 17 2 17 18
M  V30 18 1 18 19
M  V30 19 2 19 20
M  V30 20 1 20 21
M  V30 21 1 20 22
M  V30 22 2 22 23
M  V30 23 1 15 2
M  V30 24 1 23 17
M  V30 25 1 12 6
M  V30 26 1 23 14
M  V30 27 1 3 24
M  V30 28 1 5 25
M  V30 29 1 5 26
M  V30 30 1 7 27
M  V30 31 1 7 28
M  V30 32 1 8 29
M  V30 33 1 8 30
M  V30 34 1 9 31
M  V30 35 1 9 32
M  V30 36 1 10 33
M  V30 37 1 11 34
M  V30 38 1 12 35
M  V30 39 1 12 36
M  V30 40 1 18 37
M  V30 41 1 19 38
M  V30 42 1 22 39
M  V30 END BOND
M  V30 END CTAB
M  END
>  <Dataset>  (493) 
ChEMBL_Kinases

>  <Ligand_Instance>  (493) 
nan

>  <PDB_ID>  (493) 
nan

>  <Standardized_SMILES>  (493) 
O=c1[nH]c(CN2CCCC(O)C2)nc2c1sc1ccc(Cl)cc12

>  <Name>  (493) 
nan

>  <Pocket>  (493) 
nan

>  <ATP_Site>  (493) 
nan

>  <Peripheral>  (493) 
nan

>  <Num_H_Atoms_ProtBoundConf>  (493) 
nan

>  <Num_Resolved_Atoms>  (493) 
nan

>  <Num_Not_Resolved_Atoms>  (493) 
nan

$$$$
CHEMBL5089536
     RDKit          3D

  0  0  0  0  0  0  0  0  0  0999 V3000
M  V30 BEGIN CTAB
M  V30 COUNTS 116 118 0 0 0
M  V30 BEGIN ATOM
M  V30 1 C 2.019851 0.597922 -0.049446 0
M  V30 2 O 2.157763 -0.111115 1.140273 0
M  V30 3 C 3.166834 -0.271235 2.014756 0
M  V30 4 O 3.502327 0.487475 1.053889 0
M  V30 5 C 3.008161 -1.106744 3.198622 0 CFG=2
M  V30 6 C 3.892268 -2.299314 3.199981 0
M  V30 7 C 5.336853 -1.967827 3.215561 0
M  V30 8 C 5.759077 -1.207719 1.996130 0
M  V30 9 C 6.217651 -3.206966 3.322634 0
M  V30 10 N 1.584594 -1.521699 3.259636 0
M  V30 11 C 0.991435 -1.601110 4.550675 0
M  V30 12 O 1.752666 -1.321272 5.533241 0
M  V30 13 C -0.399081 -1.971152 4.912956 0 CFG=2
M  V30 14 C -0.481044 -3.440888 5.320207 0
M  V30 15 C -1.645063 -4.029338 4.516812 0
M  V30 16 C -1.428016 -3.294349 3.215995 0 CFG=1
M  V30 17 O -2.406151 -3.346762 2.284011 0
M  V30 18 C -2.364132 -4.532132 1.567781 0
M  V30 19 C -3.447104 -4.477755 0.453685 0
M  V30 20 N -3.203060 -3.405062 -0.428598 0
M  V30 21 C -3.195260 -2.397796 -1.434232 0
M  V30 22 O -4.315567 -2.883346 -1.796525 0
M  V30 23 C -2.293671 -1.312172 -1.844545 0
M  V30 24 C -3.013273 -0.597432 -2.951804 0
M  V30 25 C -2.376517 0.647049 -3.386238 0 CFG=2
M  V30 26 N -1.066141 0.591615 -3.961728 0
M  V30 27 C -0.797812 1.469488 -5.052341 0
M  V30 28 O -1.649673 2.252878 -5.509516 0
M  V30 29 C 0.576256 1.374334 -5.592648 0
M  V30 30 C 1.591279 0.459871 -5.325753 0
M  V30 31 C 2.843655 0.576935 -5.912351 0
M  V30 32 C 3.114577 1.599047 -6.771048 0
M  V30 33 C 2.158096 2.568494 -7.101713 0
M  V30 34 O 2.644586 3.490954 -7.971079 0
M  V30 35 C 2.040003 4.602905 -8.536956 0
M  V30 36 C 1.542519 5.647608 -7.595298 0
M  V30 37 C 2.681709 6.215735 -6.744147 0
M  V30 38 C 1.035726 6.811431 -8.448684 0
M  V30 39 C 0.952223 2.386600 -6.488592 0
M  V30 40 C -2.223724 1.474388 -2.071586 0
M  V30 41 O -1.448046 2.187224 -1.395654 0
M  V30 42 N -3.151060 1.668081 -1.059679 0
M  V30 43 C -3.622609 2.295157 0.161388 0 CFG=1
M  V30 44 C -5.087958 2.249180 0.361622 0
M  V30 45 O -5.583429 0.941311 0.427192 0
M  V30 46 C -2.844927 1.679457 1.272105 0
M  V30 47 O -1.778909 1.093132 0.973488 0
M  V30 48 N -2.722509 1.400505 2.639850 0
M  V30 49 C -1.733606 0.807000 3.558855 0 CFG=1
M  V30 50 C -1.845966 1.398670 4.894322 0 CFG=1
M  V30 51 C -1.618274 2.897446 4.756615 0
M  V30 52 O -3.115359 1.194743 5.429726 0
M  V30 53 P -3.052429 0.450901 6.936266 0
M  V30 54 O -3.394999 -1.004607 6.781020 0
M  V30 55 O -4.140129 1.165907 8.021725 0
M  V30 56 O -1.505215 0.591743 7.565338 0
M  V30 57 C -1.693393 -0.653631 3.415546 0
M  V30 58 O -2.449884 -1.014171 2.499427 0
M  V30 59 N -1.252086 -1.935664 3.764405 0
M  V30 60 H 2.604785 0.049401 -0.833423 0
M  V30 61 H 2.206684 1.665376 -0.037064 0
M  V30 62 H 0.951950 0.508553 -0.447929 0
M  V30 63 H 3.200688 -0.487107 4.127779 0
M  V30 64 H 3.746671 -2.923764 2.256386 0
M  V30 65 H 3.613998 -3.042388 3.993951 0
M  V30 66 H 5.600813 -1.325264 4.111568 0
M  V30 67 H 5.779760 -0.140219 2.178405 0
M  V30 68 H 6.828057 -1.498609 1.723186 0
M  V30 69 H 5.183767 -1.505875 1.106826 0
M  V30 70 H 6.540713 -3.457239 2.295435 0
M  V30 71 H 5.613966 -4.062764 3.665169 0
M  V30 72 H 7.122716 -3.009175 3.924277 0
M  V30 73 H 0.950980 -1.762414 2.468808 0
M  V30 74 H -0.691155 -1.324704 5.767184 0
M  V30 75 H -0.767235 -3.492455 6.379315 0
M  V30 76 H 0.449359 -3.971657 5.138871 0
M  V30 77 H -2.618675 -3.758693 4.959598 0
M  V30 78 H -1.567680 -5.105511 4.416720 0
M  V30 79 H -0.435179 -3.656536 2.819550 0
M  V30 80 H -2.615155 -5.351219 2.256511 0
M  V30 81 H -1.397853 -4.712512 1.088710 0
M  V30 82 H -3.360022 -5.497460 -0.032023 0
M  V30 83 H -4.450958 -4.476369 0.919566 0
M  V30 84 H -2.291998 -3.017712 -0.100003 0
M  V30 85 H -2.115040 -0.671756 -0.964937 0
M  V30 86 H -1.336029 -1.698459 -2.209303 0
M  V30 87 H -3.037177 -1.316627 -3.815336 0
M  V30 88 H -4.064175 -0.444778 -2.655480 0
M  V30 89 H -3.027696 1.253706 -4.044578 0
M  V30 90 H -0.426678 -0.096657 -3.519921 0
M  V30 91 H 1.253685 -0.316697 -4.618999 0
M  V30 92 H 3.516794 -0.216492 -5.595775 0
M  V30 93 H 4.128968 1.565178 -7.152362 0
M  V30 94 H 2.836615 5.119898 -9.165724 0
M  V30 95 H 1.248417 4.305595 -9.279834 0
M  V30 96 H 0.767718 5.342582 -6.888480 0
M  V30 97 H 2.204350 6.784168 -5.924248 0
M  V30 98 H 3.325646 5.411426 -6.344236 0
M  V30 99 H 3.286350 6.926237 -7.323413 0
M  V30 100 H 1.863332 7.539194 -8.531458 0
M  V30 101 H 0.170407 7.297488 -7.984274 0
M  V30 102 H 0.849944 6.474436 -9.493544 0
M  V30 103 H 0.213470 3.122086 -6.744212 0
M  V30 104 H -3.864705 0.926339 -1.205178 0
M  V30 105 H -3.300499 3.394438 0.161603 0
M  V30 106 H -5.426835 2.776942 1.246897 0
M  V30 107 H -5.649588 2.708357 -0.499777 0
M  V30 108 H -6.549864 0.990025 0.567755 0
M  V30 109 H -3.670556 1.797994 2.793581 0
M  V30 110 H -0.750472 1.203784 3.082823 0
M  V30 111 H -1.060332 0.994058 5.535610 0
M  V30 112 H -1.267962 3.329396 5.732290 0
M  V30 113 H -0.890641 3.113773 3.963301 0
M  V30 114 H -2.583151 3.368678 4.526643 0
M  V30 115 H -4.134645 2.152476 7.866855 0
M  V30 116 H -1.275209 1.561098 7.716855 0
M  V30 END ATOM
M  V30 BEGIN BOND
M  V30 1 1 1 2
M  V30 2 1 2 3
M  V30 3 2 3 4
M  V30 4 1 3 5
M  V30 5 1 5 6
M  V30 6 1 6 7
M  V30 7 1 7 8
M  V30 8 1 7 9
M  V30 9 1 5 10
M  V30 10 1 10 11
M  V30 11 2 11 12
M  V30 12 1 11 13
M  V30 13 1 13 14
M  V30 14 1 14 15
M  V30 15 1 15 16
M  V30 16 1 16 17
M  V30 17 1 17 18
M  V30 18 1 18 19
M  V30 19 1 19 20
M  V30 20 1 20 21
M  V30 21 2 21 22
M  V30 22 1 21 23
M  V30 23 1 23 24
M  V30 24 1 24 25
M  V30 25 1 25 26
M  V30 26 1 26 27
M  V30 27 2 27 28
M  V30 28 1 27 29
M  V30 29 2 29 30
M  V30 30 1 30 31
M  V30 31 2 31 32
M  V30 32 1 32 33
M  V30 33 1 33 34
M  V30 34 1 34 35
M  V30 35 1 35 36
M  V30 36 1 36 37
M  V30 37 1 36 38
M  V30 38 2 33 39
M  V30 39 1 25 40
M  V30 40 2 40 41
M  V30 41 1 40 42
M  V30 42 1 42 43
M  V30 43 1 43 44
M  V30 44 1 44 45
M  V30 45 1 43 46
M  V30 46 2 46 47
M  V30 47 1 46 48
M  V30 48 1 48 49
M  V30 49 1 49 50
M  V30 50 1 50 51
M  V30 51 1 50 52
M  V30 52 1 52 53
M  V30 53 2 53 54
M  V30 54 1 53 55
M  V30 55 1 53 56
M  V30 56 1 49 57
M  V30 57 2 57 58
M  V30 58 1 57 59
M  V30 59 1 59 13
M  V30 60 1 59 16
M  V30 61 1 39 29
M  V30 62 1 1 60
M  V30 63 1 1 61
M  V30 64 1 1 62
M  V30 65 1 5 63 CFG=1
M  V30 66 1 6 64
M  V30 67 1 6 65
M  V30 68 1 7 66
M  V30 69 1 8 67
M  V30 70 1 8 68
M  V30 71 1 8 69
M  V30 72 1 9 70
M  V30 73 1 9 71
M  V30 74 1 9 72
M  V30 75 1 10 73
M  V30 76 1 13 74 CFG=1
M  V30 77 1 14 75
M  V30 78 1 14 76
M  V30 79 1 15 77
M  V30 80 1 15 78
M  V30 81 1 16 79 CFG=3
M  V30 82 1 18 80
M  V30 83 1 18 81
M  V30 84 1 19 82
M  V30 85 1 19 83
M  V30 86 1 20 84
M  V30 87 1 23 85
M  V30 88 1 23 86
M  V30 89 1 24 87
M  V30 90 1 24 88
M  V30 91 1 25 89 CFG=3
M  V30 92 1 26 90
M  V30 93 1 30 91
M  V30 94 1 31 92
M  V30 95 1 32 93
M  V30 96 1 35 94
M  V30 97 1 35 95
M  V30 98 1 36 96
M  V30 99 1 37 97
M  V30 100 1 37 98
M  V30 101 1 37 99
M  V30 102 1 38 100
M  V30 103 1 38 101
M  V30 104 1 38 102
M  V30 105 1 39 103
M  V30 106 1 42 104
M  V30 107 1 43 105 CFG=3
M  V30 108 1 44 106
M  V30 109 1 44 107
M  V30 110 1 45 108
M  V30 111 1 48 109
M  V30 112 1 49 110 CFG=3
M  V30 113 1 50 111 CFG=1
M  V30 114 1 51 112
M  V30 115 1 51 113
M  V30 116 1 51 114
M  V30 117 1 55 115
M  V30 118 1 56 116
M  V30 END BOND
M  V30 END CTAB
M  END
>  <Dataset>  (494) 
ChEMBL_Kinases

>  <Ligand_Instance>  (494) 
nan

>  <PDB_ID>  (494) 
nan

>  <Standardized_SMILES>  (494) 
COC(=O)[C@H](CC(C)C)NC(=O)[C@@H]1CC[C@H]2OCCNC(=O)CC[C@H](NC(=O)c3cccc(OCC(C)C)c3)C(=O)N[C@@H](CO)C(=O)N[C@@H]([C@@H](C)OP(=O)(O)O)C(=O)N21

>  <Name>  (494) 
nan

>  <Pocket>  (494) 
nan

>  <ATP_Site>  (494) 
nan

>  <Peripheral>  (494) 
nan

>  <Num_H_Atoms_ProtBoundConf>  (494) 
nan

>  <Num_Resolved_Atoms>  (494) 
nan

>  <Num_Not_Resolved_Atoms>  (494) 
nan

$$$$
CHEMBL5089564
     RDKit          3D

  0  0  0  0  0  0  0  0  0  0999 V3000
M  V30 BEGIN CTAB
M  V30 COUNTS 62 66 0 0 0
M  V30 BEGIN ATOM
M  V30 1 C -0.013465 -4.324287 3.786906 0
M  V30 2 C -0.068001 -2.843278 3.856388 0
M  V30 3 C -0.595203 -2.225996 4.970768 0
M  V30 4 C -0.642977 -0.848214 5.026856 0
M  V30 5 C -0.171728 -0.082711 3.986005 0
M  V30 6 N -0.167822 1.340118 3.929640 0
M  V30 7 C -1.323161 1.933359 3.369194 0
M  V30 8 O -2.246301 1.148741 2.972920 0
M  V30 9 C -1.420027 3.387338 3.264700 0
M  V30 10 C -0.477886 4.338329 3.662156 0
M  V30 11 C -1.030871 5.565536 3.355675 0
M  V30 12 C -0.449088 6.909994 3.569940 0
M  V30 13 F -0.319766 7.513361 2.324393 0
M  V30 14 F 0.782536 6.868261 4.165854 0
M  V30 15 F -1.346411 7.719733 4.268797 0
M  V30 16 N -2.235017 5.373468 2.805737 0
M  V30 17 N -2.462234 4.067670 2.754013 0
M  V30 18 C -3.671658 3.468828 2.218363 0
M  V30 19 C 0.353025 -0.746247 2.878496 0
M  V30 20 C 0.419177 -2.140146 2.783421 0
M  V30 21 C 0.992576 -2.718692 1.571030 0
M  V30 22 C 1.909738 -3.746194 1.467165 0
M  V30 23 C 2.339180 -4.161828 0.222471 0
M  V30 24 C 1.882261 -3.583213 -0.943869 0
M  V30 25 C 0.965558 -2.556720 -0.830415 0
M  V30 26 C 0.520899 -2.123413 0.403998 0
M  V30 27 O 0.417164 -1.878989 -1.925101 0
M  V30 28 C 0.331327 -2.216851 -3.291679 0
M  V30 29 C -0.237379 -1.000354 -3.994468 0
M  V30 30 C -0.971036 -1.346373 -5.255962 0
M  V30 31 O -2.008582 -2.226266 -4.896153 0
M  V30 32 C -1.368525 -3.449354 -4.658586 0
M  V30 33 C -0.560128 -3.420681 -3.397983 0
M  V30 34 C 1.689744 -2.456553 -3.906211 0
M  V30 35 C 2.278145 -3.774800 -3.474350 0
M  V30 36 O 2.646503 -4.608394 -4.354822 0
M  V30 37 N 2.457254 -4.167098 -2.108302 0
M  V30 38 H -0.080081 -4.708391 2.769075 0
M  V30 39 H 0.875907 -4.737339 4.311351 0
M  V30 40 H -0.950708 -4.693146 4.298598 0
M  V30 41 H -0.970522 -2.820534 5.799269 0
M  V30 42 H -1.039621 -0.308408 5.862716 0
M  V30 43 H 0.605258 1.954035 4.263304 0
M  V30 44 H 0.474369 4.145047 4.111179 0
M  V30 45 H -4.295048 4.197669 1.701067 0
M  V30 46 H -3.381486 2.628604 1.544176 0
M  V30 47 H -4.253917 3.059008 3.078536 0
M  V30 48 H 0.738033 -0.163643 2.029584 0
M  V30 49 H 2.226737 -4.154671 2.417235 0
M  V30 50 H 3.058066 -4.970971 0.209113 0
M  V30 51 H -0.190988 -1.319591 0.370585 0
M  V30 52 H -0.943877 -0.469873 -3.316415 0
M  V30 53 H 0.600472 -0.329380 -4.292638 0
M  V30 54 H -0.328738 -1.881393 -5.957364 0
M  V30 55 H -1.412719 -0.413055 -5.643044 0
M  V30 56 H -2.107878 -4.264922 -4.588789 0
M  V30 57 H -0.696023 -3.666316 -5.526566 0
M  V30 58 H 0.124552 -4.308392 -3.427758 0
M  V30 59 H -1.207971 -3.575653 -2.516489 0
M  V30 60 H 2.362037 -1.680892 -3.457852 0
M  V30 61 H 1.701945 -2.339037 -4.984404 0
M  V30 62 H 3.093197 -4.989085 -1.947746 0
M  V30 END ATOM
M  V30 BEGIN BOND
M  V30 1 1 1 2
M  V30 2 2 2 3
M  V30 3 1 3 4
M  V30 4 2 4 5
M  V30 5 1 5 6
M  V30 6 1 6 7
M  V30 7 2 7 8
M  V30 8 1 7 9
M  V30 9 2 9 10
M  V30 10 1 10 11
M  V30 11 1 11 12
M  V30 12 1 12 13
M  V30 13 1 12 14
M  V30 14 1 12 15
M  V30 15 2 11 16
M  V30 16 1 16 17
M  V30 17 1 17 18
M  V30 18 1 5 19
M  V30 19 2 19 20
M  V30 20 1 20 21
M  V30 21 2 21 22
M  V30 22 1 22 23
M  V30 23 2 23 24
M  V30 24 1 24 25
M  V30 25 2 25 26
M  V30 26 1 25 27
M  V30 27 1 27 28
M  V30 28 1 28 29
M  V30 29 1 29 30
M  V30 30 1 30 31
M  V30 31 1 31 32
M  V30 32 1 32 33
M  V30 33 1 28 34
M  V30 34 1 34 35
M  V30 35 2 35 36
M  V30 36 1 35 37
M  V30 37 1 20 2
M  V30 38 1 26 21
M  V30 39 1 33 28
M  V30 40 1 17 9
M  V30 41 1 37 24
M  V30 42 1 1 38
M  V30 43 1 1 39
M  V30 44 1 1 40
M  V30 45 1 3 41
M  V30 46 1 4 42
M  V30 47 1 6 43
M  V30 48 1 10 44
M  V30 49 1 18 45
M  V30 50 1 18 46
M  V30 51 1 18 47
M  V30 52 1 19 48
M  V30 53 1 22 49
M  V30 54 1 23 50
M  V30 55 1 26 51
M  V30 56 1 29 52
M  V30 57 1 29 53
M  V30 58 1 30 54
M  V30 59 1 30 55
M  V30 60 1 32 56
M  V30 61 1 32 57
M  V30 62 1 33 58
M  V30 63 1 33 59
M  V30 64 1 34 60
M  V30 65 1 34 61
M  V30 66 1 37 62
M  V30 END BOND
M  V30 END CTAB
M  END
>  <Dataset>  (495) 
ChEMBL_Kinases

>  <Ligand_Instance>  (495) 
nan

>  <PDB_ID>  (495) 
nan

>  <Standardized_SMILES>  (495) 
Cc1ccc(NC(=O)c2cc(C(F)(F)F)nn2C)cc1-c1ccc2c(c1)OC1(CCOCC1)CC(=O)N2

>  <Name>  (495) 
nan

>  <Pocket>  (495) 
nan

>  <ATP_Site>  (495) 
nan

>  <Peripheral>  (495) 
nan

>  <Num_H_Atoms_ProtBoundConf>  (495) 
nan

>  <Num_Resolved_Atoms>  (495) 
nan

>  <Num_Not_Resolved_Atoms>  (495) 
nan

$$$$
CHEMBL584291
     RDKit          3D

  0  0  0  0  0  0  0  0  0  0999 V3000
M  V30 BEGIN CTAB
M  V30 COUNTS 52 56 0 0 0
M  V30 BEGIN ATOM
M  V30 1 C 5.872602 -4.220712 2.241297 0
M  V30 2 C 4.989009 -4.923037 3.044772 0
M  V30 3 C 3.643412 -4.863712 2.769661 0
M  V30 4 C 3.236515 -4.100361 1.696731 0
M  V30 5 C 4.106129 -3.394801 0.886907 0
M  V30 6 C 5.473811 -3.449062 1.158575 0
M  V30 7 C 3.351277 -2.683070 -0.167433 0
M  V30 8 C 1.934636 -2.656967 0.356492 0
M  V30 9 O 1.593251 -1.473727 1.008431 0
M  V30 10 C 0.632072 -0.567250 0.661534 0
M  V30 11 N 0.483558 0.515384 1.456961 0
M  V30 12 C -0.449472 1.450448 1.169798 0
M  V30 13 N -0.632455 2.601531 1.986664 0
M  V30 14 C -1.468074 2.863417 3.101060 0
M  V30 15 C -1.400865 4.089034 3.684971 0
M  V30 16 C -2.230312 4.305966 4.765455 0
M  V30 17 N -3.073525 3.333477 5.219636 0
M  V30 18 C -3.123297 2.119265 4.621731 0
M  V30 19 C -2.298725 1.861401 3.524648 0
M  V30 20 N -1.228089 1.274955 0.069325 0
M  V30 21 C -1.105265 0.200017 -0.750398 0
M  V30 22 N -1.958637 0.060201 -1.907762 0
M  V30 23 C -2.922614 1.136506 -2.045818 0
M  V30 24 C -3.890149 0.738718 -3.136394 0
M  V30 25 N -4.087452 -0.691510 -3.065545 0
M  V30 26 C -2.910310 -1.371634 -3.590890 0
M  V30 27 C -1.704775 -1.117120 -2.720795 0
M  V30 28 N -0.160754 -0.699269 -0.417167 0
M  V30 29 C 1.860422 -3.883449 1.207687 0
M  V30 30 H 6.938909 -4.279000 2.474406 0
M  V30 31 H 5.410264 -5.498405 3.870109 0
M  V30 32 H 2.969976 -5.420871 3.411387 0
M  V30 33 H 6.225690 -2.924517 0.571883 0
M  V30 34 H 3.767531 -1.687906 -0.385641 0
M  V30 35 H 3.419533 -3.291047 -1.092988 0
M  V30 36 H 1.280723 -2.766468 -0.533835 0
M  V30 37 H 0.037625 3.286890 1.561842 0
M  V30 38 H -0.738062 4.899096 3.353378 0
M  V30 39 H -2.280024 5.222545 5.317811 0
M  V30 40 H -3.816292 1.393897 5.034710 0
M  V30 41 H -2.359461 0.888070 3.069149 0
M  V30 42 H -3.449579 1.342222 -1.090139 0
M  V30 43 H -2.412312 2.115780 -2.282467 0
M  V30 44 H -3.463675 1.062695 -4.113088 0
M  V30 45 H -4.857792 1.251451 -2.948972 0
M  V30 46 H -4.216133 -0.948448 -2.061468 0
M  V30 47 H -2.710810 -0.959998 -4.607461 0
M  V30 48 H -3.150302 -2.453004 -3.618345 0
M  V30 49 H -1.619308 -1.994099 -2.030703 0
M  V30 50 H -0.828504 -1.001769 -3.366720 0
M  V30 51 H 1.120873 -3.822543 2.029287 0
M  V30 52 H 1.563548 -4.765752 0.591420 0
M  V30 END ATOM
M  V30 BEGIN BOND
M  V30 1 2 1 2
M  V30 2 1 2 3
M  V30 3 2 3 4
M  V30 4 1 4 5
M  V30 5 2 5 6
M  V30 6 1 5 7
M  V30 7 1 7 8
M  V30 8 1 8 9
M  V30 9 1 9 10
M  V30 10 2 10 11
M  V30 11 1 11 12
M  V30 12 1 12 13
M  V30 13 1 13 14
M  V30 14 2 14 15
M  V30 15 1 15 16
M  V30 16 2 16 17
M  V30 17 1 17 18
M  V30 18 2 18 19
M  V30 19 2 12 20
M  V30 20 1 20 21
M  V30 21 1 21 22
M  V30 22 1 22 23
M  V30 23 1 23 24
M  V30 24 1 24 25
M  V30 25 1 25 26
M  V30 26 1 26 27
M  V30 27 2 21 28
M  V30 28 1 8 29
M  V30 29 1 6 1
M  V30 30 1 28 10
M  V30 31 1 29 4
M  V30 32 1 19 14
M  V30 33 1 27 22
M  V30 34 1 1 30
M  V30 35 1 2 31
M  V30 36 1 3 32
M  V30 37 1 6 33
M  V30 38 1 7 34
M  V30 39 1 7 35
M  V30 40 1 8 36
M  V30 41 1 13 37
M  V30 42 1 15 38
M  V30 43 1 16 39
M  V30 44 1 18 40
M  V30 45 1 19 41
M  V30 46 1 23 42
M  V30 47 1 23 43
M  V30 48 1 24 44
M  V30 49 1 24 45
M  V30 50 1 25 46
M  V30 51 1 26 47
M  V30 52 1 26 48
M  V30 53 1 27 49
M  V30 54 1 27 50
M  V30 55 1 29 51
M  V30 56 1 29 52
M  V30 END BOND
M  V30 END CTAB
M  END
>  <Dataset>  (496) 
ChEMBL_Kinases

>  <Ligand_Instance>  (496) 
nan

>  <PDB_ID>  (496) 
nan

>  <Standardized_SMILES>  (496) 
c1ccc2c(c1)CC(Oc1nc(Nc3ccncc3)nc(N3CCNCC3)n1)C2

>  <Name>  (496) 
nan

>  <Pocket>  (496) 
nan

>  <ATP_Site>  (496) 
nan

>  <Peripheral>  (496) 
nan

>  <Num_H_Atoms_ProtBoundConf>  (496) 
nan

>  <Num_Resolved_Atoms>  (496) 
nan

>  <Num_Not_Resolved_Atoms>  (496) 
nan

$$$$
CHEMBL5089614
     RDKit          3D

  0  0  0  0  0  0  0  0  0  0999 V3000
M  V30 BEGIN CTAB
M  V30 COUNTS 47 50 0 0 0
M  V30 BEGIN ATOM
M  V30 1 C -0.541323 0.265154 2.633569 0
M  V30 2 N 0.463279 -0.431891 1.845091 0
M  V30 3 C 1.830880 -0.049756 1.840453 0
M  V30 4 N 2.608254 -0.907027 2.527252 0
M  V30 5 C 3.930345 -0.737117 2.697671 0
M  V30 6 N 4.504598 0.360503 2.144182 0
M  V30 7 C 3.782182 1.258238 1.442971 0
M  V30 8 N 4.051210 2.404760 0.788564 0
M  V30 9 C 2.925344 2.900719 0.243834 0
M  V30 10 C 2.662544 4.021800 -0.514918 0
M  V30 11 C 1.391179 4.301340 -0.964966 0
M  V30 12 Br 1.059379 5.858313 -2.011899 0
M  V30 13 C 0.353550 3.422823 -0.639631 0
M  V30 14 C 0.608993 2.300562 0.118642 0
M  V30 15 C 1.879025 2.054951 0.548175 0
M  V30 16 C 2.431240 1.051479 1.288532 0
M  V30 17 C -0.125536 -1.510877 1.111551 0 CFG=1
M  V30 18 C 0.820367 -2.301689 0.263130 0
M  V30 19 C 0.022301 -3.435341 -0.350444 0
M  V30 20 C -1.472501 -3.197055 -0.301816 0
M  V30 21 N -1.952696 -3.053057 1.051471 0
M  V30 22 C -3.094886 -2.206813 1.085113 0
M  V30 23 C -4.326956 -2.773926 0.439289 0
M  V30 24 C -4.783106 -4.000213 1.036117 0
M  V30 25 N -5.138873 -4.994277 1.506556 0
M  V30 26 C -0.954887 -2.454910 1.925417 0
M  V30 27 H -0.583294 -0.241330 3.616802 0
M  V30 28 H -0.141434 1.303272 2.829813 0
M  V30 29 H -1.499931 0.377024 2.130411 0
M  V30 30 H 4.527474 -1.455670 3.262476 0
M  V30 31 H 5.028982 2.813253 0.741378 0
M  V30 32 H 3.465348 4.705550 -0.768730 0
M  V30 33 H -0.619589 3.709195 -1.029815 0
M  V30 34 H -0.263985 1.727614 0.277032 0
M  V30 35 H -0.831421 -1.013291 0.381987 0
M  V30 36 H 1.297408 -1.669794 -0.534805 0
M  V30 37 H 1.581359 -2.759491 0.923724 0
M  V30 38 H 0.283196 -3.462365 -1.448861 0
M  V30 39 H 0.299193 -4.428143 0.029435 0
M  V30 40 H -1.782541 -2.377445 -0.982284 0
M  V30 41 H -1.923596 -4.125851 -0.717298 0
M  V30 42 H -2.849982 -1.260504 0.536406 0
M  V30 43 H -3.301509 -1.892834 2.122292 0
M  V30 44 H -4.174589 -2.845395 -0.670033 0
M  V30 45 H -5.126352 -2.009852 0.575967 0
M  V30 46 H -1.399315 -1.902359 2.766402 0
M  V30 47 H -0.329239 -3.282548 2.325389 0
M  V30 END ATOM
M  V30 BEGIN BOND
M  V30 1 1 1 2
M  V30 2 1 2 3
M  V30 3 2 3 4
M  V30 4 1 4 5
M  V30 5 2 5 6
M  V30 6 1 6 7
M  V30 7 1 7 8
M  V30 8 1 8 9
M  V30 9 2 9 10
M  V30 10 1 10 11
M  V30 11 1 11 12
M  V30 12 2 11 13
M  V30 13 1 13 14
M  V30 14 2 14 15
M  V30 15 1 15 16
M  V30 16 1 2 17
M  V30 17 1 17 18
M  V30 18 1 18 19
M  V30 19 1 19 20
M  V30 20 1 20 21
M  V30 21 1 21 22
M  V30 22 1 22 23
M  V30 23 1 23 24
M  V30 24 3 24 25
M  V30 25 1 21 26
M  V30 26 1 16 3
M  V30 27 1 26 17
M  V30 28 2 16 7
M  V30 29 1 15 9
M  V30 30 1 1 27
M  V30 31 1 1 28
M  V30 32 1 1 29
M  V30 33 1 5 30
M  V30 34 1 8 31
M  V30 35 1 10 32
M  V30 36 1 13 33
M  V30 37 1 14 34
M  V30 38 1 17 35 CFG=3
M  V30 39 1 18 36
M  V30 40 1 18 37
M  V30 41 1 19 38
M  V30 42 1 19 39
M  V30 43 1 20 40
M  V30 44 1 20 41
M  V30 45 1 22 42
M  V30 46 1 22 43
M  V30 47 1 23 44
M  V30 48 1 23 45
M  V30 49 1 26 46
M  V30 50 1 26 47
M  V30 END BOND
M  V30 END CTAB
M  END
>  <Dataset>  (497) 
ChEMBL_Kinases

>  <Ligand_Instance>  (497) 
nan

>  <PDB_ID>  (497) 
nan

>  <Standardized_SMILES>  (497) 
CN(c1ncnc2[nH]c3cc(Br)ccc3c12)[C@H]1CCCN(CCC#N)C1

>  <Name>  (497) 
nan

>  <Pocket>  (497) 
nan

>  <ATP_Site>  (497) 
nan

>  <Peripheral>  (497) 
nan

>  <Num_H_Atoms_ProtBoundConf>  (497) 
nan

>  <Num_Resolved_Atoms>  (497) 
nan

>  <Num_Not_Resolved_Atoms>  (497) 
nan

$$$$
CHEMBL5091544
     RDKit          3D

  0  0  0  0  0  0  0  0  0  0999 V3000
M  V30 BEGIN CTAB
M  V30 COUNTS 28 29 0 0 0
M  V30 BEGIN ATOM
M  V30 1 C 0.316381 -3.273724 2.625195 0
M  V30 2 N 0.099386 -1.849502 2.422453 0
M  V30 3 C -0.266904 -1.046338 3.594525 0
M  V30 4 C 0.168139 -1.016489 1.278226 0
M  V30 5 C 1.321279 -0.417153 0.813944 0
M  V30 6 C 2.649916 -0.510180 1.358885 0
M  V30 7 N 3.720833 -0.605067 1.799711 0
M  V30 8 C 0.953188 0.290466 -0.280289 0
M  V30 9 C 1.592849 1.105279 -1.200515 0
M  V30 10 N 3.006412 1.248507 -0.952650 0
M  V30 11 N 0.952274 1.700109 -2.220312 0
M  V30 12 C -0.390934 1.521780 -2.396938 0
M  V30 13 N -1.061260 0.729753 -1.519380 0
M  V30 14 C -0.421310 0.149020 -0.518673 0
M  V30 15 N -0.859125 -0.668037 0.471400 0
M  V30 16 C -2.254561 -1.098748 0.623894 0
M  V30 17 H 0.618681 -3.754267 1.691180 0
M  V30 18 H 1.178258 -3.323091 3.351652 0
M  V30 19 H -0.593999 -3.708422 3.083739 0
M  V30 20 H -0.663289 -1.717866 4.385744 0
M  V30 21 H 0.645108 -0.540128 3.968975 0
M  V30 22 H -1.006743 -0.257714 3.358240 0
M  V30 23 H 3.385267 0.711514 -1.774046 0
M  V30 24 H 3.759721 0.849945 -1.553146 0
M  V30 25 H -0.852461 2.025873 -3.235186 0
M  V30 26 H -2.941959 -0.257221 0.672474 0
M  V30 27 H -2.546855 -1.751749 -0.250900 0
M  V30 28 H -2.302687 -1.789537 1.504407 0
M  V30 END ATOM
M  V30 BEGIN BOND
M  V30 1 1 1 2
M  V30 2 1 2 3
M  V30 3 1 2 4
M  V30 4 2 4 5
M  V30 5 1 5 6
M  V30 6 3 6 7
M  V30 7 1 5 8
M  V30 8 2 8 9
M  V30 9 1 9 10
M  V30 10 1 9 11
M  V30 11 2 11 12
M  V30 12 1 12 13
M  V30 13 2 13 14
M  V30 14 1 14 15
M  V30 15 1 15 16
M  V30 16 1 15 4
M  V30 17 1 14 8
M  V30 18 1 1 17
M  V30 19 1 1 18
M  V30 20 1 1 19
M  V30 21 1 3 20
M  V30 22 1 3 21
M  V30 23 1 3 22
M  V30 24 1 10 23
M  V30 25 1 10 24
M  V30 26 1 12 25
M  V30 27 1 16 26
M  V30 28 1 16 27
M  V30 29 1 16 28
M  V30 END BOND
M  V30 END CTAB
M  END
>  <Dataset>  (498) 
ChEMBL_Kinases

>  <Ligand_Instance>  (498) 
nan

>  <PDB_ID>  (498) 
nan

>  <Standardized_SMILES>  (498) 
CN(C)c1c(C#N)c2c(N)ncnc2n1C

>  <Name>  (498) 
nan

>  <Pocket>  (498) 
nan

>  <ATP_Site>  (498) 
nan

>  <Peripheral>  (498) 
nan

>  <Num_H_Atoms_ProtBoundConf>  (498) 
nan

>  <Num_Resolved_Atoms>  (498) 
nan

>  <Num_Not_Resolved_Atoms>  (498) 
nan

$$$$
CHEMBL5089637
     RDKit          3D

  0  0  0  0  0  0  0  0  0  0999 V3000
M  V30 BEGIN CTAB
M  V30 COUNTS 55 59 0 0 0
M  V30 BEGIN ATOM
M  V30 1 C 2.676442 -1.778310 3.702924 0
M  V30 2 C 2.931343 -0.445409 3.134677 0
M  V30 3 C 4.014289 0.305339 3.548285 0
M  V30 4 N 4.280248 1.543941 3.042975 0
M  V30 5 C 3.430782 2.018307 2.106456 0
M  V30 6 N 3.741388 3.316038 1.601983 0
M  V30 7 C 4.595084 3.343800 0.463278 0
M  V30 8 C 5.141437 2.250743 -0.187660 0
M  V30 9 C 5.930996 2.652803 -1.267203 0
M  V30 10 N 5.839345 3.995135 -1.239206 0
M  V30 11 N 5.073050 4.403154 -0.247400 0
M  V30 12 C 4.720515 5.770068 0.126257 0
M  V30 13 N 2.381784 1.299565 1.700938 0
M  V30 14 C 2.071127 0.074388 2.163609 0
M  V30 15 C 0.911571 -0.677572 1.690916 0
M  V30 16 C 0.474785 -0.861376 0.370458 0
M  V30 17 C -0.659762 -1.643276 0.441372 0
M  V30 18 N -0.952443 -1.954023 1.703881 0
M  V30 19 C 0.007344 -1.360968 2.436403 0
M  V30 20 C -2.137730 -2.769484 1.619646 0
M  V30 21 O -2.587165 -3.175087 2.748920 0
M  V30 22 N -2.557686 -2.947577 0.255039 0
M  V30 23 C -3.724526 -3.781852 0.071775 0 CFG=2
M  V30 24 C -3.374953 -4.994640 -0.777371 0
M  V30 25 O -2.913042 -4.639643 -2.026593 0
M  V30 26 C -4.818312 -3.085130 -0.630941 0
M  V30 27 C -6.107051 -3.069366 -0.107788 0
M  V30 28 C -7.209975 -2.468459 -0.669584 0
M  V30 29 C -7.031263 -1.814760 -1.869323 0
M  V30 30 Cl -8.408469 -1.040313 -2.611759 0
M  V30 31 C -5.784463 -1.786805 -2.450105 0
M  V30 32 F -5.619830 -1.141800 -3.628941 0
M  V30 33 C -4.731841 -2.413510 -1.822867 0
M  V30 34 C -1.636722 -2.208053 -0.546702 0
M  V30 35 H 3.663459 -2.260824 3.940029 0
M  V30 36 H 2.187522 -2.493127 3.015421 0
M  V30 37 H 2.166594 -1.702821 4.699984 0
M  V30 38 H 4.678685 -0.105000 4.303410 0
M  V30 39 H 3.429339 4.259616 1.951427 0
M  V30 40 H 4.999033 1.207869 0.075031 0
M  V30 41 H 6.472252 1.996794 -1.941973 0
M  V30 42 H 5.437898 6.434942 -0.432814 0
M  V30 43 H 3.706451 6.044730 -0.215548 0
M  V30 44 H 4.874673 5.936390 1.212239 0
M  V30 45 H 1.010773 -0.421589 -0.472450 0
M  V30 46 H 0.062654 -1.416532 3.511973 0
M  V30 47 H -4.126029 -4.157180 1.034354 0
M  V30 48 H -2.619633 -5.612877 -0.248917 0
M  V30 49 H -4.261104 -5.647433 -0.910919 0
M  V30 50 H -2.206800 -5.281772 -2.282564 0
M  V30 51 H -6.292923 -3.578344 0.846318 0
M  V30 52 H -8.174069 -2.508691 -0.188811 0
M  V30 53 H -3.777219 -2.371320 -2.321830 0
M  V30 54 H -1.128310 -2.855609 -1.290811 0
M  V30 55 H -2.124461 -1.324029 -1.022651 0
M  V30 END ATOM
M  V30 BEGIN BOND
M  V30 1 1 1 2
M  V30 2 2 2 3
M  V30 3 1 3 4
M  V30 4 2 4 5
M  V30 5 1 5 6
M  V30 6 1 6 7
M  V30 7 2 7 8
M  V30 8 1 8 9
M  V30 9 2 9 10
M  V30 10 1 10 11
M  V30 11 1 11 12
M  V30 12 1 5 13
M  V30 13 2 13 14
M  V30 14 1 14 15
M  V30 15 1 15 16
M  V30 16 2 16 17
M  V30 17 1 17 18
M  V30 18 1 18 19
M  V30 19 1 18 20
M  V30 20 2 20 21
M  V30 21 1 20 22
M  V30 22 1 22 23
M  V30 23 1 23 24
M  V30 24 1 24 25
M  V30 25 1 23 26
M  V30 26 2 26 27
M  V30 27 1 27 28
M  V30 28 2 28 29
M  V30 29 1 29 30
M  V30 30 1 29 31
M  V30 31 1 31 32
M  V30 32 2 31 33
M  V30 33 1 22 34
M  V30 34 1 14 2
M  V30 35 2 19 15
M  V30 36 1 33 26
M  V30 37 1 11 7
M  V30 38 1 34 17
M  V30 39 1 1 35
M  V30 40 1 1 36
M  V30 41 1 1 37
M  V30 42 1 3 38
M  V30 43 1 6 39
M  V30 44 1 8 40
M  V30 45 1 9 41
M  V30 46 1 12 42
M  V30 47 1 12 43
M  V30 48 1 12 44
M  V30 49 1 16 45
M  V30 50 1 19 46
M  V30 51 1 23 47 CFG=1
M  V30 52 1 24 48
M  V30 53 1 24 49
M  V30 54 1 25 50
M  V30 55 1 27 51
M  V30 56 1 28 52
M  V30 57 1 33 53
M  V30 58 1 34 54
M  V30 59 1 34 55
M  V30 END BOND
M  V30 END CTAB
M  END
>  <Dataset>  (499) 
ChEMBL_Kinases

>  <Ligand_Instance>  (499) 
nan

>  <PDB_ID>  (499) 
nan

>  <Standardized_SMILES>  (499) 
Cc1cnc(Nc2ccnn2C)nc1-c1cc2n(c1)C(=O)N([C@H](CO)c1ccc(Cl)c(F)c1)C2

>  <Name>  (499) 
nan

>  <Pocket>  (499) 
nan

>  <ATP_Site>  (499) 
nan

>  <Peripheral>  (499) 
nan

>  <Num_H_Atoms_ProtBoundConf>  (499) 
nan

>  <Num_Resolved_Atoms>  (499) 
nan

>  <Num_Not_Resolved_Atoms>  (499) 
nan

$$$$
CHEMBL584195
     RDKit          3D

  0  0  0  0  0  0  0  0  0  0999 V3000
M  V30 BEGIN CTAB
M  V30 COUNTS 28 31 0 0 0
M  V30 BEGIN ATOM
M  V30 1 O 0.897325 -5.433791 4.214165 0
M  V30 2 C 0.743866 -4.698528 3.204484 0
M  V30 3 C 0.668386 -3.256770 2.997443 0
M  V30 4 C 0.778923 -2.422122 4.090238 0
M  V30 5 N 0.674835 -1.147836 3.613349 0
M  V30 6 C 0.508005 -1.222740 2.281514 0
M  V30 7 C 0.496374 -2.524551 1.841199 0
M  V30 8 C 0.347058 -2.941789 0.555202 0
M  V30 9 C 0.190765 -1.961573 -0.411175 0
M  V30 10 C 0.194175 -0.620121 -0.024886 0
M  V30 11 C 0.058968 0.527500 -0.780601 0
M  V30 12 C -0.118971 0.700975 -2.133324 0
M  V30 13 C -0.217845 2.001488 -2.562339 0
M  V30 14 Br -0.466604 2.264168 -4.448105 0
M  V30 15 C -0.151681 3.116637 -1.743219 0
M  V30 16 C 0.028788 2.881348 -0.387163 0
M  V30 17 C 0.134836 1.594220 0.101811 0
M  V30 18 N 0.312153 1.118250 1.368649 0
M  V30 19 C 0.349424 -0.239291 1.298011 0
M  V30 20 H 0.649078 -5.312085 2.294535 0
M  V30 21 H 0.918670 -2.561715 5.151424 0
M  V30 22 H 0.709787 -0.236101 4.132635 0
M  V30 23 H 0.352730 -3.995858 0.317180 0
M  V30 24 H 0.069814 -2.268367 -1.444583 0
M  V30 25 H -0.178221 -0.131121 -2.822132 0
M  V30 26 H -0.237858 4.121456 -2.151559 0
M  V30 27 H 0.086555 3.731525 0.295115 0
M  V30 28 H 0.406273 1.663806 2.254742 0
M  V30 END ATOM
M  V30 BEGIN BOND
M  V30 1 2 1 2
M  V30 2 1 2 3
M  V30 3 2 3 4
M  V30 4 1 4 5
M  V30 5 1 5 6
M  V30 6 2 6 7
M  V30 7 1 7 8
M  V30 8 2 8 9
M  V30 9 1 9 10
M  V30 10 1 10 11
M  V30 11 2 11 12
M  V30 12 1 12 13
M  V30 13 1 13 14
M  V30 14 2 13 15
M  V30 15 1 15 16
M  V30 16 2 16 17
M  V30 17 1 17 18
M  V30 18 1 18 19
M  V30 19 1 7 3
M  V30 20 2 19 10
M  V30 21 1 19 6
M  V30 22 1 17 11
M  V30 23 1 2 20
M  V30 24 1 4 21
M  V30 25 1 5 22
M  V30 26 1 8 23
M  V30 27 1 9 24
M  V30 28 1 12 25
M  V30 29 1 15 26
M  V30 30 1 16 27
M  V30 31 1 18 28
M  V30 END BOND
M  V30 END CTAB
M  END
>  <Dataset>  (500) 
ChEMBL_Kinases

>  <Ligand_Instance>  (500) 
nan

>  <PDB_ID>  (500) 
nan

>  <Standardized_SMILES>  (500) 
O=Cc1c[nH]c2c1ccc1c3cc(Br)ccc3[nH]c12

>  <Name>  (500) 
nan

>  <Pocket>  (500) 
nan

>  <ATP_Site>  (500) 
nan

>  <Peripheral>  (500) 
nan

>  <Num_H_Atoms_ProtBoundConf>  (500) 
nan

>  <Num_Resolved_Atoms>  (500) 
nan

>  <Num_Not_Resolved_Atoms>  (500) 
nan

$$$$
CHEMBL5089694
     RDKit          3D

  0  0  0  0  0  0  0  0  0  0999 V3000
M  V30 BEGIN CTAB
M  V30 COUNTS 101 106 0 0 0
M  V30 BEGIN ATOM
M  V30 1 O -2.053701 -1.823622 1.561130 0
M  V30 2 C -3.247477 -2.217733 1.536867 0
M  V30 3 N -4.259862 -1.366959 1.059728 0
M  V30 4 O -4.335202 -0.117470 0.576733 0
M  V30 5 C -4.687164 0.851752 1.482511 0
M  V30 6 C -4.601587 2.193394 0.786339 0
M  V30 7 O -3.277156 2.431127 0.351565 0
M  V30 8 C -3.243377 3.615443 -0.340592 0
M  V30 9 C -1.881832 4.055459 -0.788174 0
M  V30 10 O -1.042328 4.250428 0.329409 0
M  V30 11 C 0.189259 4.679970 -0.070550 0
M  V30 12 C 1.157522 5.011439 1.033388 0
M  V30 13 O 1.524920 4.113497 1.856731 0
M  V30 14 C 1.148772 3.226658 2.695819 0
M  V30 15 C 0.471198 1.929833 2.281125 0
M  V30 16 N 1.329768 1.157499 1.405027 0
M  V30 17 C 2.521267 0.733661 2.134471 0
M  V30 18 C 2.280571 -0.258991 3.213199 0
M  V30 19 O 3.531580 -0.541483 3.791091 0
M  V30 20 C 1.185941 0.751734 0.052733 0
M  V30 21 N 0.108218 0.893315 -0.727787 0
M  V30 22 C 0.071395 0.489971 -2.008637 0
M  V30 23 N -1.033635 0.575218 -2.887250 0
M  V30 24 C -2.434786 0.807788 -2.599730 0
M  V30 25 C -3.239745 -0.042170 -3.578805 0
M  V30 26 O -2.540826 -1.194827 -3.868656 0
M  V30 27 C -1.508214 -0.864686 -4.776211 0
M  V30 28 C -0.846522 0.426811 -4.319796 0
M  V30 29 N 1.180341 -0.076609 -2.502261 0
M  V30 30 C 2.298844 -0.257250 -1.795786 0
M  V30 31 N 3.507446 -0.848107 -2.252997 0
M  V30 32 C 4.112367 -0.763784 -3.449526 0
M  V30 33 C 3.611299 -0.000080 -4.626635 0
M  V30 34 F 2.530268 -0.712334 -5.172850 0
M  V30 35 F 3.301729 1.295398 -4.353755 0
M  V30 36 N 5.259365 -1.475836 -3.476361 0
M  V30 37 C 5.416690 -2.043299 -2.273335 0
M  V30 38 C 6.423231 -2.856746 -1.813335 0
M  V30 39 C 6.357177 -3.322340 -0.511313 0
M  V30 40 C 5.284010 -2.959054 0.292226 0
M  V30 41 C 4.315606 -2.141511 -0.239564 0
M  V30 42 C 4.323779 -1.645399 -1.526525 0
M  V30 43 N 2.244200 0.173036 -0.532745 0
M  V30 44 C -3.569094 -3.555867 2.003082 0
M  V30 45 C -4.854452 -4.032426 2.143596 0
M  V30 46 C -5.075651 -5.318548 2.623337 0
M  V30 47 C -4.038407 -6.159718 2.973794 0
M  V30 48 F -4.208178 -7.417628 3.446765 0
M  V30 49 C -2.734977 -5.692354 2.836717 0
M  V30 50 F -1.650412 -6.438951 3.153496 0
M  V30 51 C -2.553591 -4.412686 2.357599 0
M  V30 52 N -1.217740 -3.953943 2.193041 0
M  V30 53 C -0.787319 -4.211028 0.859132 0
M  V30 54 C -1.580076 -4.813855 -0.115110 0
M  V30 55 C -1.193391 -5.076588 -1.429792 0
M  V30 56 C 0.084461 -4.707850 -1.797466 0
M  V30 57 I 0.710991 -5.079190 -3.759700 0
M  V30 58 C 0.938398 -4.105751 -0.898437 0
M  V30 59 C 0.461261 -3.889571 0.376695 0
M  V30 60 F 1.348773 -3.301906 1.210332 0
M  V30 61 H -5.269430 -1.622812 1.000839 0
M  V30 62 H -3.990386 0.882282 2.364794 0
M  V30 63 H -5.695664 0.666383 1.850768 0
M  V30 64 H -4.838345 2.991181 1.504648 0
M  V30 65 H -5.303769 2.164923 -0.073232 0
M  V30 66 H -3.956793 3.563945 -1.195471 0
M  V30 67 H -3.668976 4.442437 0.302392 0
M  V30 68 H -1.447387 3.279596 -1.447917 0
M  V30 69 H -2.013903 4.997124 -1.359340 0
M  V30 70 H 0.126500 5.530025 -0.800601 0
M  V30 71 H 0.658187 3.832089 -0.635739 0
M  V30 72 H 2.065241 5.501606 0.479721 0
M  V30 73 H 0.756149 5.991696 1.544139 0
M  V30 74 H 0.336305 3.695277 3.392860 0
M  V30 75 H 1.939052 2.950260 3.502078 0
M  V30 76 H 0.298941 1.345370 3.221968 0
M  V30 77 H -0.471290 2.173512 1.779213 0
M  V30 78 H 3.257228 0.268791 1.426130 0
M  V30 79 H 3.067619 1.593308 2.571535 0
M  V30 80 H 1.558992 0.010215 3.987562 0
M  V30 81 H 1.963631 -1.211381 2.747484 0
M  V30 82 H 3.436618 -0.724146 4.753622 0
M  V30 83 H -2.683262 0.572201 -1.558112 0
M  V30 84 H -2.688820 1.854711 -2.867807 0
M  V30 85 H -4.261134 -0.252183 -3.178978 0
M  V30 86 H -3.383755 0.536123 -4.537584 0
M  V30 87 H -1.984120 -0.766944 -5.769983 0
M  V30 88 H -0.801214 -1.706805 -4.785785 0
M  V30 89 H 0.214886 0.503995 -4.611595 0
M  V30 90 H -1.369955 1.257237 -4.817589 0
M  V30 91 H 4.363631 -0.001691 -5.469135 0
M  V30 92 H 7.238627 -3.123710 -2.449461 0
M  V30 93 H 7.148841 -3.961248 -0.151426 0
M  V30 94 H 5.259874 -3.334279 1.294883 0
M  V30 95 H 3.502006 -1.885600 0.415177 0
M  V30 96 H -5.693619 -3.404590 1.879277 0
M  V30 97 H -6.074562 -5.715003 2.743204 0
M  V30 98 H -0.511986 -3.489481 2.803845 0
M  V30 99 H -2.588129 -5.119854 0.124749 0
M  V30 100 H -1.859839 -5.542369 -2.121042 0
M  V30 101 H 1.923680 -3.829868 -1.208368 0
M  V30 END ATOM
M  V30 BEGIN BOND
M  V30 1 2 1 2
M  V30 2 1 2 3
M  V30 3 1 3 4
M  V30 4 1 4 5
M  V30 5 1 5 6
M  V30 6 1 6 7
M  V30 7 1 7 8
M  V30 8 1 8 9
M  V30 9 1 9 10
M  V30 10 1 10 11
M  V30 11 1 11 12
M  V30 12 1 12 13
M  V30 13 1 13 14
M  V30 14 1 14 15
M  V30 15 1 15 16
M  V30 16 1 16 17
M  V30 17 1 17 18
M  V30 18 1 18 19
M  V30 19 1 16 20
M  V30 20 2 20 21
M  V30 21 1 21 22
M  V30 22 1 22 23
M  V30 23 1 23 24
M  V30 24 1 24 25
M  V30 25 1 25 26
M  V30 26 1 26 27
M  V30 27 1 27 28
M  V30 28 2 22 29
M  V30 29 1 29 30
M  V30 30 1 30 31
M  V30 31 1 31 32
M  V30 32 1 32 33
M  V30 33 1 33 34
M  V30 34 1 33 35
M  V30 35 2 32 36
M  V30 36 1 36 37
M  V30 37 2 37 38
M  V30 38 1 38 39
M  V30 39 2 39 40
M  V30 40 1 40 41
M  V30 41 2 41 42
M  V30 42 2 30 43
M  V30 43 1 2 44
M  V30 44 2 44 45
M  V30 45 1 45 46
M  V30 46 2 46 47
M  V30 47 1 47 48
M  V30 48 1 47 49
M  V30 49 1 49 50
M  V30 50 2 49 51
M  V30 51 1 51 52
M  V30 52 1 52 53
M  V30 53 2 53 54
M  V30 54 1 54 55
M  V30 55 2 55 56
M  V30 56 1 56 57
M  V30 57 1 56 58
M  V30 58 2 58 59
M  V30 59 1 59 60
M  V30 60 1 43 20
M  V30 61 1 51 44
M  V30 62 1 59 53
M  V30 63 1 28 23
M  V30 64 1 42 31
M  V30 65 1 42 37
M  V30 66 1 3 61
M  V30 67 1 5 62
M  V30 68 1 5 63
M  V30 69 1 6 64
M  V30 70 1 6 65
M  V30 71 1 8 66
M  V30 72 1 8 67
M  V30 73 1 9 68
M  V30 74 1 9 69
M  V30 75 1 11 70
M  V30 76 1 11 71
M  V30 77 1 12 72
M  V30 78 1 12 73
M  V30 79 1 14 74
M  V30 80 1 14 75
M  V30 81 1 15 76
M  V30 82 1 15 77
M  V30 83 1 17 78
M  V30 84 1 17 79
M  V30 85 1 18 80
M  V30 86 1 18 81
M  V30 87 1 19 82
M  V30 88 1 24 83
M  V30 89 1 24 84
M  V30 90 1 25 85
M  V30 91 1 25 86
M  V30 92 1 27 87
M  V30 93 1 27 88
M  V30 94 1 28 89
M  V30 95 1 28 90
M  V30 96 1 33 91
M  V30 97 1 38 92
M  V30 98 1 39 93
M  V30 99 1 40 94
M  V30 100 1 41 95
M  V30 101 1 45 96
M  V30 102 1 46 97
M  V30 103 1 52 98
M  V30 104 1 54 99
M  V30 105 1 55 100
M  V30 106 1 58 101
M  V30 END BOND
M  V30 END CTAB
M  END
>  <Dataset>  (501) 
ChEMBL_Kinases

>  <Ligand_Instance>  (501) 
nan

>  <PDB_ID>  (501) 
nan

>  <Standardized_SMILES>  (501) 
O=C(NOCCOCCOCCOCCN(CCO)c1nc(N2CCOCC2)nc(-n2c(C(F)F)nc3ccccc32)n1)c1ccc(F)c(F)c1Nc1ccc(I)cc1F

>  <Name>  (501) 
nan

>  <Pocket>  (501) 
nan

>  <ATP_Site>  (501) 
nan

>  <Peripheral>  (501) 
nan

>  <Num_H_Atoms_ProtBoundConf>  (501) 
nan

>  <Num_Resolved_Atoms>  (501) 
nan

>  <Num_Not_Resolved_Atoms>  (501) 
nan

$$$$
CHEMBL5089708
     RDKit          3D

  0  0  0  0  0  0  0  0  0  0999 V3000
M  V30 BEGIN CTAB
M  V30 COUNTS 68 72 0 0 0
M  V30 BEGIN ATOM
M  V30 1 C 4.582362 -0.588991 5.326827 0
M  V30 2 C 3.389499 -1.285812 4.742912 0
M  V30 3 N 3.510948 -1.423252 3.302227 0
M  V30 4 C 2.354880 -2.100226 2.751028 0
M  V30 5 C 1.097556 -1.267767 2.830550 0
M  V30 6 N 1.212347 -0.029349 2.124420 0
M  V30 7 C 0.326265 0.423348 1.115107 0
M  V30 8 C 0.448087 1.614685 0.432520 0
M  V30 9 C -0.505016 1.890447 -0.514540 0
M  V30 10 N -0.432166 3.106384 -1.251232 0
M  V30 11 C 0.628479 4.020422 -0.997273 0
M  V30 12 C 1.788972 3.849780 -1.759437 0
M  V30 13 C 2.672400 4.842466 -1.342543 0
M  V30 14 C 4.068538 5.271339 -1.696928 0
M  V30 15 N 2.054681 5.559321 -0.380849 0
M  V30 16 N 0.842137 5.075080 -0.172804 0
M  V30 17 N -1.526696 1.025298 -0.769306 0
M  V30 18 C -1.635195 -0.137612 -0.094443 0
M  V30 19 N -2.683644 -1.064784 -0.329872 0
M  V30 20 C -3.698570 -0.817741 -1.309791 0 CFG=1
M  V30 21 C -3.160113 -0.660740 -2.716780 0
M  V30 22 C -3.492727 -1.965592 -3.411181 0
M  V30 23 N -3.741253 -2.879439 -2.312289 0
M  V30 24 C -3.178841 -4.183935 -2.280515 0
M  V30 25 O -2.568353 -4.088635 -3.376724 0
M  V30 26 C -3.385935 -5.149422 -1.210498 0
M  V30 27 C -4.406492 -6.060185 -1.022162 0
M  V30 28 C -4.379826 -6.879455 0.087695 0
M  V30 29 C -3.356362 -6.802398 1.005364 0
M  V30 30 C -2.326774 -5.901544 0.839495 0
M  V30 31 C -2.350747 -5.077238 -0.274889 0
M  V30 32 C -4.602077 -2.034085 -1.500400 0
M  V30 33 N -0.697263 -0.402043 0.832995 0
M  V30 34 C 2.367914 0.652731 2.619700 0
M  V30 35 C 3.625702 -0.161552 2.638586 0
M  V30 36 H 4.302670 0.404497 5.775357 0
M  V30 37 H 5.002607 -1.170530 6.194782 0
M  V30 38 H 5.405663 -0.498287 4.615135 0
M  V30 39 H 3.269670 -2.268543 5.226565 0
M  V30 40 H 2.469553 -0.689092 4.983478 0
M  V30 41 H 2.589395 -2.366920 1.709388 0
M  V30 42 H 2.192182 -3.050143 3.291617 0
M  V30 43 H 0.799172 -1.057654 3.872098 0
M  V30 44 H 0.283479 -1.906074 2.408837 0
M  V30 45 H 1.277934 2.261032 0.676422 0
M  V30 46 H -1.119640 3.373921 -1.978270 0
M  V30 47 H 2.163366 3.192926 -2.541037 0
M  V30 48 H 4.419995 4.707485 -2.595059 0
M  V30 49 H 4.772796 5.020282 -0.875673 0
M  V30 50 H 4.092243 6.338396 -1.989045 0
M  V30 51 H 2.220146 6.382223 0.261681 0
M  V30 52 H -2.731380 -1.940872 0.207375 0
M  V30 53 H -4.336735 0.035289 -1.033811 0
M  V30 54 H -3.737229 0.163369 -3.204700 0
M  V30 55 H -2.074406 -0.460828 -2.690319 0
M  V30 56 H -2.607115 -2.245514 -4.003940 0
M  V30 57 H -4.379256 -1.843876 -4.074512 0
M  V30 58 H -5.145371 -6.018471 -1.812368 0
M  V30 59 H -5.215387 -7.569288 0.166541 0
M  V30 60 H -3.401713 -7.486652 1.864941 0
M  V30 61 H -1.539399 -5.874838 1.589488 0
M  V30 62 H -1.489731 -4.403905 -0.305710 0
M  V30 63 H -4.867692 -2.503265 -0.535216 0
M  V30 64 H -5.476282 -1.728343 -2.107430 0
M  V30 65 H 2.155922 0.935526 3.685318 0
M  V30 66 H 2.610670 1.599642 2.093143 0
M  V30 67 H 4.407476 0.470453 3.122746 0
M  V30 68 H 4.026454 -0.352313 1.611977 0
M  V30 END ATOM
M  V30 BEGIN BOND
M  V30 1 1 1 2
M  V30 2 1 2 3
M  V30 3 1 3 4
M  V30 4 1 4 5
M  V30 5 1 5 6
M  V30 6 1 6 7
M  V30 7 2 7 8
M  V30 8 1 8 9
M  V30 9 1 9 10
M  V30 10 1 10 11
M  V30 11 1 11 12
M  V30 12 2 12 13
M  V30 13 1 13 14
M  V30 14 1 13 15
M  V30 15 1 15 16
M  V30 16 2 9 17
M  V30 17 1 17 18
M  V30 18 1 18 19
M  V30 19 1 19 20
M  V30 20 1 20 21
M  V30 21 1 21 22
M  V30 22 1 22 23
M  V30 23 1 23 24
M  V30 24 2 24 25
M  V30 25 1 24 26
M  V30 26 2 26 27
M  V30 27 1 27 28
M  V30 28 2 28 29
M  V30 29 1 29 30
M  V30 30 2 30 31
M  V30 31 1 23 32
M  V30 32 2 18 33
M  V30 33 1 6 34
M  V30 34 1 34 35
M  V30 35 1 35 3
M  V30 36 1 33 7
M  V30 37 2 16 11
M  V30 38 1 32 20
M  V30 39 1 31 26
M  V30 40 1 1 36
M  V30 41 1 1 37
M  V30 42 1 1 38
M  V30 43 1 2 39
M  V30 44 1 2 40
M  V30 45 1 4 41
M  V30 46 1 4 42
M  V30 47 1 5 43
M  V30 48 1 5 44
M  V30 49 1 8 45
M  V30 50 1 10 46
M  V30 51 1 12 47
M  V30 52 1 14 48
M  V30 53 1 14 49
M  V30 54 1 14 50
M  V30 55 1 15 51
M  V30 56 1 19 52
M  V30 57 1 20 53 CFG=1
M  V30 58 1 21 54
M  V30 59 1 21 55
M  V30 60 1 22 56
M  V30 61 1 22 57
M  V30 62 1 27 58
M  V30 63 1 28 59
M  V30 64 1 29 60
M  V30 65 1 30 61
M  V30 66 1 31 62
M  V30 67 1 32 63
M  V30 68 1 32 64
M  V30 69 1 34 65
M  V30 70 1 34 66
M  V30 71 1 35 67
M  V30 72 1 35 68
M  V30 END BOND
M  V30 END CTAB
M  END
>  <Dataset>  (502) 
ChEMBL_Kinases

>  <Ligand_Instance>  (502) 
nan

>  <PDB_ID>  (502) 
nan

>  <Standardized_SMILES>  (502) 
CCN1CCN(c2cc(Nc3cc(C)[nH]n3)nc(N[C@H]3CCN(C(=O)c4ccccc4)C3)n2)CC1

>  <Name>  (502) 
nan

>  <Pocket>  (502) 
nan

>  <ATP_Site>  (502) 
nan

>  <Peripheral>  (502) 
nan

>  <Num_H_Atoms_ProtBoundConf>  (502) 
nan

>  <Num_Resolved_Atoms>  (502) 
nan

>  <Num_Not_Resolved_Atoms>  (502) 
nan

$$$$
CHEMBL5089741
     RDKit          3D

  0  0  0  0  0  0  0  0  0  0999 V3000
M  V30 BEGIN CTAB
M  V30 COUNTS 27 29 0 0 0
M  V30 BEGIN ATOM
M  V30 1 N -0.884715 -4.467411 1.970613 0
M  V30 2 C -1.145453 -3.110090 1.644861 0
M  V30 3 C -0.110033 -2.280533 1.271385 0
M  V30 4 C -0.313719 -0.956473 0.945406 0
M  V30 5 C 0.695120 0.016525 0.537764 0
M  V30 6 C 0.578142 1.359007 0.824566 0
M  V30 7 C 1.510418 2.302760 0.454505 0
M  V30 8 C 2.624075 1.874332 -0.243517 0
M  V30 9 N 3.709826 2.503688 -0.751942 0
M  V30 10 C 4.502708 1.568053 -1.352599 0
M  V30 11 O 3.902847 0.387879 -1.208615 0
M  V30 12 C 2.778666 0.539368 -0.550196 0
M  V30 13 C 1.832457 -0.391193 -0.170105 0
M  V30 14 C -1.608738 -0.440474 0.995385 0
M  V30 15 C -2.602985 -1.337234 1.381071 0
M  V30 16 N -3.968534 -0.936853 1.472563 0
M  V30 17 N -2.429148 -2.647690 1.707652 0
M  V30 18 H -0.067149 -4.979716 1.581696 0
M  V30 19 H -1.556555 -4.948941 2.629799 0
M  V30 20 H 0.922594 -2.602502 1.207109 0
M  V30 21 H -0.297453 1.717129 1.377279 0
M  V30 22 H 1.374100 3.354527 0.703869 0
M  V30 23 H 5.448004 1.828977 -1.842439 0
M  V30 24 H 1.954034 -1.437691 -0.410619 0
M  V30 25 H -1.963161 0.545353 0.782314 0
M  V30 26 H -4.772734 -0.641555 2.068439 0
M  V30 27 H -4.266954 -0.963604 0.451992 0
M  V30 END ATOM
M  V30 BEGIN BOND
M  V30 1 1 1 2
M  V30 2 2 2 3
M  V30 3 1 3 4
M  V30 4 1 4 5
M  V30 5 2 5 6
M  V30 6 1 6 7
M  V30 7 2 7 8
M  V30 8 1 8 9
M  V30 9 2 9 10
M  V30 10 1 10 11
M  V30 11 1 11 12
M  V30 12 2 12 13
M  V30 13 2 4 14
M  V30 14 1 14 15
M  V30 15 1 15 16
M  V30 16 2 15 17
M  V30 17 1 17 2
M  V30 18 1 13 5
M  V30 19 1 12 8
M  V30 20 1 1 18
M  V30 21 1 1 19
M  V30 22 1 3 20
M  V30 23 1 6 21
M  V30 24 1 7 22
M  V30 25 1 10 23
M  V30 26 1 13 24
M  V30 27 1 14 25
M  V30 28 1 16 26
M  V30 29 1 16 27
M  V30 END BOND
M  V30 END CTAB
M  END
>  <Dataset>  (503) 
ChEMBL_Kinases

>  <Ligand_Instance>  (503) 
nan

>  <PDB_ID>  (503) 
nan

>  <Standardized_SMILES>  (503) 
Nc1cc(-c2ccc3ncoc3c2)cc(N)n1

>  <Name>  (503) 
nan

>  <Pocket>  (503) 
nan

>  <ATP_Site>  (503) 
nan

>  <Peripheral>  (503) 
nan

>  <Num_H_Atoms_ProtBoundConf>  (503) 
nan

>  <Num_Resolved_Atoms>  (503) 
nan

>  <Num_Not_Resolved_Atoms>  (503) 
nan

$$$$
CHEMBL5089786
     RDKit          3D

  0  0  0  0  0  0  0  0  0  0999 V3000
M  V30 BEGIN CTAB
M  V30 COUNTS 59 63 0 0 0
M  V30 BEGIN ATOM
M  V30 1 N 1.648191 2.483686 5.467016 0
M  V30 2 C 2.047874 3.763617 4.937294 0
M  V30 3 C 1.488076 4.789711 5.690421 0
M  V30 4 C 1.740455 6.110723 5.361337 0
M  V30 5 C 2.551685 6.366397 4.280294 0
M  V30 6 C 3.106823 5.348861 3.533400 0
M  V30 7 C 2.857049 4.032380 3.858980 0
M  V30 8 N 3.351767 2.874005 3.196222 0
M  V30 9 C 2.668344 1.808361 2.544303 0
M  V30 10 C 3.371141 0.746278 2.007947 0
M  V30 11 C 2.627513 -0.240436 1.392055 0
M  V30 12 C 1.251043 -0.193132 1.302611 0
M  V30 13 C 0.549095 0.874059 1.841937 0
M  V30 14 C 1.291207 1.867308 2.461396 0
M  V30 15 C -0.924577 1.117186 1.854204 0
M  V30 16 C -1.555679 1.025927 0.499788 0
M  V30 17 C -1.646384 -0.393640 0.018477 0
M  V30 18 C -2.890333 -0.624355 -0.536256 0
M  V30 19 C -3.150086 -1.905034 -1.039407 0
M  V30 20 C -2.196930 -2.901829 -0.983097 0
M  V30 21 C -2.579143 -4.199263 -1.538357 0
M  V30 22 O -3.732464 -4.320951 -2.024247 0
M  V30 23 N -1.737371 -5.345118 -1.570905 0
M  V30 24 C -2.171060 -6.583947 -2.128140 0
M  V30 25 C -2.560234 -6.551903 -3.569846 0
M  V30 26 C -1.432660 -6.123295 -4.422403 0
M  V30 27 C -1.663822 -6.048588 -5.799902 0
M  V30 28 N -0.540100 -5.648175 -6.391028 0
M  V30 29 C 0.400789 -5.461969 -5.461476 0
M  V30 30 N -0.152635 -5.754144 -4.263959 0
M  V30 31 C -0.949414 -2.684678 -0.431238 0
M  V30 32 C -0.712696 -1.414736 0.059608 0
M  V30 33 C 0.643184 -1.336213 0.609968 0
M  V30 34 O 1.416042 -2.331433 0.505242 0
M  V30 35 H 2.540140 2.103550 5.868031 0
M  V30 36 H 0.685250 2.034643 5.454601 0
M  V30 37 H 0.838816 4.686148 6.556495 0
M  V30 38 H 1.329537 6.962354 5.914535 0
M  V30 39 H 2.803847 7.372293 3.949814 0
M  V30 40 H 3.756443 5.496540 2.666990 0
M  V30 41 H 4.389268 2.870084 3.232104 0
M  V30 42 H 4.442499 0.696157 2.070200 0
M  V30 43 H 3.134136 -1.093368 0.956256 0
M  V30 44 H 0.668165 2.676482 2.860730 0
M  V30 45 H -1.119401 2.118711 2.258122 0
M  V30 46 H -1.429101 0.390540 2.534813 0
M  V30 47 H -0.980353 1.597950 -0.240172 0
M  V30 48 H -2.553194 1.457941 0.552824 0
M  V30 49 H -3.603330 0.183518 -0.558925 0
M  V30 50 H -4.150078 -2.006749 -1.459077 0
M  V30 51 H -0.777549 -5.250738 -1.168551 0
M  V30 52 H -1.363267 -7.342608 -2.046954 0
M  V30 53 H -3.005162 -6.995451 -1.519818 0
M  V30 54 H -2.853909 -7.613949 -3.820780 0
M  V30 55 H -3.460282 -5.925915 -3.693981 0
M  V30 56 H -2.504079 -6.232766 -6.458333 0
M  V30 57 H 1.446547 -5.144628 -5.481357 0
M  V30 58 H 0.226937 -5.741476 -3.292824 0
M  V30 59 H -0.207702 -3.459862 -0.387433 0
M  V30 END ATOM
M  V30 BEGIN BOND
M  V30 1 1 1 2
M  V30 2 2 2 3
M  V30 3 1 3 4
M  V30 4 2 4 5
M  V30 5 1 5 6
M  V30 6 2 6 7
M  V30 7 1 7 8
M  V30 8 1 8 9
M  V30 9 2 9 10
M  V30 10 1 10 11
M  V30 11 2 11 12
M  V30 12 1 12 13
M  V30 13 2 13 14
M  V30 14 1 13 15
M  V30 15 1 15 16
M  V30 16 1 16 17
M  V30 17 2 17 18
M  V30 18 1 18 19
M  V30 19 2 19 20
M  V30 20 1 20 21
M  V30 21 2 21 22
M  V30 22 1 21 23
M  V30 23 1 23 24
M  V30 24 1 24 25
M  V30 25 1 25 26
M  V30 26 2 26 27
M  V30 27 1 27 28
M  V30 28 2 28 29
M  V30 29 1 29 30
M  V30 30 1 20 31
M  V30 31 2 31 32
M  V30 32 1 32 33
M  V30 33 2 33 34
M  V30 34 1 7 2
M  V30 35 1 14 9
M  V30 36 1 32 17
M  V30 37 1 33 12
M  V30 38 1 30 26
M  V30 39 1 1 35
M  V30 40 1 1 36
M  V30 41 1 3 37
M  V30 42 1 4 38
M  V30 43 1 5 39
M  V30 44 1 6 40
M  V30 45 1 8 41
M  V30 46 1 10 42
M  V30 47 1 11 43
M  V30 48 1 14 44
M  V30 49 1 15 45
M  V30 50 1 15 46
M  V30 51 1 16 47
M  V30 52 1 16 48
M  V30 53 1 18 49
M  V30 54 1 19 50
M  V30 55 1 23 51
M  V30 56 1 24 52
M  V30 57 1 24 53
M  V30 58 1 25 54
M  V30 59 1 25 55
M  V30 60 1 27 56
M  V30 61 1 29 57
M  V30 62 1 30 58
M  V30 63 1 31 59
M  V30 END BOND
M  V30 END CTAB
M  END
>  <Dataset>  (504) 
ChEMBL_Kinases

>  <Ligand_Instance>  (504) 
nan

>  <PDB_ID>  (504) 
nan

>  <Standardized_SMILES>  (504) 
Nc1ccccc1Nc1ccc2c(c1)CCc1ccc(C(=O)NCCc3cnc[nH]3)cc1C2=O

>  <Name>  (504) 
nan

>  <Pocket>  (504) 
nan

>  <ATP_Site>  (504) 
nan

>  <Peripheral>  (504) 
nan

>  <Num_H_Atoms_ProtBoundConf>  (504) 
nan

>  <Num_Resolved_Atoms>  (504) 
nan

>  <Num_Not_Resolved_Atoms>  (504) 
nan

$$$$
CHEMBL5089793
     RDKit          3D

  0  0  0  0  0  0  0  0  0  0999 V3000
M  V30 BEGIN CTAB
M  V30 COUNTS 16 17 0 0 0
M  V30 BEGIN ATOM
M  V30 1 N -0.700370 -1.087084 -0.014507 0
M  V30 2 C 0.631182 -0.600813 0.104599 0
M  V30 3 N 1.529417 -0.934792 -0.814397 0
M  V30 4 C 2.800736 -0.597822 -0.892811 0
M  V30 5 C 3.267979 0.212451 0.114610 0
M  V30 6 Cl 4.886649 0.807412 0.265230 0
M  V30 7 C 2.374299 0.613592 1.132880 0
M  V30 8 S 2.565064 1.641295 2.596148 0
M  V30 9 C 0.894181 1.498466 3.152148 0
M  V30 10 C 0.274739 0.686245 2.212123 0
M  V30 11 C 0.993833 0.205802 1.154797 0
M  V30 12 H -0.743216 -1.989809 0.532053 0
M  V30 13 H -1.287424 -0.445946 -0.597828 0
M  V30 14 H 3.503063 -0.883420 -1.648293 0
M  V30 15 H 0.490138 1.949900 4.020209 0
M  V30 16 H -0.772359 0.460306 2.354589 0
M  V30 END ATOM
M  V30 BEGIN BOND
M  V30 1 1 1 2
M  V30 2 2 2 3
M  V30 3 1 3 4
M  V30 4 2 4 5
M  V30 5 1 5 6
M  V30 6 1 5 7
M  V30 7 1 7 8
M  V30 8 1 8 9
M  V30 9 2 9 10
M  V30 10 1 10 11
M  V30 11 1 11 2
M  V30 12 2 11 7
M  V30 13 1 1 12
M  V30 14 1 1 13
M  V30 15 1 4 14
M  V30 16 1 9 15
M  V30 17 1 10 16
M  V30 END BOND
M  V30 END CTAB
M  END
>  <Dataset>  (505) 
ChEMBL_Kinases

>  <Ligand_Instance>  (505) 
nan

>  <PDB_ID>  (505) 
nan

>  <Standardized_SMILES>  (505) 
Nc1ncc(Cl)c2sccc12

>  <Name>  (505) 
nan

>  <Pocket>  (505) 
nan

>  <ATP_Site>  (505) 
nan

>  <Peripheral>  (505) 
nan

>  <Num_H_Atoms_ProtBoundConf>  (505) 
nan

>  <Num_Resolved_Atoms>  (505) 
nan

>  <Num_Not_Resolved_Atoms>  (505) 
nan

$$$$
CHEMBL583964
     RDKit          3D

  0  0  0  0  0  0  0  0  0  0999 V3000
M  V30 BEGIN CTAB
M  V30 COUNTS 57 60 0 0 0
M  V30 BEGIN ATOM
M  V30 1 C 2.533956 -5.568869 -1.439048 0
M  V30 2 O 1.410023 -6.050319 -0.731920 0
M  V30 3 C 0.556684 -5.225684 -0.011203 0
M  V30 4 C 0.738920 -3.863102 0.072460 0
M  V30 5 C -0.069861 -2.997799 0.768316 0
M  V30 6 N 0.099218 -1.596637 0.867720 0
M  V30 7 C 1.117664 -0.815413 0.271983 0
M  V30 8 C 1.132926 0.544552 0.478895 0
M  V30 9 C 2.069824 1.398486 -0.048054 0
M  V30 10 O 2.137963 2.764222 0.120673 0
M  V30 11 C 1.191902 3.507510 0.788288 0
M  V30 12 C 1.657928 4.175956 1.915972 0
M  V30 13 C 0.848926 4.966470 2.703817 0
M  V30 14 C -0.478443 5.077045 2.326793 0
M  V30 15 C -1.336947 5.937638 3.193903 0
M  V30 16 N -0.939579 4.435038 1.237817 0
M  V30 17 C -0.143151 3.668507 0.478293 0
M  V30 18 C -0.615090 2.972572 -0.713143 0
M  V30 19 C -1.819405 2.316739 -0.577774 0
M  V30 20 C -2.335665 1.632002 -1.662642 0
M  V30 21 C -1.661200 1.593459 -2.887690 0
M  V30 22 C -0.450860 2.275349 -2.959354 0
M  V30 23 N 0.047182 2.941347 -1.897432 0
M  V30 24 C 3.064691 0.876918 -0.835798 0
M  V30 25 C 3.067085 -0.480732 -1.054634 0
M  V30 26 N 2.115695 -1.243448 -0.503140 0
M  V30 27 C -1.123955 -3.620223 1.404928 0
M  V30 28 C -1.353556 -4.973704 1.355523 0
M  V30 29 O -2.413275 -5.570293 1.999861 0
M  V30 30 C -3.383884 -4.929258 2.772678 0
M  V30 31 C -0.512236 -5.798111 0.643441 0
M  V30 32 O -0.709947 -7.169247 0.569150 0
M  V30 33 C -1.482518 -7.817460 -0.420012 0
M  V30 34 H 3.097699 -4.781076 -0.918531 0
M  V30 35 H 3.204587 -6.467439 -1.575808 0
M  V30 36 H 2.249333 -5.141943 -2.441230 0
M  V30 37 H 1.583192 -3.498389 -0.458277 0
M  V30 38 H -0.614571 -1.094339 1.449113 0
M  V30 39 H 0.361850 0.995017 1.105941 0
M  V30 40 H 2.705607 4.104242 2.235495 0
M  V30 41 H 1.222444 5.481078 3.577971 0
M  V30 42 H -2.390550 5.938509 2.903461 0
M  V30 43 H -0.943718 6.980729 3.178698 0
M  V30 44 H -1.303569 5.562683 4.239280 0
M  V30 45 H -2.378410 2.319434 0.355109 0
M  V30 46 H -3.283997 1.096197 -1.610864 0
M  V30 47 H -2.110333 1.042067 -3.706108 0
M  V30 48 H 0.074301 2.248234 -3.905255 0
M  V30 49 H 3.854508 1.468753 -1.300042 0
M  V30 50 H 3.846344 -0.929486 -1.678051 0
M  V30 51 H -1.826480 -3.027490 1.985122 0
M  V30 52 H -4.352219 -5.510731 2.746691 0
M  V30 53 H -3.095309 -4.884070 3.859302 0
M  V30 54 H -3.602964 -3.897998 2.467021 0
M  V30 55 H -2.024362 -7.030463 -1.017420 0
M  V30 56 H -2.294187 -8.412166 0.077279 0
M  V30 57 H -0.878196 -8.438613 -1.106477 0
M  V30 END ATOM
M  V30 BEGIN BOND
M  V30 1 1 1 2
M  V30 2 1 2 3
M  V30 3 2 3 4
M  V30 4 1 4 5
M  V30 5 1 5 6
M  V30 6 1 6 7
M  V30 7 2 7 8
M  V30 8 1 8 9
M  V30 9 1 9 10
M  V30 10 1 10 11
M  V30 11 2 11 12
M  V30 12 1 12 13
M  V30 13 2 13 14
M  V30 14 1 14 15
M  V30 15 1 14 16
M  V30 16 2 16 17
M  V30 17 1 17 18
M  V30 18 2 18 19
M  V30 19 1 19 20
M  V30 20 2 20 21
M  V30 21 1 21 22
M  V30 22 2 22 23
M  V30 23 2 9 24
M  V30 24 1 24 25
M  V30 25 2 25 26
M  V30 26 2 5 27
M  V30 27 1 27 28
M  V30 28 1 28 29
M  V30 29 1 29 30
M  V30 30 2 28 31
M  V30 31 1 31 32
M  V30 32 1 32 33
M  V30 33 1 31 3
M  V30 34 1 26 7
M  V30 35 1 17 11
M  V30 36 1 23 18
M  V30 37 1 1 34
M  V30 38 1 1 35
M  V30 39 1 1 36
M  V30 40 1 4 37
M  V30 41 1 6 38
M  V30 42 1 8 39
M  V30 43 1 12 40
M  V30 44 1 13 41
M  V30 45 1 15 42
M  V30 46 1 15 43
M  V30 47 1 15 44
M  V30 48 1 19 45
M  V30 49 1 20 46
M  V30 50 1 21 47
M  V30 51 1 22 48
M  V30 52 1 24 49
M  V30 53 1 25 50
M  V30 54 1 27 51
M  V30 55 1 30 52
M  V30 56 1 30 53
M  V30 57 1 30 54
M  V30 58 1 33 55
M  V30 59 1 33 56
M  V30 60 1 33 57
M  V30 END BOND
M  V30 END CTAB
M  END
>  <Dataset>  (506) 
ChEMBL_Kinases

>  <Ligand_Instance>  (506) 
nan

>  <PDB_ID>  (506) 
nan

>  <Standardized_SMILES>  (506) 
COc1cc(Nc2cc(Oc3ccc(C)nc3-c3ccccn3)ccn2)cc(OC)c1OC

>  <Name>  (506) 
nan

>  <Pocket>  (506) 
nan

>  <ATP_Site>  (506) 
nan

>  <Peripheral>  (506) 
nan

>  <Num_H_Atoms_ProtBoundConf>  (506) 
nan

>  <Num_Resolved_Atoms>  (506) 
nan

>  <Num_Not_Resolved_Atoms>  (506) 
nan

$$$$
CHEMBL5089834
     RDKit          3D

  0  0  0  0  0  0  0  0  0  0999 V3000
M  V30 BEGIN CTAB
M  V30 COUNTS 37 39 0 0 0
M  V30 BEGIN ATOM
M  V30 1 C 0.289609 -2.737042 3.264449 0
M  V30 2 C 0.178143 -3.033021 1.780775 0 CFG=2
M  V30 3 C 0.973846 -4.271138 1.411744 0
M  V30 4 C 2.396210 -3.759499 1.332833 0
M  V30 5 C 2.268824 -2.330225 0.871446 0
M  V30 6 N 0.849033 -1.981444 1.038138 0
M  V30 7 C 0.325283 -0.770168 0.510466 0
M  V30 8 C 1.075102 0.174273 -0.172031 0
M  V30 9 C 2.470410 0.173420 -0.493064 0
M  V30 10 N 3.622853 0.178484 -0.738047 0
M  V30 11 C 0.280331 1.233242 -0.558140 0
M  V30 12 C 0.488474 2.421425 -1.246468 0
M  V30 13 N 1.811062 2.713372 -1.710508 0
M  V30 14 N -0.573322 3.225392 -1.433351 0
M  V30 15 C -1.798404 2.903738 -0.976001 0
M  V30 16 N -2.916839 3.764193 -1.180249 0
M  V30 17 N -2.040931 1.762526 -0.304981 0
M  V30 18 C -0.984707 0.927192 -0.099941 0
M  V30 19 N -0.917944 -0.280942 0.535313 0
M  V30 20 C -2.058899 -0.905091 1.135478 0
M  V30 21 H 0.786216 -1.765978 3.460827 0
M  V30 22 H -0.735277 -2.666142 3.680494 0
M  V30 23 H 0.816551 -3.547056 3.807177 0
M  V30 24 H -0.850447 -3.222647 1.484462 0
M  V30 25 H 0.856334 -5.107498 2.098401 0
M  V30 26 H 0.678801 -4.579173 0.393750 0
M  V30 27 H 3.013355 -4.377068 0.639082 0
M  V30 28 H 2.832569 -3.833974 2.357331 0
M  V30 29 H 2.915320 -1.691546 1.491522 0
M  V30 30 H 2.540963 -2.337546 -0.204375 0
M  V30 31 H 2.473277 2.235666 -2.341999 0
M  V30 32 H 2.016537 3.627696 -1.226671 0
M  V30 33 H -3.322848 4.607270 -0.684925 0
M  V30 34 H -2.841887 4.443299 -0.375924 0
M  V30 35 H -2.941828 -0.197107 1.180653 0
M  V30 36 H -2.477186 -1.760449 0.527168 0
M  V30 37 H -1.900938 -1.192861 2.188137 0
M  V30 END ATOM
M  V30 BEGIN BOND
M  V30 1 1 1 2
M  V30 2 1 2 3
M  V30 3 1 3 4
M  V30 4 1 4 5
M  V30 5 1 5 6
M  V30 6 1 6 7
M  V30 7 2 7 8
M  V30 8 1 8 9
M  V30 9 3 9 10
M  V30 10 1 8 11
M  V30 11 2 11 12
M  V30 12 1 12 13
M  V30 13 1 12 14
M  V30 14 2 14 15
M  V30 15 1 15 16
M  V30 16 1 15 17
M  V30 17 2 17 18
M  V30 18 1 18 19
M  V30 19 1 19 20
M  V30 20 1 6 2
M  V30 21 1 19 7
M  V30 22 1 18 11
M  V30 23 1 1 21
M  V30 24 1 1 22
M  V30 25 1 1 23
M  V30 26 1 2 24 CFG=3
M  V30 27 1 3 25
M  V30 28 1 3 26
M  V30 29 1 4 27
M  V30 30 1 4 28
M  V30 31 1 5 29
M  V30 32 1 5 30
M  V30 33 1 13 31
M  V30 34 1 13 32
M  V30 35 1 16 33
M  V30 36 1 16 34
M  V30 37 1 20 35
M  V30 38 1 20 36
M  V30 39 1 20 37
M  V30 END BOND
M  V30 END CTAB
M  END
>  <Dataset>  (507) 
ChEMBL_Kinases

>  <Ligand_Instance>  (507) 
nan

>  <PDB_ID>  (507) 
nan

>  <Standardized_SMILES>  (507) 
C[C@@H]1CCCN1c1c(C#N)c2c(N)nc(N)nc2n1C

>  <Name>  (507) 
nan

>  <Pocket>  (507) 
nan

>  <ATP_Site>  (507) 
nan

>  <Peripheral>  (507) 
nan

>  <Num_H_Atoms_ProtBoundConf>  (507) 
nan

>  <Num_Resolved_Atoms>  (507) 
nan

>  <Num_Not_Resolved_Atoms>  (507) 
nan

$$$$
CHEMBL5089877
     RDKit          3D

  0  0  0  0  0  0  0  0  0  0999 V3000
M  V30 BEGIN CTAB
M  V30 COUNTS 39 41 0 0 0
M  V30 BEGIN ATOM
M  V30 1 C 0.602507 -3.571555 0.736107 0
M  V30 2 C -0.871624 -3.151933 0.663229 0
M  V30 3 C -1.230320 -2.390694 1.864296 0
M  V30 4 C -0.848410 -1.086539 2.041738 0
M  V30 5 C -0.115454 -0.283961 1.081575 0
M  V30 6 C -0.388401 0.028403 -0.229872 0
M  V30 7 C 0.441435 0.794313 -1.014707 0
M  V30 8 O 0.124482 1.074275 -2.310344 0
M  V30 9 C -1.022581 0.648671 -2.989443 0
M  V30 10 C 1.607371 1.273380 -0.454596 0
M  V30 11 N 2.460991 2.026493 -1.171407 0
M  V30 12 C 3.614553 2.513055 -0.658127 0
M  V30 13 N 4.401303 3.289912 -1.551792 0
M  V30 14 N 3.942483 2.245748 0.619858 0
M  V30 15 C 3.141242 1.494838 1.415472 0
M  V30 16 C 1.977092 1.020055 0.851217 0
M  V30 17 C 1.084721 0.235801 1.585046 0
M  V30 18 C -1.163371 -0.367450 3.189283 0
M  V30 19 C -1.891597 -0.944431 4.226310 0
M  V30 20 C -2.268223 -2.260946 4.027629 0
M  V30 21 O -3.008163 -2.918543 5.029340 0
M  V30 22 C -1.962298 -2.983869 2.895998 0
M  V30 23 F -2.371735 -4.276821 2.778140 0
M  V30 24 H 1.174099 -2.965572 1.459037 0
M  V30 25 H 1.110000 -3.472899 -0.244229 0
M  V30 26 H 0.682359 -4.662754 1.006872 0
M  V30 27 H -1.448363 -4.098815 0.569898 0
M  V30 28 H -0.970067 -2.628926 -0.294627 0
M  V30 29 H -1.322457 -0.364971 -0.597046 0
M  V30 30 H -1.025547 -0.464009 -3.003543 0
M  V30 31 H -1.027505 1.045374 -4.032142 0
M  V30 32 H -1.961679 1.000775 -2.522342 0
M  V30 33 H 4.394684 3.113109 -2.579891 0
M  V30 34 H 4.999047 4.061111 -1.133216 0
M  V30 35 H 3.396732 1.275810 2.442870 0
M  V30 36 H 1.409108 0.053140 2.623161 0
M  V30 37 H -0.884303 0.670887 3.381535 0
M  V30 38 H -2.187364 -0.488814 5.146453 0
M  V30 39 H -4.007784 -3.122451 4.898372 0
M  V30 END ATOM
M  V30 BEGIN BOND
M  V30 1 1 1 2
M  V30 2 1 2 3
M  V30 3 2 3 4
M  V30 4 1 4 5
M  V30 5 2 5 6
M  V30 6 1 6 7
M  V30 7 1 7 8
M  V30 8 1 8 9
M  V30 9 2 7 10
M  V30 10 1 10 11
M  V30 11 2 11 12
M  V30 12 1 12 13
M  V30 13 1 12 14
M  V30 14 2 14 15
M  V30 15 1 15 16
M  V30 16 2 16 17
M  V30 17 1 4 18
M  V30 18 2 18 19
M  V30 19 1 19 20
M  V30 20 1 20 21
M  V30 21 2 20 22
M  V30 22 1 22 23
M  V30 23 1 22 3
M  V30 24 1 17 5
M  V30 25 1 16 10
M  V30 26 1 1 24
M  V30 27 1 1 25
M  V30 28 1 1 26
M  V30 29 1 2 27
M  V30 30 1 2 28
M  V30 31 1 6 29
M  V30 32 1 9 30
M  V30 33 1 9 31
M  V30 34 1 9 32
M  V30 35 1 13 33
M  V30 36 1 13 34
M  V30 37 1 15 35
M  V30 38 1 17 36
M  V30 39 1 18 37
M  V30 40 1 19 38
M  V30 41 1 21 39
M  V30 END BOND
M  V30 END CTAB
M  END
>  <Dataset>  (508) 
ChEMBL_Kinases

>  <Ligand_Instance>  (508) 
nan

>  <PDB_ID>  (508) 
nan

>  <Standardized_SMILES>  (508) 
CCc1c(-c2cc(OC)c3nc(N)ncc3c2)ccc(O)c1F

>  <Name>  (508) 
nan

>  <Pocket>  (508) 
nan

>  <ATP_Site>  (508) 
nan

>  <Peripheral>  (508) 
nan

>  <Num_H_Atoms_ProtBoundConf>  (508) 
nan

>  <Num_Resolved_Atoms>  (508) 
nan

>  <Num_Not_Resolved_Atoms>  (508) 
nan

$$$$
CHEMBL5089907
     RDKit          3D

  0  0  0  0  0  0  0  0  0  0999 V3000
M  V30 BEGIN CTAB
M  V30 COUNTS 53 56 0 0 0
M  V30 BEGIN ATOM
M  V30 1 C 3.266437 -1.929839 4.348540 0
M  V30 2 N 4.403998 -1.394845 3.645396 0
M  V30 3 C 5.627388 -1.916494 4.281540 0
M  V30 4 C 4.538248 -0.531222 2.541857 0
M  V30 5 O 5.768537 -0.353988 2.302179 0
M  V30 6 C 3.703834 0.201507 1.616274 0
M  V30 7 C 4.355246 0.969622 0.676936 0
M  V30 8 N 5.767515 1.094074 0.558127 0
M  V30 9 C 3.636575 1.716062 -0.268453 0
M  V30 10 C 2.263063 1.670370 -0.244728 0
M  V30 11 C 1.551885 0.921691 0.668915 0
M  V30 12 C 0.091448 0.879637 0.685759 0
M  V30 13 C -0.585958 1.806505 1.454926 0
M  V30 14 N -1.931277 1.779012 1.479508 0
M  V30 15 C -2.593396 0.852286 0.756995 0
M  V30 16 C -2.003247 -0.131085 -0.054471 0
M  V30 17 C -0.626326 -0.051666 -0.038496 0
M  V30 18 Cl 0.301714 -1.167137 -0.970916 0
M  V30 19 C -3.034497 -0.940822 -0.669945 0 CFG=1
M  V30 20 C -3.468627 -0.226810 -1.957679 0
M  V30 21 C -4.296911 -1.300643 -2.601901 0
M  V30 22 C -3.648597 -2.617479 -2.241815 0 CFG=2
M  V30 23 C -4.607643 -3.714588 -2.030721 0
M  V30 24 N -5.560636 -3.515454 -0.992126 0
M  V30 25 O -4.669822 -4.798333 -2.667988 0
M  V30 26 C -2.788681 -2.337644 -1.001389 0
M  V30 27 C -4.211527 -0.721497 0.283805 0
M  V30 28 N -4.001402 0.666457 0.654140 0
M  V30 29 C 2.330464 0.219600 1.560520 0
M  V30 30 F 1.629331 -0.502192 2.435153 0
M  V30 31 H 2.675443 -2.567559 3.673488 0
M  V30 32 H 3.556984 -2.525360 5.263869 0
M  V30 33 H 2.584293 -1.157371 4.769091 0
M  V30 34 H 5.727062 -1.507789 5.302353 0
M  V30 35 H 6.505984 -1.637210 3.666748 0
M  V30 36 H 5.565066 -3.034358 4.258048 0
M  V30 37 H 6.221489 1.871441 1.121532 0
M  V30 38 H 6.405360 1.783082 1.020765 0
M  V30 39 H 4.142246 2.319452 -1.006430 0
M  V30 40 H 1.744865 2.253939 -0.982689 0
M  V30 41 H -0.119276 2.574203 2.056336 0
M  V30 42 H -2.555264 0.019562 -2.495002 0
M  V30 43 H -4.079397 0.672256 -1.695762 0
M  V30 44 H -4.318160 -1.138993 -3.715060 0
M  V30 45 H -5.337953 -1.220487 -2.226332 0
M  V30 46 H -3.035649 -2.896078 -3.123871 0
M  V30 47 H -6.266095 -3.355496 -0.239583 0
M  V30 48 H -6.054765 -3.692468 -0.089971 0
M  V30 49 H -3.188711 -3.036016 -0.209084 0
M  V30 50 H -1.771586 -2.589119 -1.284382 0
M  V30 51 H -5.169272 -0.850808 -0.227335 0
M  V30 52 H -4.117945 -1.340203 1.199408 0
M  V30 53 H -4.735790 1.416313 0.821524 0
M  V30 END ATOM
M  V30 BEGIN BOND
M  V30 1 1 1 2
M  V30 2 1 2 3
M  V30 3 1 2 4
M  V30 4 2 4 5
M  V30 5 1 4 6
M  V30 6 2 6 7
M  V30 7 1 7 8
M  V30 8 1 7 9
M  V30 9 2 9 10
M  V30 10 1 10 11
M  V30 11 1 11 12
M  V30 12 2 12 13
M  V30 13 1 13 14
M  V30 14 2 14 15
M  V30 15 1 15 16
M  V30 16 2 16 17
M  V30 17 1 17 18
M  V30 18 1 16 19
M  V30 19 1 19 20 CFG=3
M  V30 20 1 20 21
M  V30 21 1 21 22
M  V30 22 1 22 23
M  V30 23 1 23 24
M  V30 24 2 23 25
M  V30 25 1 22 26
M  V30 26 1 19 27
M  V30 27 1 27 28
M  V30 28 2 11 29
M  V30 29 1 29 30
M  V30 30 1 29 6
M  V30 31 1 17 12
M  V30 32 1 26 19
M  V30 33 1 28 15
M  V30 34 1 1 31
M  V30 35 1 1 32
M  V30 36 1 1 33
M  V30 37 1 3 34
M  V30 38 1 3 35
M  V30 39 1 3 36
M  V30 40 1 8 37
M  V30 41 1 8 38
M  V30 42 1 9 39
M  V30 43 1 10 40
M  V30 44 1 13 41
M  V30 45 1 20 42
M  V30 46 1 20 43
M  V30 47 1 21 44
M  V30 48 1 21 45
M  V30 49 1 22 46 CFG=3
M  V30 50 1 24 47
M  V30 51 1 24 48
M  V30 52 1 26 49
M  V30 53 1 26 50
M  V30 54 1 27 51
M  V30 55 1 27 52
M  V30 56 1 28 53
M  V30 END BOND
M  V30 END CTAB
M  END
>  <Dataset>  (509) 
ChEMBL_Kinases

>  <Ligand_Instance>  (509) 
nan

>  <PDB_ID>  (509) 
nan

>  <Standardized_SMILES>  (509) 
CN(C)C(=O)c1c(N)ccc(-c2cnc3c(c2Cl)[C@]2(CC[C@H](C(N)=O)C2)CN3)c1F

>  <Name>  (509) 
nan

>  <Pocket>  (509) 
nan

>  <ATP_Site>  (509) 
nan

>  <Peripheral>  (509) 
nan

>  <Num_H_Atoms_ProtBoundConf>  (509) 
nan

>  <Num_Resolved_Atoms>  (509) 
nan

>  <Num_Not_Resolved_Atoms>  (509) 
nan

$$$$
CHEMBL5089615
     RDKit          3D

  0  0  0  0  0  0  0  0  0  0999 V3000
M  V30 BEGIN CTAB
M  V30 COUNTS 57 60 0 0 0
M  V30 BEGIN ATOM
M  V30 1 C 4.210377 -2.441139 4.244592 0
M  V30 2 C 4.253014 -0.935451 4.505193 0
M  V30 3 O 3.796242 -0.279625 3.463159 0
M  V30 4 C 3.400679 0.325479 2.430132 0
M  V30 5 C 4.043281 0.169904 1.195242 0
M  V30 6 C 3.520481 0.885739 0.127830 0
M  V30 7 N 4.123450 0.746864 -1.052155 0
M  V30 8 C 3.792949 1.333903 -2.195516 0
M  V30 9 N 2.737982 2.136960 -2.093994 0
M  V30 10 C 2.044030 2.361522 -0.963539 0
M  V30 11 N 0.915418 3.204660 -0.802726 0
M  V30 12 C -0.213898 4.048436 -0.642210 0
M  V30 13 C -1.440836 3.681510 -1.458606 0
M  V30 14 C -1.926957 2.324052 -1.111172 0
M  V30 15 C -1.507480 1.157459 -1.710375 0
M  V30 16 C -2.038180 -0.045953 -1.296075 0
M  V30 17 C -2.969602 -0.186130 -0.316037 0
M  V30 18 N -3.538692 -1.396527 0.148615 0
M  V30 19 C -3.279848 -2.710675 -0.248159 0
M  V30 20 O -2.442679 -2.941632 -1.128347 0
M  V30 21 N -3.910780 -3.866465 0.281812 0
M  V30 22 C -3.519125 -5.151030 -0.242367 0
M  V30 23 C -4.019484 -5.867140 -1.304734 0
M  V30 24 C -3.461444 -7.083744 -1.597308 0
M  V30 25 C -2.419717 -7.626897 -0.876402 0
M  V30 26 C -1.934998 -6.902741 0.175007 0
M  V30 27 Cl -0.603134 -7.626210 1.077091 0
M  V30 28 C -2.468668 -5.677854 0.499718 0
M  V30 29 C -3.377131 0.989097 0.271107 0
M  V30 30 C -2.871163 2.209193 -0.114277 0
M  V30 31 C 2.436304 1.716274 0.213183 0
M  V30 32 C 1.819554 1.858313 1.423236 0
M  V30 33 C 2.297131 1.169184 2.522638 0
M  V30 34 F 1.654015 1.341860 3.696937 0
M  V30 35 H 5.226648 -2.704536 3.879733 0
M  V30 36 H 3.445603 -2.708694 3.491377 0
M  V30 37 H 3.995939 -2.996449 5.166540 0
M  V30 38 H 3.602833 -0.796794 5.430363 0
M  V30 39 H 5.278960 -0.654697 4.883991 0
M  V30 40 H 4.901609 -0.480860 1.103397 0
M  V30 41 H 4.275348 1.224821 -3.148216 0
M  V30 42 H 0.834152 3.582183 -1.806726 0
M  V30 43 H -0.016963 5.145402 -0.619166 0
M  V30 44 H -0.574764 3.868827 0.433291 0
M  V30 45 H -2.232426 4.406167 -1.216413 0
M  V30 46 H -1.237074 3.663575 -2.547772 0
M  V30 47 H -0.778283 1.220894 -2.483087 0
M  V30 48 H -1.666261 -0.916158 -1.806616 0
M  V30 49 H -4.272158 -1.364220 0.905406 0
M  V30 50 H -4.644073 -3.737952 1.040911 0
M  V30 51 H -4.829314 -5.349100 -1.795403 0
M  V30 52 H -3.914287 -7.585898 -2.452179 0
M  V30 53 H -2.067839 -8.599326 -1.212084 0
M  V30 54 H -1.984584 -5.216578 1.358221 0
M  V30 55 H -4.122060 0.970730 1.065515 0
M  V30 56 H -3.228568 3.089733 0.382742 0
M  V30 57 H 0.968484 2.503983 1.515772 0
M  V30 END ATOM
M  V30 BEGIN BOND
M  V30 1 1 1 2
M  V30 2 1 2 3
M  V30 3 1 3 4
M  V30 4 2 4 5
M  V30 5 1 5 6
M  V30 6 2 6 7
M  V30 7 1 7 8
M  V30 8 2 8 9
M  V30 9 1 9 10
M  V30 10 1 10 11
M  V30 11 1 11 12
M  V30 12 1 12 13
M  V30 13 1 13 14
M  V30 14 2 14 15
M  V30 15 1 15 16
M  V30 16 2 16 17
M  V30 17 1 17 18
M  V30 18 1 18 19
M  V30 19 2 19 20
M  V30 20 1 19 21
M  V30 21 1 21 22
M  V30 22 2 22 23
M  V30 23 1 23 24
M  V30 24 2 24 25
M  V30 25 1 25 26
M  V30 26 1 26 27
M  V30 27 2 26 28
M  V30 28 1 17 29
M  V30 29 2 29 30
M  V30 30 2 10 31
M  V30 31 1 31 32
M  V30 32 2 32 33
M  V30 33 1 33 34
M  V30 34 1 33 4
M  V30 35 1 31 6
M  V30 36 1 30 14
M  V30 37 1 28 22
M  V30 38 1 1 35
M  V30 39 1 1 36
M  V30 40 1 1 37
M  V30 41 1 2 38
M  V30 42 1 2 39
M  V30 43 1 5 40
M  V30 44 1 8 41
M  V30 45 1 11 42
M  V30 46 1 12 43
M  V30 47 1 12 44
M  V30 48 1 13 45
M  V30 49 1 13 46
M  V30 50 1 15 47
M  V30 51 1 16 48
M  V30 52 1 18 49
M  V30 53 1 21 50
M  V30 54 1 23 51
M  V30 55 1 24 52
M  V30 56 1 25 53
M  V30 57 1 28 54
M  V30 58 1 29 55
M  V30 59 1 30 56
M  V30 60 1 32 57
M  V30 END BOND
M  V30 END CTAB
M  END
>  <Dataset>  (510) 
ChEMBL_Kinases

>  <Ligand_Instance>  (510) 
nan

>  <PDB_ID>  (510) 
nan

>  <Standardized_SMILES>  (510) 
CCOc1cc2ncnc(NCCc3ccc(NC(=O)Nc4cccc(Cl)c4)cc3)c2cc1F

>  <Name>  (510) 
nan

>  <Pocket>  (510) 
nan

>  <ATP_Site>  (510) 
nan

>  <Peripheral>  (510) 
nan

>  <Num_H_Atoms_ProtBoundConf>  (510) 
nan

>  <Num_Resolved_Atoms>  (510) 
nan

>  <Num_Not_Resolved_Atoms>  (510) 
nan

$$$$
CHEMBL3752536
     RDKit          3D

  0  0  0  0  0  0  0  0  0  0999 V3000
M  V30 BEGIN CTAB
M  V30 COUNTS 32 34 0 0 0
M  V30 BEGIN ATOM
M  V30 1 N -0.929367 -6.031955 3.678880 0
M  V30 2 C -0.759786 -6.043301 2.268434 0
M  V30 3 O -0.817148 -7.115433 1.640926 0
M  V30 4 C -0.525072 -4.729312 1.680882 0
M  V30 5 C -0.460679 -3.524594 2.391024 0
M  V30 6 C -0.232575 -2.331665 1.734572 0
M  V30 7 C -0.059573 -2.270208 0.366865 0
M  V30 8 C 0.179706 -0.985590 -0.287615 0
M  V30 9 N 0.362933 -0.795268 -1.605539 0
M  V30 10 C 0.553083 0.541823 -1.798651 0
M  V30 11 C 0.479014 1.154865 -0.555251 0
M  V30 12 C 0.620592 2.578396 -0.258422 0
M  V30 13 C 0.508046 2.967192 1.060318 0
M  V30 14 C 0.636650 4.305219 1.376343 0
M  V30 15 C 0.873757 5.191243 0.342289 0
M  V30 16 Cl 1.034068 6.888353 0.767496 0
M  V30 17 C 0.985579 4.798056 -0.975270 0
M  V30 18 C 0.857573 3.445442 -1.311223 0
M  V30 19 O 0.254367 0.183089 0.299660 0
M  V30 20 C -0.112421 -3.425413 -0.387643 0
M  V30 21 C -0.343009 -4.586768 0.321705 0
M  V30 22 H -0.520630 -6.323736 4.591869 0
M  V30 23 H -1.434384 -5.793820 4.551022 0
M  V30 24 H -0.600836 -3.596129 3.476340 0
M  V30 25 H -0.191487 -1.419632 2.336869 0
M  V30 26 H 0.728984 1.037001 -2.741874 0
M  V30 27 H 0.318852 2.202408 1.827111 0
M  V30 28 H 0.552759 4.635870 2.402353 0
M  V30 29 H 1.171646 5.535404 -1.745639 0
M  V30 30 H 0.942867 3.132753 -2.328229 0
M  V30 31 H 0.014596 -3.447709 -1.460436 0
M  V30 32 H -0.390221 -5.520880 -0.251790 0
M  V30 END ATOM
M  V30 BEGIN BOND
M  V30 1 1 1 2
M  V30 2 2 2 3
M  V30 3 1 2 4
M  V30 4 2 4 5
M  V30 5 1 5 6
M  V30 6 2 6 7
M  V30 7 1 7 8
M  V30 8 2 8 9
M  V30 9 1 9 10
M  V30 10 2 10 11
M  V30 11 1 11 12
M  V30 12 2 12 13
M  V30 13 1 13 14
M  V30 14 2 14 15
M  V30 15 1 15 16
M  V30 16 1 15 17
M  V30 17 2 17 18
M  V30 18 1 11 19
M  V30 19 1 7 20
M  V30 20 2 20 21
M  V30 21 1 21 4
M  V30 22 1 19 8
M  V30 23 1 18 12
M  V30 24 1 1 22
M  V30 25 1 1 23
M  V30 26 1 5 24
M  V30 27 1 6 25
M  V30 28 1 10 26
M  V30 29 1 13 27
M  V30 30 1 14 28
M  V30 31 1 17 29
M  V30 32 1 18 30
M  V30 33 1 20 31
M  V30 34 1 21 32
M  V30 END BOND
M  V30 END CTAB
M  END
>  <Dataset>  (511) 
ChEMBL_Kinases

>  <Ligand_Instance>  (511) 
nan

>  <PDB_ID>  (511) 
nan

>  <Standardized_SMILES>  (511) 
NC(=O)c1ccc(-c2ncc(-c3ccc(Cl)cc3)o2)cc1

>  <Name>  (511) 
nan

>  <Pocket>  (511) 
nan

>  <ATP_Site>  (511) 
nan

>  <Peripheral>  (511) 
nan

>  <Num_H_Atoms_ProtBoundConf>  (511) 
nan

>  <Num_Resolved_Atoms>  (511) 
nan

>  <Num_Not_Resolved_Atoms>  (511) 
nan

$$$$
CHEMBL5088870
     RDKit          3D

  0  0  0  0  0  0  0  0  0  0999 V3000
M  V30 BEGIN CTAB
M  V30 COUNTS 64 68 0 0 0
M  V30 BEGIN ATOM
M  V30 1 C 4.163854 -1.954668 4.231122 0
M  V30 2 C 3.567257 -0.787729 3.495333 0
M  V30 3 N 4.479587 -0.422277 2.437425 0
M  V30 4 C 4.545777 -1.424912 1.425888 0
M  V30 5 C 4.463460 -0.820049 0.056847 0
M  V30 6 N 3.423170 0.113887 -0.114877 0
M  V30 7 C 2.911453 0.359016 -1.398955 0
M  V30 8 C 1.836652 1.383121 -1.337406 0
M  V30 9 C 1.977878 2.752587 -1.466338 0
M  V30 10 C 0.866755 3.569673 -1.383741 0
M  V30 11 C -0.399080 3.063545 -1.174040 0
M  V30 12 N -1.567927 3.872365 -1.083513 0
M  V30 13 C -2.838520 3.270413 -0.863783 0
M  V30 14 N -3.979846 3.975024 -0.768365 0
M  V30 15 C -5.157462 3.316914 -0.556278 0
M  V30 16 C -5.221705 1.924792 -0.433296 0
M  V30 17 F -6.374054 1.267905 -0.224723 0
M  V30 18 C -4.035915 1.238611 -0.536113 0
M  V30 19 C -3.979942 -0.214682 -0.424242 0
M  V30 20 C -4.992774 -0.827113 -1.165624 0
M  V30 21 C -5.118608 -2.201212 -1.195507 0
M  V30 22 C -4.231383 -2.980406 -0.482720 0
M  V30 23 N -4.266747 -4.325596 -0.444619 0
M  V30 24 C -3.375103 -5.042999 0.268489 0
M  V30 25 C -3.586942 -6.520490 0.179130 0
M  V30 26 C -2.378001 -4.433425 0.998005 0
M  V30 27 C -1.445529 -5.293989 1.749569 0
M  V30 28 N -2.341739 -3.073851 0.960038 0
M  V30 29 C -3.236034 -2.368195 0.245309 0
M  V30 30 C -3.093889 -0.997388 0.287593 0
M  V30 31 N -2.935204 1.952129 -0.742510 0
M  V30 32 N -0.505745 1.723309 -1.051943 0
M  V30 33 C 0.546755 0.884936 -1.125013 0
M  V30 34 C 3.061973 0.942944 0.963124 0
M  V30 35 C 4.192708 0.904609 1.996870 0
M  V30 36 H 4.827602 -2.514703 3.530191 0
M  V30 37 H 3.373742 -2.626818 4.603214 0
M  V30 38 H 4.745537 -1.553404 5.093463 0
M  V30 39 H 3.416509 0.041291 4.210514 0
M  V30 40 H 2.548936 -1.017919 3.098819 0
M  V30 41 H 3.713058 -2.152894 1.506848 0
M  V30 42 H 5.479320 -2.023181 1.459500 0
M  V30 43 H 4.384258 -1.587208 -0.739008 0
M  V30 44 H 5.439853 -0.305891 -0.127190 0
M  V30 45 H 2.506448 -0.588481 -1.817465 0
M  V30 46 H 3.684260 0.682234 -2.146592 0
M  V30 47 H 2.973781 3.089416 -1.626348 0
M  V30 48 H 0.995060 4.627728 -1.485812 0
M  V30 49 H -1.451434 4.895842 -1.183071 0
M  V30 50 H -6.092747 3.891202 -0.477847 0
M  V30 51 H -5.743766 -0.320267 -1.761540 0
M  V30 52 H -5.876062 -2.746489 -1.745942 0
M  V30 53 H -4.661869 -6.733470 0.358919 0
M  V30 54 H -2.905216 -7.093723 0.830725 0
M  V30 55 H -3.412215 -6.835064 -0.883907 0
M  V30 56 H -0.877555 -5.880634 0.972062 0
M  V30 57 H -1.982938 -6.010454 2.433984 0
M  V30 58 H -0.759588 -4.650856 2.309907 0
M  V30 59 H -2.352071 -0.423373 0.824319 0
M  V30 60 H 0.350364 -0.191483 -1.011723 0
M  V30 61 H 2.103757 0.681692 1.457615 0
M  V30 62 H 2.978056 1.994733 0.633289 0
M  V30 63 H 3.774565 1.471479 2.871462 0
M  V30 64 H 5.055691 1.468518 1.624193 0
M  V30 END ATOM
M  V30 BEGIN BOND
M  V30 1 1 1 2
M  V30 2 1 2 3
M  V30 3 1 3 4
M  V30 4 1 4 5
M  V30 5 1 5 6
M  V30 6 1 6 7
M  V30 7 1 7 8
M  V30 8 2 8 9
M  V30 9 1 9 10
M  V30 10 2 10 11
M  V30 11 1 11 12
M  V30 12 1 12 13
M  V30 13 2 13 14
M  V30 14 1 14 15
M  V30 15 2 15 16
M  V30 16 1 16 17
M  V30 17 1 16 18
M  V30 18 1 18 19
M  V30 19 2 19 20
M  V30 20 1 20 21
M  V30 21 2 21 22
M  V30 22 1 22 23
M  V30 23 2 23 24
M  V30 24 1 24 25
M  V30 25 1 24 26
M  V30 26 1 26 27
M  V30 27 2 26 28
M  V30 28 1 28 29
M  V30 29 2 29 30
M  V30 30 2 18 31
M  V30 31 1 11 32
M  V30 32 2 32 33
M  V30 33 1 6 34
M  V30 34 1 34 35
M  V30 35 1 35 3
M  V30 36 1 33 8
M  V30 37 1 31 13
M  V30 38 1 30 19
M  V30 39 1 29 22
M  V30 40 1 1 36
M  V30 41 1 1 37
M  V30 42 1 1 38
M  V30 43 1 2 39
M  V30 44 1 2 40
M  V30 45 1 4 41
M  V30 46 1 4 42
M  V30 47 1 5 43
M  V30 48 1 5 44
M  V30 49 1 7 45
M  V30 50 1 7 46
M  V30 51 1 9 47
M  V30 52 1 10 48
M  V30 53 1 12 49
M  V30 54 1 15 50
M  V30 55 1 20 51
M  V30 56 1 21 52
M  V30 57 1 25 53
M  V30 58 1 25 54
M  V30 59 1 25 55
M  V30 60 1 27 56
M  V30 61 1 27 57
M  V30 62 1 27 58
M  V30 63 1 30 59
M  V30 64 1 33 60
M  V30 65 1 34 61
M  V30 66 1 34 62
M  V30 67 1 35 63
M  V30 68 1 35 64
M  V30 END BOND
M  V30 END CTAB
M  END
>  <Dataset>  (512) 
ChEMBL_Kinases

>  <Ligand_Instance>  (512) 
nan

>  <PDB_ID>  (512) 
nan

>  <Standardized_SMILES>  (512) 
CCN1CCN(Cc2ccc(Nc3ncc(F)c(-c4ccc5nc(C)c(C)nc5c4)n3)nc2)CC1

>  <Name>  (512) 
nan

>  <Pocket>  (512) 
nan

>  <ATP_Site>  (512) 
nan

>  <Peripheral>  (512) 
nan

>  <Num_H_Atoms_ProtBoundConf>  (512) 
nan

>  <Num_Resolved_Atoms>  (512) 
nan

>  <Num_Not_Resolved_Atoms>  (512) 
nan

$$$$
CHEMBL5088873
     RDKit          3D

  0  0  0  0  0  0  0  0  0  0999 V3000
M  V30 BEGIN CTAB
M  V30 COUNTS 28 30 0 0 0
M  V30 BEGIN ATOM
M  V30 1 N -2.177595 -3.850977 2.085116 0
M  V30 2 C -0.999918 -3.057926 2.201207 0
M  V30 3 C -0.862451 -1.954862 1.384756 0
M  V30 4 C 0.262608 -1.158778 1.463926 0
M  V30 5 C 0.502601 0.044134 0.625711 0
M  V30 6 C 1.238045 1.048872 1.211859 0
M  V30 7 C 1.472309 2.164582 0.449629 0
M  V30 8 C 0.950505 2.156880 -0.807374 0
M  V30 9 S 1.057824 3.489245 -2.140642 0
M  V30 10 C 0.054568 2.526459 -3.428082 0
M  V30 11 C -0.265529 1.264450 -2.696450 0
M  V30 12 C 0.199841 1.147559 -1.425179 0
M  V30 13 C -0.021190 0.043337 -0.644071 0
M  V30 14 C 1.228399 -1.511758 2.383281 0
M  V30 15 C 1.071926 -2.608041 3.181880 0
M  V30 16 N 2.073395 -2.975366 4.135857 0
M  V30 17 N -0.034074 -3.381260 3.096220 0
M  V30 18 H -1.997542 -4.608204 1.375122 0
M  V30 19 H -3.101511 -3.782870 2.565555 0
M  V30 20 H -1.606284 -1.639259 0.640965 0
M  V30 21 H 1.648631 1.048093 2.208798 0
M  V30 22 H 2.016784 3.060351 0.703487 0
M  V30 23 H -0.209415 2.808759 -4.407722 0
M  V30 24 H -0.841728 0.597833 -3.300059 0
M  V30 25 H -0.577973 -0.827653 -0.955693 0
M  V30 26 H 2.114627 -0.925584 2.479418 0
M  V30 27 H 2.734943 -3.553703 3.548769 0
M  V30 28 H 2.273808 -2.817298 5.166326 0
M  V30 END ATOM
M  V30 BEGIN BOND
M  V30 1 1 1 2
M  V30 2 2 2 3
M  V30 3 1 3 4
M  V30 4 1 4 5
M  V30 5 2 5 6
M  V30 6 1 6 7
M  V30 7 2 7 8
M  V30 8 1 8 9
M  V30 9 1 9 10
M  V30 10 2 10 11
M  V30 11 1 11 12
M  V30 12 2 12 13
M  V30 13 2 4 14
M  V30 14 1 14 15
M  V30 15 1 15 16
M  V30 16 2 15 17
M  V30 17 1 17 2
M  V30 18 1 13 5
M  V30 19 1 12 8
M  V30 20 1 1 18
M  V30 21 1 1 19
M  V30 22 1 3 20
M  V30 23 1 6 21
M  V30 24 1 7 22
M  V30 25 1 10 23
M  V30 26 1 11 24
M  V30 27 1 13 25
M  V30 28 1 14 26
M  V30 29 1 16 27
M  V30 30 1 16 28
M  V30 END BOND
M  V30 END CTAB
M  END
>  <Dataset>  (513) 
ChEMBL_Kinases

>  <Ligand_Instance>  (513) 
nan

>  <PDB_ID>  (513) 
nan

>  <Standardized_SMILES>  (513) 
Nc1cc(-c2ccc3sccc3c2)cc(N)n1

>  <Name>  (513) 
nan

>  <Pocket>  (513) 
nan

>  <ATP_Site>  (513) 
nan

>  <Peripheral>  (513) 
nan

>  <Num_H_Atoms_ProtBoundConf>  (513) 
nan

>  <Num_Resolved_Atoms>  (513) 
nan

>  <Num_Not_Resolved_Atoms>  (513) 
nan

$$$$
CHEMBL5088888
     RDKit          3D

  0  0  0  0  0  0  0  0  0  0999 V3000
M  V30 BEGIN CTAB
M  V30 COUNTS 50 53 0 0 0
M  V30 BEGIN ATOM
M  V30 1 O 1.702048 -0.281943 -2.042387 0
M  V30 2 C 2.869894 -0.621872 -1.753299 0
M  V30 3 N 3.679302 -0.970180 -2.864331 0
M  V30 4 C 2.999901 -0.867166 -4.134652 0
M  V30 5 C 2.334857 -2.004014 -4.586614 0
M  V30 6 C 1.676006 -1.911587 -5.813621 0
M  V30 7 C 1.712599 -0.728606 -6.505170 0
M  V30 8 C 2.380756 0.406593 -6.046637 0
M  V30 9 C 3.046863 0.332387 -4.818423 0
M  V30 10 N 3.287619 -0.636575 -0.406221 0
M  V30 11 C 2.566211 -0.310397 0.766871 0
M  V30 12 C 1.256684 0.104195 0.830575 0
M  V30 13 C 0.598390 0.410522 2.001471 0
M  V30 14 C 1.256626 0.307326 3.193271 0
M  V30 15 C 0.640150 0.613001 4.516615 0
M  V30 16 C 0.019296 -0.668783 5.056977 0
M  V30 17 N -0.994136 -1.217292 4.209480 0
M  V30 18 C -2.179853 -0.474932 3.953544 0
M  V30 19 N -2.418425 0.720361 4.468166 0
M  V30 20 C -3.527313 1.444883 4.251223 0
M  V30 21 N -4.523594 0.993042 3.460790 0
M  V30 22 C -4.366238 -0.218180 2.893017 0
M  V30 23 C -5.370449 -0.696700 2.083828 0
M  V30 24 C -5.242387 -1.933490 1.486176 0
M  V30 25 C -4.104658 -2.660916 1.717360 0
M  V30 26 C -3.121628 -2.149188 2.532864 0
M  V30 27 C -3.207298 -0.919204 3.150098 0
M  V30 28 C 2.568789 -0.106315 3.150129 0
M  V30 29 C 3.196180 -0.404307 1.963811 0
M  V30 30 H 4.679844 -1.265216 -2.661255 0
M  V30 31 H 2.340709 -2.912427 -3.995381 0
M  V30 32 H 1.140597 -2.780687 -6.207001 0
M  V30 33 H 1.201095 -0.630760 -7.474448 0
M  V30 34 H 2.421461 1.345573 -6.574879 0
M  V30 35 H 3.596285 1.139661 -4.360706 0
M  V30 36 H 4.278811 -0.940063 -0.334654 0
M  V30 37 H 0.682498 0.205713 -0.075328 0
M  V30 38 H -0.427107 0.730131 1.987317 0
M  V30 39 H 1.459725 0.962657 5.178841 0
M  V30 40 H -0.160407 1.368724 4.420833 0
M  V30 41 H -0.368176 -0.503903 6.088620 0
M  V30 42 H 0.866048 -1.374936 5.162558 0
M  V30 43 H -0.806052 -2.158455 3.812520 0
M  V30 44 H -3.496075 2.400659 4.784487 0
M  V30 45 H -6.270858 -0.116278 1.903425 0
M  V30 46 H -6.027715 -2.327783 0.842516 0
M  V30 47 H -4.036036 -3.614609 1.239993 0
M  V30 48 H -2.267717 -2.793342 2.653271 0
M  V30 49 H 3.128857 -0.202801 4.063085 0
M  V30 50 H 4.229544 -0.723959 2.000539 0
M  V30 END ATOM
M  V30 BEGIN BOND
M  V30 1 2 1 2
M  V30 2 1 2 3
M  V30 3 1 3 4
M  V30 4 2 4 5
M  V30 5 1 5 6
M  V30 6 2 6 7
M  V30 7 1 7 8
M  V30 8 2 8 9
M  V30 9 1 2 10
M  V30 10 1 10 11
M  V30 11 2 11 12
M  V30 12 1 12 13
M  V30 13 2 13 14
M  V30 14 1 14 15
M  V30 15 1 15 16
M  V30 16 1 16 17
M  V30 17 1 17 18
M  V30 18 2 18 19
M  V30 19 1 19 20
M  V30 20 2 20 21
M  V30 21 1 21 22
M  V30 22 2 22 23
M  V30 23 1 23 24
M  V30 24 2 24 25
M  V30 25 1 25 26
M  V30 26 2 26 27
M  V30 27 1 14 28
M  V30 28 2 28 29
M  V30 29 1 9 4
M  V30 30 1 29 11
M  V30 31 1 27 18
M  V30 32 1 27 22
M  V30 33 1 3 30
M  V30 34 1 5 31
M  V30 35 1 6 32
M  V30 36 1 7 33
M  V30 37 1 8 34
M  V30 38 1 9 35
M  V30 39 1 10 36
M  V30 40 1 12 37
M  V30 41 1 13 38
M  V30 42 1 15 39
M  V30 43 1 15 40
M  V30 44 1 16 41
M  V30 45 1 16 42
M  V30 46 1 17 43
M  V30 47 1 20 44
M  V30 48 1 23 45
M  V30 49 1 24 46
M  V30 50 1 25 47
M  V30 51 1 26 48
M  V30 52 1 28 49
M  V30 53 1 29 50
M  V30 END BOND
M  V30 END CTAB
M  END
>  <Dataset>  (514) 
ChEMBL_Kinases

>  <Ligand_Instance>  (514) 
nan

>  <PDB_ID>  (514) 
nan

>  <Standardized_SMILES>  (514) 
O=C(Nc1ccccc1)Nc1ccc(CCNc2ncnc3ccccc23)cc1

>  <Name>  (514) 
nan

>  <Pocket>  (514) 
nan

>  <ATP_Site>  (514) 
nan

>  <Peripheral>  (514) 
nan

>  <Num_H_Atoms_ProtBoundConf>  (514) 
nan

>  <Num_Resolved_Atoms>  (514) 
nan

>  <Num_Not_Resolved_Atoms>  (514) 
nan

$$$$
CHEMBL3752472
     RDKit          3D

  0  0  0  0  0  0  0  0  0  0999 V3000
M  V30 BEGIN CTAB
M  V30 COUNTS 45 48 0 0 0
M  V30 BEGIN ATOM
M  V30 1 C -3.725553 -6.382365 1.975316 0
M  V30 2 O -2.373274 -6.507530 1.609448 0
M  V30 3 C -1.594804 -5.377577 1.398950 0
M  V30 4 C -2.211831 -4.157514 1.566129 0
M  V30 5 C -1.542582 -2.957650 1.385108 0
M  V30 6 C -0.214459 -3.075394 1.025570 0
M  V30 7 C 0.571830 -1.865622 0.812102 0
M  V30 8 C -0.156961 -0.792347 0.316089 0
M  V30 9 N 0.507835 0.353574 0.096585 0
M  V30 10 C 1.809669 0.562492 0.310283 0
M  V30 11 C 2.601474 1.618963 0.146271 0
M  V30 12 N 2.060366 2.935652 -0.386608 0
M  V30 13 C 1.610399 3.779337 0.643593 0
M  V30 14 O 1.696085 3.381341 1.834171 0
M  V30 15 C 1.044497 5.102681 0.407827 0
M  V30 16 C 0.641957 5.832055 1.509978 0
M  V30 17 C 0.096967 7.099593 1.328067 0
M  V30 18 C -0.062185 7.671996 0.066578 0
M  V30 19 C 0.348321 6.923253 -1.028173 0
M  V30 20 C 0.890135 5.659699 -0.827261 0
M  V30 21 S 4.184166 1.317184 0.581696 0
M  V30 22 N 3.908565 -0.464008 1.085862 0
M  V30 23 C 2.552641 -0.481548 0.800137 0
M  V30 24 C 1.921087 -1.705787 1.051594 0
M  V30 25 C 0.421111 -4.285217 0.853429 0
M  V30 26 C -0.266715 -5.467048 1.039506 0
M  V30 27 O 0.224941 -6.758115 0.906368 0
M  V30 28 C 1.581518 -6.925795 0.539568 0
M  V30 29 H -4.342515 -5.921215 1.167837 0
M  V30 30 H -4.110128 -7.390356 2.248997 0
M  V30 31 H -3.812469 -5.727840 2.889429 0
M  V30 32 H -3.265581 -4.058590 1.851437 0
M  V30 33 H -2.038202 -2.014270 1.519352 0
M  V30 34 H -1.222099 -0.770206 0.080080 0
M  V30 35 H 1.984060 3.274427 -1.356531 0
M  V30 36 H 0.715571 5.491908 2.542428 0
M  V30 37 H -0.223552 7.684067 2.183808 0
M  V30 38 H -0.485776 8.654955 -0.063336 0
M  V30 39 H 0.228395 7.358564 -2.004626 0
M  V30 40 H 1.190591 5.122311 -1.695464 0
M  V30 41 H 2.317845 -2.643251 1.433100 0
M  V30 42 H 1.460047 -4.394859 0.572499 0
M  V30 43 H 1.749280 -7.944209 0.079672 0
M  V30 44 H 2.233505 -6.918780 1.456509 0
M  V30 45 H 1.924663 -6.209961 -0.233229 0
M  V30 END ATOM
M  V30 BEGIN BOND
M  V30 1 1 1 2
M  V30 2 1 2 3
M  V30 3 2 3 4
M  V30 4 1 4 5
M  V30 5 2 5 6
M  V30 6 1 6 7
M  V30 7 1 7 8
M  V30 8 2 8 9
M  V30 9 1 9 10
M  V30 10 2 10 11
M  V30 11 1 11 12
M  V30 12 1 12 13
M  V30 13 2 13 14
M  V30 14 1 13 15
M  V30 15 2 15 16
M  V30 16 1 16 17
M  V30 17 2 17 18
M  V30 18 1 18 19
M  V30 19 2 19 20
M  V30 20 1 11 21
M  V30 21 1 21 22
M  V30 22 2 22 23
M  V30 23 1 23 24
M  V30 24 1 6 25
M  V30 25 2 25 26
M  V30 26 1 26 27
M  V30 27 1 27 28
M  V30 28 1 26 3
M  V30 29 2 24 7
M  V30 30 1 23 10
M  V30 31 1 20 15
M  V30 32 1 1 29
M  V30 33 1 1 30
M  V30 34 1 1 31
M  V30 35 1 4 32
M  V30 36 1 5 33
M  V30 37 1 8 34
M  V30 38 1 12 35
M  V30 39 1 16 36
M  V30 40 1 17 37
M  V30 41 1 18 38
M  V30 42 1 19 39
M  V30 43 1 20 40
M  V30 44 1 24 41
M  V30 45 1 25 42
M  V30 46 1 28 43
M  V30 47 1 28 44
M  V30 48 1 28 45
M  V30 END BOND
M  V30 END CTAB
M  END
>  <Dataset>  (515) 
ChEMBL_Kinases

>  <Ligand_Instance>  (515) 
nan

>  <PDB_ID>  (515) 
nan

>  <Standardized_SMILES>  (515) 
COc1ccc(-c2cnc3c(NC(=O)c4ccccc4)snc3c2)cc1OC

>  <Name>  (515) 
nan

>  <Pocket>  (515) 
nan

>  <ATP_Site>  (515) 
nan

>  <Peripheral>  (515) 
nan

>  <Num_H_Atoms_ProtBoundConf>  (515) 
nan

>  <Num_Resolved_Atoms>  (515) 
nan

>  <Num_Not_Resolved_Atoms>  (515) 
nan

$$$$
CHEMBL5088891
     RDKit          3D

  0  0  0  0  0  0  0  0  0  0999 V3000
M  V30 BEGIN CTAB
M  V30 COUNTS 56 60 0 0 0
M  V30 BEGIN ATOM
M  V30 1 C 5.093043 -0.916102 3.831474 0
M  V30 2 C 3.591815 -0.836926 3.663329 0
M  V30 3 C 2.910572 -0.493958 4.956734 0
M  V30 4 C 3.226124 0.179858 2.596629 0
M  V30 5 N 1.784644 0.038195 2.495657 0
M  V30 6 C 1.219506 0.712795 1.353557 0
M  V30 7 C 2.199095 0.955264 0.257873 0
M  V30 8 N 1.519102 1.635989 -0.828396 0
M  V30 9 C 0.440268 1.125578 -1.574722 0
M  V30 10 N -0.157762 1.832075 -2.566564 0
M  V30 11 C -1.184985 1.330551 -3.273994 0
M  V30 12 C -1.696309 0.070819 -3.039493 0
M  V30 13 C -1.050025 -0.599204 -2.022024 0
M  V30 14 C -1.480215 -1.943895 -1.659325 0
M  V30 15 C -2.761264 -2.043348 -1.171536 0
M  V30 16 C -3.916070 -1.213770 -0.869214 0
M  V30 17 C -5.135158 -1.390907 -1.503147 0
M  V30 18 C -6.256452 -0.634441 -1.253100 0
M  V30 19 C -6.100728 0.344276 -0.305588 0
M  V30 20 C -4.927650 0.625288 0.404652 0
M  V30 21 O -4.872695 1.627798 1.334034 0
M  V30 22 C -3.879923 -0.214899 0.050060 0
M  V30 23 N -2.982566 -3.338517 -0.894364 0
M  V30 24 C -1.856064 -4.046269 -1.203368 0
M  V30 25 S -1.031826 -5.651116 -1.265620 0
M  V30 26 C 0.577202 -4.929325 -1.968439 0
M  V30 27 C 0.290592 -3.539288 -2.072242 0
M  V30 28 N -0.924116 -3.167101 -1.679945 0
M  V30 29 N -0.021846 -0.099035 -1.312806 0
M  V30 30 S 1.667464 -1.693234 2.367803 0
M  V30 31 O 1.682163 -2.155918 0.949387 0
M  V30 32 O 0.434186 -2.185363 3.032002 0
M  V30 33 N 3.117088 -2.129463 3.203716 0
M  V30 34 H 5.411341 -0.483363 4.806631 0
M  V30 35 H 5.649806 -0.387260 3.017348 0
M  V30 36 H 5.428754 -1.972832 3.799981 0
M  V30 37 H 2.461954 -1.403124 5.384766 0
M  V30 38 H 2.067478 0.217380 4.723045 0
M  V30 39 H 3.598085 0.021452 5.667305 0
M  V30 40 H 3.752467 -0.084792 1.661353 0
M  V30 41 H 3.511429 1.160411 2.983443 0
M  V30 42 H 0.822130 1.675615 1.713559 0
M  V30 43 H 0.377108 0.099585 1.002139 0
M  V30 44 H 2.675746 0.019574 -0.119845 0
M  V30 45 H 3.048587 1.572302 0.615613 0
M  V30 46 H 1.855289 2.606619 -1.094797 0
M  V30 47 H -1.609605 1.958359 -4.051474 0
M  V30 48 H -2.507275 -0.342786 -3.587480 0
M  V30 49 H -5.212511 -2.188971 -2.256584 0
M  V30 50 H -7.204114 -0.767584 -1.741608 0
M  V30 51 H -6.965801 0.966433 -0.077842 0
M  V30 52 H -5.512386 2.417822 1.220570 0
M  V30 53 H -2.935007 -0.045995 0.569660 0
M  V30 54 H 1.487490 -5.510825 -2.216961 0
M  V30 55 H 1.132405 -2.998741 -2.464689 0
M  V30 56 H 3.772925 -2.591552 2.535692 0
M  V30 END ATOM
M  V30 BEGIN BOND
M  V30 1 1 1 2
M  V30 2 1 2 3
M  V30 3 1 2 4
M  V30 4 1 4 5
M  V30 5 1 5 6
M  V30 6 1 6 7
M  V30 7 1 7 8
M  V30 8 1 8 9
M  V30 9 2 9 10
M  V30 10 1 10 11
M  V30 11 2 11 12
M  V30 12 1 12 13
M  V30 13 1 13 14
M  V30 14 2 14 15
M  V30 15 1 15 16
M  V30 16 2 16 17
M  V30 17 1 17 18
M  V30 18 2 18 19
M  V30 19 1 19 20
M  V30 20 1 20 21
M  V30 21 2 20 22
M  V30 22 1 15 23
M  V30 23 2 23 24
M  V30 24 1 24 25
M  V30 25 1 25 26
M  V30 26 2 26 27
M  V30 27 1 27 28
M  V30 28 2 13 29
M  V30 29 1 5 30
M  V30 30 2 30 31
M  V30 31 2 30 32
M  V30 32 1 30 33
M  V30 33 1 33 2
M  V30 34 1 29 9
M  V30 35 1 28 14
M  V30 36 1 22 16
M  V30 37 1 28 24
M  V30 38 1 1 34
M  V30 39 1 1 35
M  V30 40 1 1 36
M  V30 41 1 3 37
M  V30 42 1 3 38
M  V30 43 1 3 39
M  V30 44 1 4 40
M  V30 45 1 4 41
M  V30 46 1 6 42
M  V30 47 1 6 43
M  V30 48 1 7 44
M  V30 49 1 7 45
M  V30 50 1 8 46
M  V30 51 1 11 47
M  V30 52 1 12 48
M  V30 53 1 17 49
M  V30 54 1 18 50
M  V30 55 1 19 51
M  V30 56 1 21 52
M  V30 57 1 22 53
M  V30 58 1 26 54
M  V30 59 1 27 55
M  V30 60 1 33 56
M  V30 END BOND
M  V30 END CTAB
M  END
>  <Dataset>  (516) 
ChEMBL_Kinases

>  <Ligand_Instance>  (516) 
nan

>  <PDB_ID>  (516) 
nan

>  <Standardized_SMILES>  (516) 
CC1(C)CN(CCNc2nccc(-c3c(-c4cccc(O)c4)nc4sccn34)n2)S(=O)(=O)N1

>  <Name>  (516) 
nan

>  <Pocket>  (516) 
nan

>  <ATP_Site>  (516) 
nan

>  <Peripheral>  (516) 
nan

>  <Num_H_Atoms_ProtBoundConf>  (516) 
nan

>  <Num_Resolved_Atoms>  (516) 
nan

>  <Num_Not_Resolved_Atoms>  (516) 
nan

$$$$
CHEMBL5088917
     RDKit          3D

  0  0  0  0  0  0  0  0  0  0999 V3000
M  V30 BEGIN CTAB
M  V30 COUNTS 58 62 0 0 0
M  V30 BEGIN ATOM
M  V30 1 C -0.664715 -0.570835 4.352004 0
M  V30 2 N -0.650199 -1.543311 3.298677 0
M  V30 3 C 0.496585 -1.892617 2.689912 0
M  V30 4 N 1.743574 -1.341416 3.047256 0
M  V30 5 C 2.555517 -0.201497 2.777004 0
M  V30 6 C 2.893347 0.073416 1.355516 0
M  V30 7 N 1.843392 0.323987 0.445945 0
M  V30 8 C 0.770992 1.035069 -0.152415 0
M  V30 9 C 0.017848 0.549750 -1.238483 0
M  V30 10 C -0.975391 1.379187 -1.681435 0
M  V30 11 N -1.241801 2.570402 -1.148233 0
M  V30 12 C -0.566579 3.093721 -0.115800 0
M  V30 13 C -0.937664 4.338026 0.341236 0
M  V30 14 C -0.225529 4.847973 1.392935 0
M  V30 15 C 0.803537 4.134484 1.947597 0
M  V30 16 C 1.085880 2.910150 1.416005 0
M  V30 17 C 0.460593 2.272081 0.366343 0
M  V30 18 C -1.819800 0.960797 -2.813351 0
M  V30 19 C -1.806586 -0.532861 -3.025948 0
M  V30 20 C -0.400583 -1.082494 -3.030225 0
M  V30 21 C 0.371423 -0.786375 -1.780970 0
M  V30 22 N 0.505517 -2.813900 1.690941 0
M  V30 23 C -0.638346 -3.415273 1.270553 0
M  V30 24 C -0.579049 -4.400144 0.204109 0
M  V30 25 C -1.670203 -5.071330 -0.301596 0
M  V30 26 C -1.569312 -6.011024 -1.322861 0
M  V30 27 N -0.372364 -6.305479 -1.867021 0
M  V30 28 C 0.714916 -5.669843 -1.398414 0
M  V30 29 C 0.626711 -4.723449 -0.372656 0
M  V30 30 C -1.813322 -3.062730 1.888376 0
M  V30 31 C -1.806813 -2.134327 2.891543 0
M  V30 32 O -2.896618 -1.823969 3.446118 0
M  V30 33 H -0.386828 -1.085545 5.292260 0
M  V30 34 H -0.066679 0.327968 4.170207 0
M  V30 35 H -1.713787 -0.186192 4.520244 0
M  V30 36 H 2.035671 -2.116661 3.721016 0
M  V30 37 H 2.173480 0.628354 3.377125 0
M  V30 38 H 3.553731 -0.439488 3.260035 0
M  V30 39 H 3.621610 0.951200 1.397588 0
M  V30 40 H 3.601603 -0.755340 1.040999 0
M  V30 41 H 1.928889 -0.591258 -0.099292 0
M  V30 42 H -1.754277 4.847159 -0.137402 0
M  V30 43 H -0.489896 5.811922 1.769461 0
M  V30 44 H 1.352610 4.551386 2.773736 0
M  V30 45 H 1.906910 2.398110 1.881503 0
M  V30 46 H -1.380267 1.456234 -3.723052 0
M  V30 47 H -2.846809 1.311160 -2.662308 0
M  V30 48 H -2.387878 -1.048858 -2.239885 0
M  V30 49 H -2.263268 -0.781818 -3.998357 0
M  V30 50 H 0.173415 -0.725383 -3.917452 0
M  V30 51 H -0.504152 -2.196182 -3.116951 0
M  V30 52 H 0.130221 -1.544916 -0.985501 0
M  V30 53 H 1.451766 -0.836001 -2.063950 0
M  V30 54 H -2.645826 -4.865147 0.105986 0
M  V30 55 H -2.447934 -6.525286 -1.701638 0
M  V30 56 H 1.630540 -5.971558 -1.895330 0
M  V30 57 H 1.569451 -4.258983 -0.059253 0
M  V30 58 H -2.752646 -3.498897 1.604818 0
M  V30 END ATOM
M  V30 BEGIN BOND
M  V30 1 1 1 2
M  V30 2 1 2 3
M  V30 3 1 3 4
M  V30 4 1 4 5
M  V30 5 1 5 6
M  V30 6 1 6 7
M  V30 7 1 7 8
M  V30 8 2 8 9
M  V30 9 1 9 10
M  V30 10 2 10 11
M  V30 11 1 11 12
M  V30 12 2 12 13
M  V30 13 1 13 14
M  V30 14 2 14 15
M  V30 15 1 15 16
M  V30 16 2 16 17
M  V30 17 1 10 18
M  V30 18 1 18 19
M  V30 19 1 19 20
M  V30 20 1 20 21
M  V30 21 2 3 22
M  V30 22 1 22 23
M  V30 23 1 23 24
M  V30 24 2 24 25
M  V30 25 1 25 26
M  V30 26 2 26 27
M  V30 27 1 27 28
M  V30 28 2 28 29
M  V30 29 2 23 30
M  V30 30 1 30 31
M  V30 31 2 31 32
M  V30 32 1 31 2
M  V30 33 1 17 8
M  V30 34 1 29 24
M  V30 35 1 21 9
M  V30 36 1 17 12
M  V30 37 1 1 33
M  V30 38 1 1 34
M  V30 39 1 1 35
M  V30 40 1 4 36
M  V30 41 1 5 37
M  V30 42 1 5 38
M  V30 43 1 6 39
M  V30 44 1 6 40
M  V30 45 1 7 41
M  V30 46 1 13 42
M  V30 47 1 14 43
M  V30 48 1 15 44
M  V30 49 1 16 45
M  V30 50 1 18 46
M  V30 51 1 18 47
M  V30 52 1 19 48
M  V30 53 1 19 49
M  V30 54 1 20 50
M  V30 55 1 20 51
M  V30 56 1 21 52
M  V30 57 1 21 53
M  V30 58 1 25 54
M  V30 59 1 26 55
M  V30 60 1 28 56
M  V30 61 1 29 57
M  V30 62 1 30 58
M  V30 END BOND
M  V30 END CTAB
M  END
>  <Dataset>  (517) 
ChEMBL_Kinases

>  <Ligand_Instance>  (517) 
nan

>  <PDB_ID>  (517) 
nan

>  <Standardized_SMILES>  (517) 
Cn1c(NCCNc2c3c(nc4ccccc24)CCCC3)nc(-c2ccncc2)cc1=O

>  <Name>  (517) 
nan

>  <Pocket>  (517) 
nan

>  <ATP_Site>  (517) 
nan

>  <Peripheral>  (517) 
nan

>  <Num_H_Atoms_ProtBoundConf>  (517) 
nan

>  <Num_Resolved_Atoms>  (517) 
nan

>  <Num_Not_Resolved_Atoms>  (517) 
nan

$$$$
CHEMBL5088918
     RDKit          3D

  0  0  0  0  0  0  0  0  0  0999 V3000
M  V30 BEGIN CTAB
M  V30 COUNTS 59 63 0 0 0
M  V30 BEGIN ATOM
M  V30 1 C 4.240097 -3.298013 2.294952 0
M  V30 2 C 3.740733 -1.904196 2.417021 0
M  V30 3 C 3.334058 -1.365340 3.635978 0
M  V30 4 C 2.872458 -0.062107 3.721020 0
M  V30 5 C 2.462442 0.418282 5.065917 0
M  V30 6 C 2.817805 0.713053 2.565114 0
M  V30 7 C 3.225847 0.166543 1.352328 0
M  V30 8 O 3.093223 1.100254 0.324445 0
M  V30 9 C 1.877058 1.131444 -0.350463 0
M  V30 10 N 1.731169 2.040642 -1.358254 0
M  V30 11 C 0.567913 2.095435 -2.029119 0
M  V30 12 C -0.494050 1.267549 -1.742900 0
M  V30 13 C -0.338517 0.344119 -0.715481 0
M  V30 14 C -1.251471 -0.647529 -0.173390 0
M  V30 15 C -2.396506 -0.327979 0.502424 0
M  V30 16 C -3.014022 0.940873 0.863568 0
M  V30 17 C -3.537456 1.938867 0.066533 0
M  V30 18 C -4.077777 3.071170 0.584735 0
M  V30 19 C -4.099861 3.219369 1.949975 0
M  V30 20 I -4.949200 4.997855 2.715608 0
M  V30 21 C -3.595494 2.264211 2.805607 0
M  V30 22 C -3.042007 1.102914 2.254197 0
M  V30 23 N -2.963630 -1.512589 0.840670 0
M  V30 24 C -2.169669 -2.507816 0.373948 0
M  V30 25 N -1.089557 -1.982269 -0.265808 0
M  V30 26 C -0.039806 -2.751831 -0.885991 0
M  V30 27 C -0.544177 -4.188089 -1.099042 0
M  V30 28 C -1.692767 -4.200349 -2.085176 0
M  V30 29 N -1.159143 -3.814038 -3.390693 0
M  V30 30 C -0.811782 -2.390249 -3.249153 0
M  V30 31 C 0.320788 -2.279594 -2.277345 0
M  V30 32 N 0.858181 0.314331 -0.052629 0
M  V30 33 C 3.683930 -1.132333 1.278782 0
M  V30 34 H 3.761250 -3.975745 3.028996 0
M  V30 35 H 5.348042 -3.321599 2.331142 0
M  V30 36 H 3.939996 -3.667581 1.293808 0
M  V30 37 H 3.381164 -1.981946 4.535979 0
M  V30 38 H 1.432671 0.020422 5.279255 0
M  V30 39 H 3.164620 0.126247 5.868259 0
M  V30 40 H 2.348387 1.520461 5.038405 0
M  V30 41 H 2.449723 1.696467 2.738620 0
M  V30 42 H 0.376677 2.784182 -2.835303 0
M  V30 43 H -1.458262 1.198769 -2.184114 0
M  V30 44 H -3.462018 1.702921 -0.985704 0
M  V30 45 H -4.448763 3.765208 -0.152599 0
M  V30 46 H -3.643565 2.443474 3.882794 0
M  V30 47 H -2.677932 0.423765 3.006296 0
M  V30 48 H -2.450445 -3.539455 0.543243 0
M  V30 49 H 0.872754 -2.840328 -0.299881 0
M  V30 50 H 0.276415 -4.781067 -1.561756 0
M  V30 51 H -0.895088 -4.649959 -0.166478 0
M  V30 52 H -2.096943 -5.231244 -2.089907 0
M  V30 53 H -2.501362 -3.509483 -1.852836 0
M  V30 54 H -0.267164 -4.314675 -3.589127 0
M  V30 55 H -1.722022 -1.890266 -2.872753 0
M  V30 56 H -0.467225 -1.993207 -4.210944 0
M  V30 57 H 1.093749 -3.021582 -2.627218 0
M  V30 58 H 0.784420 -1.299705 -2.332507 0
M  V30 59 H 3.970982 -1.441598 0.286501 0
M  V30 END ATOM
M  V30 BEGIN BOND
M  V30 1 1 1 2
M  V30 2 2 2 3
M  V30 3 1 3 4
M  V30 4 1 4 5
M  V30 5 2 4 6
M  V30 6 1 6 7
M  V30 7 1 7 8
M  V30 8 1 8 9
M  V30 9 2 9 10
M  V30 10 1 10 11
M  V30 11 2 11 12
M  V30 12 1 12 13
M  V30 13 1 13 14
M  V30 14 2 14 15
M  V30 15 1 15 16
M  V30 16 2 16 17
M  V30 17 1 17 18
M  V30 18 2 18 19
M  V30 19 1 19 20
M  V30 20 1 19 21
M  V30 21 2 21 22
M  V30 22 1 15 23
M  V30 23 2 23 24
M  V30 24 1 24 25
M  V30 25 1 25 26
M  V30 26 1 26 27
M  V30 27 1 27 28
M  V30 28 1 28 29
M  V30 29 1 29 30
M  V30 30 1 30 31
M  V30 31 2 13 32
M  V30 32 2 7 33
M  V30 33 1 33 2
M  V30 34 1 32 9
M  V30 35 1 25 14
M  V30 36 1 31 26
M  V30 37 1 22 16
M  V30 38 1 1 34
M  V30 39 1 1 35
M  V30 40 1 1 36
M  V30 41 1 3 37
M  V30 42 1 5 38
M  V30 43 1 5 39
M  V30 44 1 5 40
M  V30 45 1 6 41
M  V30 46 1 11 42
M  V30 47 1 12 43
M  V30 48 1 17 44
M  V30 49 1 18 45
M  V30 50 1 21 46
M  V30 51 1 22 47
M  V30 52 1 24 48
M  V30 53 1 26 49
M  V30 54 1 27 50
M  V30 55 1 27 51
M  V30 56 1 28 52
M  V30 57 1 28 53
M  V30 58 1 29 54
M  V30 59 1 30 55
M  V30 60 1 30 56
M  V30 61 1 31 57
M  V30 62 1 31 58
M  V30 63 1 33 59
M  V30 END BOND
M  V30 END CTAB
M  END
>  <Dataset>  (518) 
ChEMBL_Kinases

>  <Ligand_Instance>  (518) 
nan

>  <PDB_ID>  (518) 
nan

>  <Standardized_SMILES>  (518) 
Cc1cc(C)cc(Oc2nccc(-c3c(-c4ccc(I)cc4)ncn3C3CCNCC3)n2)c1

>  <Name>  (518) 
nan

>  <Pocket>  (518) 
nan

>  <ATP_Site>  (518) 
nan

>  <Peripheral>  (518) 
nan

>  <Num_H_Atoms_ProtBoundConf>  (518) 
nan

>  <Num_Resolved_Atoms>  (518) 
nan

>  <Num_Not_Resolved_Atoms>  (518) 
nan

$$$$
CHEMBL5088939
     RDKit          3D

  0  0  0  0  0  0  0  0  0  0999 V3000
M  V30 BEGIN CTAB
M  V30 COUNTS 43 45 0 0 0
M  V30 BEGIN ATOM
M  V30 1 C -3.803034 -3.566765 2.021944 0
M  V30 2 C -3.211112 -3.343088 3.410222 0
M  V30 3 C -1.760785 -3.658759 3.412295 0
M  V30 4 C -1.162069 -4.780369 3.924455 0
M  V30 5 N 0.168901 -4.707571 3.738655 0
M  V30 6 C 0.465225 -3.546342 3.106656 0
M  V30 7 N 1.612611 -2.963674 2.678183 0
M  V30 8 C 1.599699 -1.767331 2.062424 0
M  V30 9 C 0.423266 -1.076772 1.836918 0
M  V30 10 C 0.371991 0.220955 1.174609 0
M  V30 11 C -0.612537 1.117674 1.520551 0
M  V30 12 C -0.648828 2.339693 0.888245 0
M  V30 13 C 0.304861 2.651103 -0.087043 0
M  V30 14 N 0.152210 3.942043 -0.657948 0
M  V30 15 C 1.306847 1.786205 -0.465178 0
M  V30 16 C 2.249358 2.201339 -1.485509 0
M  V30 17 O 2.010383 3.380204 -1.911405 0
M  V30 18 N 3.345774 1.513180 -2.048402 0
M  V30 19 C 3.886081 0.175571 -1.795386 0
M  V30 20 C 4.087532 2.266811 -3.074668 0
M  V30 21 C 1.276331 0.589366 0.209953 0
M  V30 22 C -0.781847 -1.647193 2.265351 0
M  V30 23 C -0.743006 -2.880348 2.897392 0
M  V30 24 H -4.107582 -2.604094 1.600886 0
M  V30 25 H -4.665953 -4.249726 2.024434 0
M  V30 26 H -2.996404 -3.980394 1.356102 0
M  V30 27 H -3.758500 -3.995916 4.100307 0
M  V30 28 H -3.381748 -2.282638 3.728045 0
M  V30 29 H -1.627239 -5.642434 4.421552 0
M  V30 30 H 0.944899 -5.369304 3.993413 0
M  V30 31 H 2.520226 -1.302670 1.720133 0
M  V30 32 H -1.349474 0.898198 2.262899 0
M  V30 33 H -1.424953 3.037129 1.165853 0
M  V30 34 H 0.649661 4.850797 -0.710943 0
M  V30 35 H -0.508433 4.499667 -1.247024 0
M  V30 36 H 4.737277 -0.032358 -2.491533 0
M  V30 37 H 3.154389 -0.624127 -1.985670 0
M  V30 38 H 4.219928 0.099248 -0.742645 0
M  V30 39 H 3.360237 2.758066 -3.754071 0
M  V30 40 H 4.694921 1.606589 -3.719216 0
M  V30 41 H 4.702389 3.015277 -2.569583 0
M  V30 42 H 2.004954 -0.147241 -0.005449 0
M  V30 43 H -1.731481 -1.159384 2.118987 0
M  V30 END ATOM
M  V30 BEGIN BOND
M  V30 1 1 1 2
M  V30 2 1 2 3
M  V30 3 2 3 4
M  V30 4 1 4 5
M  V30 5 1 5 6
M  V30 6 2 6 7
M  V30 7 1 7 8
M  V30 8 2 8 9
M  V30 9 1 9 10
M  V30 10 2 10 11
M  V30 11 1 11 12
M  V30 12 2 12 13
M  V30 13 1 13 14
M  V30 14 1 13 15
M  V30 15 1 15 16
M  V30 16 2 16 17
M  V30 17 1 16 18
M  V30 18 1 18 19
M  V30 19 1 18 20
M  V30 20 2 15 21
M  V30 21 1 9 22
M  V30 22 2 22 23
M  V30 23 1 23 3
M  V30 24 1 23 6
M  V30 25 1 21 10
M  V30 26 1 1 24
M  V30 27 1 1 25
M  V30 28 1 1 26
M  V30 29 1 2 27
M  V30 30 1 2 28
M  V30 31 1 4 29
M  V30 32 1 5 30
M  V30 33 1 8 31
M  V30 34 1 11 32
M  V30 35 1 12 33
M  V30 36 1 14 34
M  V30 37 1 14 35
M  V30 38 1 19 36
M  V30 39 1 19 37
M  V30 40 1 19 38
M  V30 41 1 20 39
M  V30 42 1 20 40
M  V30 43 1 20 41
M  V30 44 1 21 42
M  V30 45 1 22 43
M  V30 END BOND
M  V30 END CTAB
M  END
>  <Dataset>  (519) 
ChEMBL_Kinases

>  <Ligand_Instance>  (519) 
nan

>  <PDB_ID>  (519) 
nan

>  <Standardized_SMILES>  (519) 
CCc1c[nH]c2ncc(-c3ccc(N)c(C(=O)N(C)C)c3)cc12

>  <Name>  (519) 
nan

>  <Pocket>  (519) 
nan

>  <ATP_Site>  (519) 
nan

>  <Peripheral>  (519) 
nan

>  <Num_H_Atoms_ProtBoundConf>  (519) 
nan

>  <Num_Resolved_Atoms>  (519) 
nan

>  <Num_Not_Resolved_Atoms>  (519) 
nan

$$$$
CHEMBL5089022
     RDKit          3D

  0  0  0  0  0  0  0  0  0  0999 V3000
M  V30 BEGIN CTAB
M  V30 COUNTS 56 60 0 0 0
M  V30 BEGIN ATOM
M  V30 1 C 3.942284 -4.383563 2.804724 0
M  V30 2 O 3.475275 -3.382680 1.926917 0
M  V30 3 C 3.366175 -2.081320 2.368932 0
M  V30 4 C 3.661238 -1.566301 3.604604 0
M  V30 5 C 3.495404 -0.220036 3.890650 0
M  V30 6 C 3.020204 0.583853 2.878925 0
M  V30 7 C 2.705571 0.109157 1.603493 0
M  V30 8 C 2.245753 1.189303 0.751547 0
M  V30 9 N 3.249612 1.590072 -0.008688 0
M  V30 10 C 2.775428 2.619554 -0.781218 0
M  V30 11 S 3.151932 3.862331 -2.078475 0
M  V30 12 C 1.425741 4.571638 -2.071896 0
M  V30 13 C 0.779469 3.797010 -1.102505 0
M  V30 14 N 1.467624 2.842063 -0.482349 0
M  V30 15 C 1.142721 1.953834 0.466830 0
M  V30 16 C -0.104546 1.670547 1.174252 0
M  V30 17 C -0.424977 1.581553 2.495039 0
M  V30 18 C -1.702186 1.300411 2.916362 0
M  V30 19 N -2.599613 1.121847 1.910319 0
M  V30 20 C -2.295748 1.208897 0.606608 0
M  V30 21 N -3.548703 0.963208 -0.043875 0
M  V30 22 C -4.383885 -0.162642 -0.196638 0
M  V30 23 C -3.971814 -1.327800 -0.990206 0
M  V30 24 N -2.787416 -2.032252 -0.652376 0
M  V30 25 C -3.045810 -3.468774 -0.499768 0
M  V30 26 C -2.831759 -4.210322 -1.804390 0
M  V30 27 C -1.367966 -4.486352 -2.069183 0
M  V30 28 N -0.533642 -3.365155 -1.738478 0
M  V30 29 S -1.521230 -1.913978 -1.808570 0
M  V30 30 O -0.602112 -0.785031 -1.611443 0
M  V30 31 O -2.088647 -1.786605 -3.207690 0
M  V30 32 N -1.041637 1.484231 0.232061 0
M  V30 33 C 2.884884 -1.255101 1.354888 0
M  V30 34 H 3.614321 -4.138488 3.831728 0
M  V30 35 H 3.516891 -5.368113 2.500740 0
M  V30 36 H 5.058530 -4.451830 2.832202 0
M  V30 37 H 4.035179 -2.238510 4.353081 0
M  V30 38 H 3.749358 0.117700 4.886116 0
M  V30 39 H 2.925521 1.624040 3.213859 0
M  V30 40 H 1.153287 5.383067 -2.721332 0
M  V30 41 H -0.246666 4.107353 -0.999923 0
M  V30 42 H 0.430744 1.763786 3.122886 0
M  V30 43 H -1.848707 1.246307 3.993873 0
M  V30 44 H -3.746917 1.928858 -0.442329 0
M  V30 45 H -5.333308 0.234095 -0.701739 0
M  V30 46 H -4.737367 -0.444442 0.837507 0
M  V30 47 H -4.829828 -2.076944 -0.912741 0
M  V30 48 H -4.006308 -1.046195 -2.075533 0
M  V30 49 H -2.426972 -3.934617 0.274583 0
M  V30 50 H -4.127064 -3.598224 -0.227232 0
M  V30 51 H -3.323514 -5.201335 -1.700088 0
M  V30 52 H -3.305170 -3.692810 -2.654061 0
M  V30 53 H -1.039770 -5.415129 -1.536586 0
M  V30 54 H -1.260369 -4.712763 -3.149434 0
M  V30 55 H -0.168863 -3.426371 -0.773089 0
M  V30 56 H 2.602870 -1.486899 0.331955 0
M  V30 END ATOM
M  V30 BEGIN BOND
M  V30 1 1 1 2
M  V30 2 1 2 3
M  V30 3 2 3 4
M  V30 4 1 4 5
M  V30 5 2 5 6
M  V30 6 1 6 7
M  V30 7 1 7 8
M  V30 8 1 8 9
M  V30 9 2 9 10
M  V30 10 1 10 11
M  V30 11 1 11 12
M  V30 12 2 12 13
M  V30 13 1 13 14
M  V30 14 1 14 15
M  V30 15 1 15 16
M  V30 16 2 16 17
M  V30 17 1 17 18
M  V30 18 2 18 19
M  V30 19 1 19 20
M  V30 20 1 20 21
M  V30 21 1 21 22
M  V30 22 1 22 23
M  V30 23 1 23 24
M  V30 24 1 24 25
M  V30 25 1 25 26
M  V30 26 1 26 27
M  V30 27 1 27 28
M  V30 28 1 28 29
M  V30 29 2 29 30
M  V30 30 2 29 31
M  V30 31 2 20 32
M  V30 32 2 7 33
M  V30 33 1 33 3
M  V30 34 2 15 8
M  V30 35 1 32 16
M  V30 36 1 14 10
M  V30 37 1 29 24
M  V30 38 1 1 34
M  V30 39 1 1 35
M  V30 40 1 1 36
M  V30 41 1 4 37
M  V30 42 1 5 38
M  V30 43 1 6 39
M  V30 44 1 12 40
M  V30 45 1 13 41
M  V30 46 1 17 42
M  V30 47 1 18 43
M  V30 48 1 21 44
M  V30 49 1 22 45
M  V30 50 1 22 46
M  V30 51 1 23 47
M  V30 52 1 23 48
M  V30 53 1 25 49
M  V30 54 1 25 50
M  V30 55 1 26 51
M  V30 56 1 26 52
M  V30 57 1 27 53
M  V30 58 1 27 54
M  V30 59 1 28 55
M  V30 60 1 33 56
M  V30 END BOND
M  V30 END CTAB
M  END
>  <Dataset>  (520) 
ChEMBL_Kinases

>  <Ligand_Instance>  (520) 
nan

>  <PDB_ID>  (520) 
nan

>  <Standardized_SMILES>  (520) 
COc1cccc(-c2nc3sccn3c2-c2ccnc(NCCN3CCCNS3(=O)=O)n2)c1

>  <Name>  (520) 
nan

>  <Pocket>  (520) 
nan

>  <ATP_Site>  (520) 
nan

>  <Peripheral>  (520) 
nan

>  <Num_H_Atoms_ProtBoundConf>  (520) 
nan

>  <Num_Resolved_Atoms>  (520) 
nan

>  <Num_Not_Resolved_Atoms>  (520) 
nan

$$$$
CHEMBL5089053
     RDKit          3D

  0  0  0  0  0  0  0  0  0  0999 V3000
M  V30 BEGIN CTAB
M  V30 COUNTS 47 50 0 0 0
M  V30 BEGIN ATOM
M  V30 1 C 1.039235 -2.146348 0.749761 0
M  V30 2 N 1.130365 -0.967504 1.633355 0
M  V30 3 C 2.218313 -0.049032 1.603369 0
M  V30 4 N 2.997917 -0.173414 2.702376 0
M  V30 5 C 4.097535 0.588689 2.841708 0
M  V30 6 N 4.467356 1.501742 1.900895 0
M  V30 7 C 3.704620 1.642274 0.798984 0
M  V30 8 N 3.772069 2.428108 -0.290754 0
M  V30 9 C 2.723198 2.156489 -1.096819 0
M  V30 10 C 2.351559 2.692933 -2.309452 0
M  V30 11 C 1.196239 2.235640 -2.948047 0
M  V30 12 C 0.430986 1.233588 -2.340427 0
M  V30 13 C 0.849712 0.732552 -1.126707 0
M  V30 14 C 1.965844 1.171693 -0.507380 0
M  V30 15 C 2.580970 0.856504 0.667628 0
M  V30 16 C 0.012896 -0.789748 2.575132 0
M  V30 17 C -0.170368 -1.954655 3.489414 0
M  V30 18 C -1.113604 -3.010766 3.042936 0
M  V30 19 C -2.224055 -2.604981 2.138554 0
M  V30 20 N -2.072285 -1.411054 1.434467 0
M  V30 21 C -2.637258 -1.305767 0.151818 0
M  V30 22 C -4.126650 -1.284758 0.124483 0
M  V30 23 C -4.724680 -2.483323 0.680073 0
M  V30 24 N -5.221928 -3.434784 1.128769 0
M  V30 25 C -1.263910 -0.380804 1.931160 0
M  V30 26 H 0.050292 -2.336555 0.362586 0
M  V30 27 H 1.691665 -1.972596 -0.156920 0
M  V30 28 H 1.535217 -2.972427 1.291982 0
M  V30 29 H 4.803490 0.583512 3.674910 0
M  V30 30 H 4.504229 3.146628 -0.512886 0
M  V30 31 H 2.930787 3.462054 -2.784319 0
M  V30 32 H 0.926374 2.671799 -3.896817 0
M  V30 33 H -0.444226 0.957230 -2.927030 0
M  V30 34 H 0.155706 -0.014793 -0.794950 0
M  V30 35 H 0.315516 0.077957 3.238448 0
M  V30 36 H 0.825554 -2.409326 3.763366 0
M  V30 37 H -0.553970 -1.592668 4.484030 0
M  V30 38 H -1.538058 -3.600886 3.884949 0
M  V30 39 H -0.502571 -3.773310 2.473698 0
M  V30 40 H -2.453705 -3.422654 1.392349 0
M  V30 41 H -3.157878 -2.527639 2.758059 0
M  V30 42 H -2.216075 -2.160209 -0.463189 0
M  V30 43 H -2.300034 -0.344093 -0.306029 0
M  V30 44 H -4.472133 -0.367296 0.665980 0
M  V30 45 H -4.512140 -1.133802 -0.919514 0
M  V30 46 H -1.861152 0.139215 2.744968 0
M  V30 47 H -1.120878 0.402315 1.172631 0
M  V30 END ATOM
M  V30 BEGIN BOND
M  V30 1 1 1 2
M  V30 2 1 2 3
M  V30 3 2 3 4
M  V30 4 1 4 5
M  V30 5 2 5 6
M  V30 6 1 6 7
M  V30 7 1 7 8
M  V30 8 1 8 9
M  V30 9 2 9 10
M  V30 10 1 10 11
M  V30 11 2 11 12
M  V30 12 1 12 13
M  V30 13 2 13 14
M  V30 14 1 14 15
M  V30 15 1 2 16
M  V30 16 1 16 17
M  V30 17 1 17 18
M  V30 18 1 18 19
M  V30 19 1 19 20
M  V30 20 1 20 21
M  V30 21 1 21 22
M  V30 22 1 22 23
M  V30 23 3 23 24
M  V30 24 1 20 25
M  V30 25 1 15 3
M  V30 26 1 25 16
M  V30 27 2 15 7
M  V30 28 1 14 9
M  V30 29 1 1 26
M  V30 30 1 1 27
M  V30 31 1 1 28
M  V30 32 1 5 29
M  V30 33 1 8 30
M  V30 34 1 10 31
M  V30 35 1 11 32
M  V30 36 1 12 33
M  V30 37 1 13 34
M  V30 38 1 16 35
M  V30 39 1 17 36
M  V30 40 1 17 37
M  V30 41 1 18 38
M  V30 42 1 18 39
M  V30 43 1 19 40
M  V30 44 1 19 41
M  V30 45 1 21 42
M  V30 46 1 21 43
M  V30 47 1 22 44
M  V30 48 1 22 45
M  V30 49 1 25 46
M  V30 50 1 25 47
M  V30 END BOND
M  V30 END CTAB
M  END
>  <Dataset>  (521) 
ChEMBL_Kinases

>  <Ligand_Instance>  (521) 
nan

>  <PDB_ID>  (521) 
nan

>  <Standardized_SMILES>  (521) 
CN(c1ncnc2[nH]c3ccccc3c12)C1CCCN(CCC#N)C1

>  <Name>  (521) 
nan

>  <Pocket>  (521) 
nan

>  <ATP_Site>  (521) 
nan

>  <Peripheral>  (521) 
nan

>  <Num_H_Atoms_ProtBoundConf>  (521) 
nan

>  <Num_Resolved_Atoms>  (521) 
nan

>  <Num_Not_Resolved_Atoms>  (521) 
nan

$$$$
CHEMBL5089459
     RDKit          3D

  0  0  0  0  0  0  0  0  0  0999 V3000
M  V30 BEGIN CTAB
M  V30 COUNTS 37 39 0 0 0
M  V30 BEGIN ATOM
M  V30 1 C 2.383318 -3.657808 4.222359 0
M  V30 2 C 1.082882 -3.543384 4.105083 0
M  V30 3 C 0.955605 -2.591736 3.015655 0
M  V30 4 O 2.185922 -2.827489 3.271282 0
M  V30 5 N 0.550776 -1.697409 1.995150 0
M  V30 6 C 1.668437 -1.106410 1.296269 0
M  V30 7 O 2.806492 -1.586883 1.617906 0
M  V30 8 C 1.517534 -0.033192 0.289730 0
M  V30 9 C 0.898032 -0.447753 -1.002399 0
M  V30 10 C 1.016225 0.744907 -1.918737 0
M  V30 11 C 0.235136 1.812401 -1.461730 0
M  V30 12 C 0.233698 2.981595 -2.190963 0
M  V30 13 C 0.998384 3.043499 -3.330853 0
M  V30 14 Br 1.001601 4.656951 -4.344511 0
M  V30 15 C 1.774489 1.997487 -3.794056 0
M  V30 16 C 1.767458 0.831714 -3.054762 0
M  V30 17 S -0.824289 -0.888348 -0.959409 0
M  V30 18 C -1.484546 -1.221836 0.642487 0
M  V30 19 C -2.860097 -1.124348 0.662247 0
M  V30 20 C -3.574401 -1.349097 1.823097 0
M  V30 21 C -2.928055 -1.679334 3.002222 0
M  V30 22 C -1.533645 -1.795328 3.054140 0
M  V30 23 C -0.879251 -1.557065 1.855241 0
M  V30 24 H 3.117508 -4.193312 4.828507 0
M  V30 25 H 2.687694 -4.355291 5.018579 0
M  V30 26 H 0.248718 -3.983055 4.616696 0
M  V30 27 H 2.491530 0.433557 0.054826 0
M  V30 28 H 0.885898 0.813024 0.679705 0
M  V30 29 H 1.557255 -1.228492 -1.475399 0
M  V30 30 H -0.386244 1.827515 -0.576547 0
M  V30 31 H -0.356294 3.845620 -1.882080 0
M  V30 32 H 2.379938 2.035501 -4.689679 0
M  V30 33 H 2.338027 -0.072458 -3.310639 0
M  V30 34 H -3.346620 -0.864568 -0.271998 0
M  V30 35 H -4.640035 -1.267961 1.814526 0
M  V30 36 H -3.442586 -1.867547 3.948387 0
M  V30 37 H -0.928847 -2.040093 3.892639 0
M  V30 END ATOM
M  V30 BEGIN BOND
M  V30 1 2 1 2
M  V30 2 1 2 3
M  V30 3 2 3 4
M  V30 4 1 3 5
M  V30 5 1 5 6
M  V30 6 2 6 7
M  V30 7 1 6 8
M  V30 8 1 8 9
M  V30 9 1 9 10
M  V30 10 2 10 11
M  V30 11 1 11 12
M  V30 12 2 12 13
M  V30 13 1 13 14
M  V30 14 1 13 15
M  V30 15 2 15 16
M  V30 16 1 9 17
M  V30 17 1 17 18
M  V30 18 2 18 19
M  V30 19 1 19 20
M  V30 20 2 20 21
M  V30 21 1 21 22
M  V30 22 2 22 23
M  V30 23 1 23 5
M  V30 24 1 16 10
M  V30 25 1 23 18
M  V30 26 1 1 24
M  V30 27 1 1 25
M  V30 28 1 2 26
M  V30 29 1 8 27
M  V30 30 1 8 28
M  V30 31 1 9 29
M  V30 32 1 11 30
M  V30 33 1 12 31
M  V30 34 1 15 32
M  V30 35 1 16 33
M  V30 36 1 19 34
M  V30 37 1 20 35
M  V30 38 1 21 36
M  V30 39 1 22 37
M  V30 END BOND
M  V30 END CTAB
M  END
>  <Dataset>  (522) 
ChEMBL_Kinases

>  <Ligand_Instance>  (522) 
nan

>  <PDB_ID>  (522) 
nan

>  <Standardized_SMILES>  (522) 
C=CC(=O)N1C(=O)CC(c2ccc(Br)cc2)Sc2ccccc21

>  <Name>  (522) 
nan

>  <Pocket>  (522) 
nan

>  <ATP_Site>  (522) 
nan

>  <Peripheral>  (522) 
nan

>  <Num_H_Atoms_ProtBoundConf>  (522) 
nan

>  <Num_Resolved_Atoms>  (522) 
nan

>  <Num_Not_Resolved_Atoms>  (522) 
nan

$$$$
CHEMBL5089152
     RDKit          3D

  0  0  0  0  0  0  0  0  0  0999 V3000
M  V30 BEGIN CTAB
M  V30 COUNTS 58 62 0 0 0
M  V30 BEGIN ATOM
M  V30 1 C 3.831922 4.404564 -0.179376 0
M  V30 2 C 3.744546 2.965069 0.199452 0
M  V30 3 N 4.716446 2.145590 0.636201 0
M  V30 4 N 4.232176 0.936005 0.865608 0
M  V30 5 C 5.156055 -0.067607 1.342849 0
M  V30 6 C 4.399787 -1.372418 1.483642 0
M  V30 7 C 3.890418 -1.258319 2.899687 0
M  V30 8 O 4.712463 -0.421606 3.604424 0
M  V30 9 C 5.568192 0.215605 2.753822 0
M  V30 10 C 2.932931 0.975479 0.573539 0
M  V30 11 C 2.573330 2.237730 0.146957 0
M  V30 12 N 1.282641 2.681327 -0.254926 0
M  V30 13 C 0.108976 1.879737 -0.287425 0
M  V30 14 N -1.072866 2.382532 -0.682097 0
M  V30 15 C -2.178327 1.625951 -0.712266 0
M  V30 16 N -3.401745 2.221831 -1.141643 0
M  V30 17 C -2.178869 0.299957 -0.346000 0
M  V30 18 C -3.137397 -0.694258 -0.278721 0
M  V30 19 C -4.513403 -0.526575 -0.622812 0
M  V30 20 N -5.628436 -0.404649 -0.914273 0
M  V30 21 C -2.469819 -1.812604 0.174742 0
M  V30 22 N -3.177308 -3.036698 0.359859 0
M  V30 23 C -3.866489 -3.557077 1.514627 0
M  V30 24 C -4.979119 -4.425372 1.021084 0
M  V30 25 C -4.877125 -4.299229 -0.489693 0
M  V30 26 C -3.368081 -4.090265 -0.639239 0 CFG=1
M  V30 27 C -2.985166 -3.648596 -2.017643 0
M  V30 28 N -1.174013 -1.508671 0.371177 0
M  V30 29 C -0.202115 -2.453589 0.842586 0
M  V30 30 C -0.980154 -0.211172 0.054628 0
M  V30 31 N 0.088763 0.595302 0.063102 0
M  V30 32 H 4.785596 4.855132 0.188701 0
M  V30 33 H 3.878067 4.441677 -1.270046 0
M  V30 34 H 2.961437 4.959476 0.231361 0
M  V30 35 H 6.017971 -0.177580 0.651208 0
M  V30 36 H 5.115405 -2.240861 1.437913 0
M  V30 37 H 3.609396 -1.476927 0.727142 0
M  V30 38 H 3.749733 -2.257388 3.373710 0
M  V30 39 H 2.853900 -0.818271 2.831714 0
M  V30 40 H 5.680795 1.298229 2.989634 0
M  V30 41 H 6.596678 -0.201927 2.881807 0
M  V30 42 H 2.328761 0.110284 0.681851 0
M  V30 43 H 1.195344 3.684147 -0.550906 0
M  V30 44 H -4.073640 2.441031 -1.909444 0
M  V30 45 H -3.795318 2.622317 -0.251809 0
M  V30 46 H -4.334858 -2.741595 2.127645 0
M  V30 47 H -3.118951 -4.125872 2.116723 0
M  V30 48 H -5.984540 -4.162068 1.401510 0
M  V30 49 H -4.733641 -5.503097 1.238487 0
M  V30 50 H -5.434155 -3.378550 -0.766705 0
M  V30 51 H -5.222437 -5.192432 -1.016764 0
M  V30 52 H -2.907126 -5.031796 -0.317265 0
M  V30 53 H -3.866264 -3.278514 -2.594930 0
M  V30 54 H -2.633300 -4.551245 -2.572552 0
M  V30 55 H -2.155997 -2.941052 -1.976502 0
M  V30 56 H -0.313403 -2.636029 1.931407 0
M  V30 57 H -0.326664 -3.427109 0.326214 0
M  V30 58 H 0.823602 -2.085804 0.635291 0
M  V30 END ATOM
M  V30 BEGIN BOND
M  V30 1 1 1 2
M  V30 2 2 2 3
M  V30 3 1 3 4
M  V30 4 1 4 5
M  V30 5 1 5 6
M  V30 6 1 6 7
M  V30 7 1 7 8
M  V30 8 1 8 9
M  V30 9 1 4 10
M  V30 10 2 10 11
M  V30 11 1 11 12
M  V30 12 1 12 13
M  V30 13 2 13 14
M  V30 14 1 14 15
M  V30 15 1 15 16
M  V30 16 2 15 17
M  V30 17 1 17 18
M  V30 18 1 18 19
M  V30 19 3 19 20
M  V30 20 2 18 21
M  V30 21 1 21 22
M  V30 22 1 22 23
M  V30 23 1 23 24
M  V30 24 1 24 25
M  V30 25 1 25 26
M  V30 26 1 26 27
M  V30 27 1 21 28
M  V30 28 1 28 29
M  V30 29 1 28 30
M  V30 30 2 30 31
M  V30 31 1 11 2
M  V30 32 1 31 13
M  V30 33 1 9 5
M  V30 34 1 30 17
M  V30 35 1 26 22
M  V30 36 1 1 32
M  V30 37 1 1 33
M  V30 38 1 1 34
M  V30 39 1 5 35
M  V30 40 1 6 36
M  V30 41 1 6 37
M  V30 42 1 7 38
M  V30 43 1 7 39
M  V30 44 1 9 40
M  V30 45 1 9 41
M  V30 46 1 10 42
M  V30 47 1 12 43
M  V30 48 1 16 44
M  V30 49 1 16 45
M  V30 50 1 23 46
M  V30 51 1 23 47
M  V30 52 1 24 48
M  V30 53 1 24 49
M  V30 54 1 25 50
M  V30 55 1 25 51
M  V30 56 1 26 52 CFG=1
M  V30 57 1 27 53
M  V30 58 1 27 54
M  V30 59 1 27 55
M  V30 60 1 29 56
M  V30 61 1 29 57
M  V30 62 1 29 58
M  V30 END BOND
M  V30 END CTAB
M  END
>  <Dataset>  (523) 
ChEMBL_Kinases

>  <Ligand_Instance>  (523) 
nan

>  <PDB_ID>  (523) 
nan

>  <Standardized_SMILES>  (523) 
Cc1nn(C2CCOC2)cc1Nc1nc(N)c2c(C#N)c(N3CCC[C@H]3C)n(C)c2n1

>  <Name>  (523) 
nan

>  <Pocket>  (523) 
nan

>  <ATP_Site>  (523) 
nan

>  <Peripheral>  (523) 
nan

>  <Num_H_Atoms_ProtBoundConf>  (523) 
nan

>  <Num_Resolved_Atoms>  (523) 
nan

>  <Num_Not_Resolved_Atoms>  (523) 
nan

$$$$
CHEMBL5089194
     RDKit          3D

  0  0  0  0  0  0  0  0  0  0999 V3000
M  V30 BEGIN CTAB
M  V30 COUNTS 50 53 0 0 0
M  V30 BEGIN ATOM
M  V30 1 C -2.708625 -6.177742 -0.166810 0
M  V30 2 C -2.281485 -5.377791 -1.344742 0
M  V30 3 C -1.694229 -4.117059 -1.322061 0
M  V30 4 N -1.378964 -3.329881 -0.183870 0
M  V30 5 C -0.777662 -2.047412 -0.246991 0
M  V30 6 N -0.440706 -1.437183 -1.389431 0
M  V30 7 C 0.128206 -0.219215 -1.402003 0
M  V30 8 N 0.470675 0.392898 -2.646164 0
M  V30 9 C 0.401267 0.478358 -0.254395 0
M  V30 10 C 0.960203 1.704934 0.039756 0
M  V30 11 C 1.442953 2.647946 -0.894975 0
M  V30 12 N 1.817477 3.419971 -1.657977 0
M  V30 13 C 0.921368 1.757137 1.422900 0
M  V30 14 N 1.407878 2.873066 2.173288 0
M  V30 15 C 0.773702 4.082310 2.639230 0
M  V30 16 C 1.478601 4.435352 3.928061 0
M  V30 17 C 2.604127 3.441382 4.072492 0
M  V30 18 C 2.788426 2.980049 2.644039 0 CFG=1
M  V30 19 C 3.417863 1.592098 2.714627 0
M  V30 20 N 0.374264 0.636046 1.947102 0
M  V30 21 C 0.151947 0.295438 3.333860 0
M  V30 22 C 0.050029 -0.159690 0.916425 0
M  V30 23 N -0.517242 -1.378846 0.880985 0
M  V30 24 C -1.509068 -3.851656 -2.662602 0
M  V30 25 N -1.949855 -4.871173 -3.426719 0
M  V30 26 N -2.418516 -5.795952 -2.614900 0
M  V30 27 C -2.991044 -7.066750 -3.062307 0
M  V30 28 H -2.407833 -7.238212 -0.365615 0
M  V30 29 H -3.793188 -6.146701 -0.031927 0
M  V30 30 H -2.221971 -5.869906 0.759372 0
M  V30 31 H -1.611922 -3.737553 0.750902 0
M  V30 32 H 0.006097 1.164069 -3.198349 0
M  V30 33 H 1.298897 0.133500 -3.221798 0
M  V30 34 H -0.319966 4.014389 2.745222 0
M  V30 35 H 1.076503 4.884539 1.905741 0
M  V30 36 H 1.958950 5.444326 3.904664 0
M  V30 37 H 0.790520 4.460254 4.799895 0
M  V30 38 H 3.526305 3.867560 4.515824 0
M  V30 39 H 2.307520 2.539571 4.668635 0
M  V30 40 H 3.388898 3.672818 2.047484 0
M  V30 41 H 3.116908 1.108321 3.660142 0
M  V30 42 H 4.514690 1.656517 2.638313 0
M  V30 43 H 3.080074 1.056713 1.808166 0
M  V30 44 H -0.946644 0.205679 3.501268 0
M  V30 45 H 0.524568 1.060883 4.024459 0
M  V30 46 H 0.594622 -0.702816 3.561319 0
M  V30 47 H -1.073450 -2.959561 -3.085350 0
M  V30 48 H -3.634603 -6.878843 -3.949985 0
M  V30 49 H -3.615496 -7.530644 -2.295973 0
M  V30 50 H -2.179546 -7.752975 -3.409961 0
M  V30 END ATOM
M  V30 BEGIN BOND
M  V30 1 1 1 2
M  V30 2 2 2 3
M  V30 3 1 3 4
M  V30 4 1 4 5
M  V30 5 2 5 6
M  V30 6 1 6 7
M  V30 7 1 7 8
M  V30 8 2 7 9
M  V30 9 1 9 10
M  V30 10 1 10 11
M  V30 11 3 11 12
M  V30 12 2 10 13
M  V30 13 1 13 14
M  V30 14 1 14 15
M  V30 15 1 15 16
M  V30 16 1 16 17
M  V30 17 1 17 18
M  V30 18 1 18 19
M  V30 19 1 13 20
M  V30 20 1 20 21
M  V30 21 1 20 22
M  V30 22 2 22 23
M  V30 23 1 3 24
M  V30 24 2 24 25
M  V30 25 1 25 26
M  V30 26 1 26 27
M  V30 27 1 26 2
M  V30 28 1 23 5
M  V30 29 1 22 9
M  V30 30 1 18 14
M  V30 31 1 1 28
M  V30 32 1 1 29
M  V30 33 1 1 30
M  V30 34 1 4 31
M  V30 35 1 8 32
M  V30 36 1 8 33
M  V30 37 1 15 34
M  V30 38 1 15 35
M  V30 39 1 16 36
M  V30 40 1 16 37
M  V30 41 1 17 38
M  V30 42 1 17 39
M  V30 43 1 18 40 CFG=3
M  V30 44 1 19 41
M  V30 45 1 19 42
M  V30 46 1 19 43
M  V30 47 1 21 44
M  V30 48 1 21 45
M  V30 49 1 21 46
M  V30 50 1 24 47
M  V30 51 1 27 48
M  V30 52 1 27 49
M  V30 53 1 27 50
M  V30 END BOND
M  V30 END CTAB
M  END
>  <Dataset>  (524) 
ChEMBL_Kinases

>  <Ligand_Instance>  (524) 
nan

>  <PDB_ID>  (524) 
nan

>  <Standardized_SMILES>  (524) 
Cc1c(Nc2nc(N)c3c(C#N)c(N4CCC[C@H]4C)n(C)c3n2)cnn1C

>  <Name>  (524) 
nan

>  <Pocket>  (524) 
nan

>  <ATP_Site>  (524) 
nan

>  <Peripheral>  (524) 
nan

>  <Num_H_Atoms_ProtBoundConf>  (524) 
nan

>  <Num_Resolved_Atoms>  (524) 
nan

>  <Num_Not_Resolved_Atoms>  (524) 
nan

$$$$
CHEMBL3752433
     RDKit          3D

  0  0  0  0  0  0  0  0  0  0999 V3000
M  V30 BEGIN CTAB
M  V30 COUNTS 43 46 0 0 0
M  V30 BEGIN ATOM
M  V30 1 N 6.170067 -6.020791 0.692850 0
M  V30 2 C 5.093928 -5.330231 1.313705 0
M  V30 3 O 4.572302 -5.970875 2.288236 0
M  V30 4 C 4.564738 -4.032553 0.957422 0
M  V30 5 C 3.510109 -3.577096 1.716537 0
M  V30 6 C 2.945441 -2.330570 1.432102 0
M  V30 7 C 3.494859 -1.606137 0.373955 0
M  V30 8 C 2.892208 -0.307189 0.091453 0
M  V30 9 C 3.608505 0.755972 -0.419697 0
M  V30 10 N 3.091852 1.972911 -0.695738 0
M  V30 11 C 1.762749 2.184714 -0.457251 0
M  V30 12 C 0.982152 1.148178 0.059990 0
M  V30 13 C -0.446727 1.296176 0.342431 0
M  V30 14 C -1.239070 2.148445 -0.436814 0
M  V30 15 C -2.598337 2.246216 -0.117503 0
M  V30 16 C -3.176510 1.541053 0.924675 0
M  V30 17 O -4.532851 1.812328 1.031991 0
M  V30 18 C -5.385400 1.250590 1.982824 0
M  V30 19 C -6.792769 0.903979 1.654633 0
M  V30 20 C -6.512784 2.075703 2.546714 0
M  V30 21 C -2.379363 0.702863 1.685453 0
M  V30 22 C -1.037040 0.598660 1.379381 0
M  V30 23 C 1.549232 -0.085987 0.329934 0
M  V30 24 C 4.564937 -2.069643 -0.395423 0
M  V30 25 C 5.090415 -3.309546 -0.075670 0
M  V30 26 H 6.173677 -6.827051 0.016661 0
M  V30 27 H 7.166980 -5.745112 0.885703 0
M  V30 28 H 3.067008 -4.136695 2.553383 0
M  V30 29 H 2.126311 -1.961875 2.011113 0
M  V30 30 H 4.679565 0.602119 -0.617548 0
M  V30 31 H 1.276351 3.131375 -0.652869 0
M  V30 32 H -0.771934 2.683664 -1.237429 0
M  V30 33 H -3.115348 2.936155 -0.788213 0
M  V30 34 H -4.900229 0.536311 2.685757 0
M  V30 35 H -7.219129 1.183377 0.659878 0
M  V30 36 H -7.251134 -0.014708 2.091671 0
M  V30 37 H -6.671381 3.113531 2.134120 0
M  V30 38 H -6.813494 1.989432 3.603681 0
M  V30 39 H -2.907875 0.203530 2.461819 0
M  V30 40 H -0.447971 -0.077672 2.010881 0
M  V30 41 H 0.953790 -0.891424 0.729001 0
M  V30 42 H 4.917817 -1.437235 -1.190245 0
M  V30 43 H 5.919319 -3.664275 -0.674766 0
M  V30 END ATOM
M  V30 BEGIN BOND
M  V30 1 1 1 2
M  V30 2 2 2 3
M  V30 3 1 2 4
M  V30 4 2 4 5
M  V30 5 1 5 6
M  V30 6 2 6 7
M  V30 7 1 7 8
M  V30 8 2 8 9
M  V30 9 1 9 10
M  V30 10 2 10 11
M  V30 11 1 11 12
M  V30 12 1 12 13
M  V30 13 2 13 14
M  V30 14 1 14 15
M  V30 15 2 15 16
M  V30 16 1 16 17
M  V30 17 1 17 18
M  V30 18 1 18 19
M  V30 19 1 19 20
M  V30 20 1 16 21
M  V30 21 2 21 22
M  V30 22 2 12 23
M  V30 23 1 7 24
M  V30 24 2 24 25
M  V30 25 1 25 4
M  V30 26 1 23 8
M  V30 27 1 22 13
M  V30 28 1 20 18
M  V30 29 1 1 26
M  V30 30 1 1 27
M  V30 31 1 5 28
M  V30 32 1 6 29
M  V30 33 1 9 30
M  V30 34 1 11 31
M  V30 35 1 14 32
M  V30 36 1 15 33
M  V30 37 1 18 34
M  V30 38 1 19 35
M  V30 39 1 19 36
M  V30 40 1 20 37
M  V30 41 1 20 38
M  V30 42 1 21 39
M  V30 43 1 22 40
M  V30 44 1 23 41
M  V30 45 1 24 42
M  V30 46 1 25 43
M  V30 END BOND
M  V30 END CTAB
M  END
>  <Dataset>  (525) 
ChEMBL_Kinases

>  <Ligand_Instance>  (525) 
nan

>  <PDB_ID>  (525) 
nan

>  <Standardized_SMILES>  (525) 
NC(=O)c1ccc(-c2cncc(-c3ccc(OC4CC4)cc3)c2)cc1

>  <Name>  (525) 
nan

>  <Pocket>  (525) 
nan

>  <ATP_Site>  (525) 
nan

>  <Peripheral>  (525) 
nan

>  <Num_H_Atoms_ProtBoundConf>  (525) 
nan

>  <Num_Resolved_Atoms>  (525) 
nan

>  <Num_Not_Resolved_Atoms>  (525) 
nan

$$$$
CHEMBL5089196
     RDKit          3D

  0  0  0  0  0  0  0  0  0  0999 V3000
M  V30 BEGIN CTAB
M  V30 COUNTS 106 108 0 0 0
M  V30 BEGIN ATOM
M  V30 1 C 2.246896 -4.832201 5.038516 0
M  V30 2 O 2.392524 -3.837809 4.040863 0
M  V30 3 C 1.288187 -3.170238 3.600783 0
M  V30 4 O 0.121037 -3.419109 4.067057 0
M  V30 5 C 1.668658 -2.151914 2.534967 0 CFG=2
M  V30 6 C 2.691340 -1.294836 3.171745 0
M  V30 7 C 3.267423 -0.185590 2.382853 0
M  V30 8 C 2.185489 0.784681 1.978579 0
M  V30 9 C 4.144782 -0.605238 1.246113 0
M  V30 10 N 0.432204 -1.504433 2.164633 0
M  V30 11 C -0.128083 -1.983431 0.951818 0
M  V30 12 O 0.407272 -2.888537 0.273697 0
M  V30 13 C -1.386441 -1.540955 0.278693 0 CFG=2
M  V30 14 C -2.458615 -1.653583 1.355600 0
M  V30 15 C -2.959805 -3.067323 1.014794 0
M  V30 16 C -3.065308 -2.831626 -0.490689 0 CFG=1
M  V30 17 O -3.979382 -1.747473 -0.593852 0
M  V30 18 C -4.239147 -1.422852 -1.892710 0
M  V30 19 C -5.208437 -0.317993 -2.013741 0
M  V30 20 N -4.898666 0.953878 -1.444937 0
M  V30 21 C -3.923845 1.949349 -1.532553 0
M  V30 22 O -3.531033 1.064261 -2.332201 0
M  V30 23 C -3.519314 3.288167 -1.018355 0
M  V30 24 C -2.074962 3.560803 -1.440204 0
M  V30 25 C -1.199068 2.560531 -0.713440 0 CFG=2
M  V30 26 N -1.114053 2.834525 0.691948 0
M  V30 27 C -1.639193 2.441458 1.942561 0
M  V30 28 O -2.496928 1.518541 1.816604 0
M  V30 29 C -1.202560 3.065380 3.177619 0
M  V30 30 C -0.209593 3.983908 3.405238 0
M  V30 31 C 0.014686 4.451823 4.693629 0
M  V30 32 C -0.715503 4.042165 5.783947 0
M  V30 33 C -1.726210 3.106277 5.547441 0
M  V30 34 C -2.545084 2.644386 6.718315 0
M  V30 35 F -1.779378 2.610989 7.871819 0
M  V30 36 F -3.617475 3.489236 6.935006 0
M  V30 37 F -3.048652 1.395274 6.492112 0
M  V30 38 C -1.965599 2.625808 4.265328 0
M  V30 39 C 0.012071 2.188354 -1.410748 0
M  V30 40 O -0.456782 2.074132 -2.596127 0
M  V30 41 N 1.419875 1.884492 -1.470692 0
M  V30 42 C 1.967433 1.554808 -2.804931 0 CFG=1
M  V30 43 C 3.412842 1.727891 -2.885491 0
M  V30 44 O 3.772050 3.027819 -2.612926 0
M  V30 45 C 1.483837 0.127495 -3.041043 0
M  V30 46 O 1.540351 -0.409143 -4.159739 0
M  V30 47 N 0.910194 -0.941815 -2.247708 0
M  V30 48 C 0.346357 -2.195926 -2.659142 0 CFG=1
M  V30 49 C 1.328425 -3.316528 -2.842600 0 CFG=1
M  V30 50 C 0.640630 -4.619522 -3.153321 0
M  V30 51 O 2.232960 -3.018364 -3.805603 0
M  V30 52 P 3.839485 -3.103801 -3.499366 0
M  V30 53 O 4.246507 -3.507059 -2.113213 0
M  V30 54 O 4.687466 -4.132172 -4.559236 0
M  V30 55 O 4.509834 -1.556526 -3.770512 0
M  V30 56 C -0.864268 -2.504447 -1.926986 0
M  V30 57 O -1.556824 -3.357981 -2.477542 0
M  V30 58 N -1.733012 -2.348857 -0.835808 0
M  V30 59 H 2.421607 -4.448029 6.065455 0
M  V30 60 H 2.916026 -5.669728 4.750749 0
M  V30 61 H 1.209038 -5.220580 5.026730 0
M  V30 62 H 2.063764 -2.785816 1.709817 0
M  V30 63 H 3.479736 -1.978916 3.585522 0
M  V30 64 H 2.217016 -0.879508 4.115738 0
M  V30 65 H 3.932397 0.400905 3.082587 0
M  V30 66 H 1.465320 0.410486 1.252701 0
M  V30 67 H 2.600859 1.776785 1.688121 0
M  V30 68 H 1.595045 0.973327 2.924482 0
M  V30 69 H 3.758849 -1.406754 0.611556 0
M  V30 70 H 4.265206 0.286218 0.590590 0
M  V30 71 H 5.166247 -0.819793 1.656422 0
M  V30 72 H -0.127387 -0.771280 2.593029 0
M  V30 73 H -1.265464 -0.469047 0.064469 0
M  V30 74 H -3.319907 -1.003503 1.142509 0
M  V30 75 H -2.088361 -1.677970 2.369929 0
M  V30 76 H -3.910825 -3.316662 1.448121 0
M  V30 77 H -2.201530 -3.841153 1.184549 0
M  V30 78 H -3.380489 -3.733892 -0.982634 0
M  V30 79 H -3.304769 -1.234438 -2.495583 0
M  V30 80 H -4.640600 -2.370869 -2.384347 0
M  V30 81 H -5.453442 -0.217795 -3.122203 0
M  V30 82 H -6.180961 -0.703250 -1.595627 0
M  V30 83 H -5.496362 1.413926 -0.722099 0
M  V30 84 H -3.592920 3.300797 0.077300 0
M  V30 85 H -4.125734 4.113458 -1.391431 0
M  V30 86 H -1.957944 3.449713 -2.508106 0
M  V30 87 H -1.868603 4.585248 -1.103046 0
M  V30 88 H -1.870540 1.603349 -0.773632 0
M  V30 89 H -0.395601 3.589970 0.630001 0
M  V30 90 H 0.321987 4.262395 2.513375 0
M  V30 91 H 0.823211 5.178161 4.774395 0
M  V30 92 H -0.494179 4.442419 6.765643 0
M  V30 93 H -2.779199 1.904893 4.216191 0
M  V30 94 H 1.336934 2.064785 -0.465577 0
M  V30 95 H 1.432082 2.115239 -3.590193 0
M  V30 96 H 3.963097 0.992573 -2.254958 0
M  V30 97 H 3.748833 1.530122 -3.939905 0
M  V30 98 H 3.790045 3.134358 -1.628788 0
M  V30 99 H 1.085034 -0.436104 -1.371944 0
M  V30 100 H 0.030070 -1.974635 -3.733581 0
M  V30 101 H 1.853431 -3.512739 -1.892895 0
M  V30 102 H 1.470340 -5.332945 -3.441005 0
M  V30 103 H 0.240653 -5.103659 -2.227243 0
M  V30 104 H -0.055414 -4.591834 -3.995238 0
M  V30 105 H 4.183124 -4.143423 -5.434927 0
M  V30 106 H 4.969624 -1.486021 -4.628712 0
M  V30 END ATOM
M  V30 BEGIN BOND
M  V30 1 1 1 2
M  V30 2 1 2 3
M  V30 3 2 3 4
M  V30 4 1 3 5
M  V30 5 1 5 6
M  V30 6 1 6 7
M  V30 7 1 7 8
M  V30 8 1 7 9
M  V30 9 1 5 10
M  V30 10 1 10 11
M  V30 11 2 11 12
M  V30 12 1 11 13
M  V30 13 1 13 14
M  V30 14 1 14 15
M  V30 15 1 15 16
M  V30 16 1 16 17
M  V30 17 1 17 18
M  V30 18 1 18 19
M  V30 19 1 19 20
M  V30 20 1 20 21
M  V30 21 2 21 22
M  V30 22 1 21 23
M  V30 23 1 23 24
M  V30 24 1 24 25
M  V30 25 1 25 26
M  V30 26 1 26 27
M  V30 27 2 27 28
M  V30 28 1 27 29
M  V30 29 2 29 30
M  V30 30 1 30 31
M  V30 31 2 31 32
M  V30 32 1 32 33
M  V30 33 1 33 34
M  V30 34 1 34 35
M  V30 35 1 34 36
M  V30 36 1 34 37
M  V30 37 2 33 38
M  V30 38 1 25 39
M  V30 39 2 39 40
M  V30 40 1 39 41
M  V30 41 1 41 42
M  V30 42 1 42 43
M  V30 43 1 43 44
M  V30 44 1 42 45
M  V30 45 2 45 46
M  V30 46 1 45 47
M  V30 47 1 47 48
M  V30 48 1 48 49
M  V30 49 1 49 50
M  V30 50 1 49 51
M  V30 51 1 51 52
M  V30 52 2 52 53
M  V30 53 1 52 54
M  V30 54 1 52 55
M  V30 55 1 48 56
M  V30 56 2 56 57
M  V30 57 1 56 58
M  V30 58 1 58 13
M  V30 59 1 58 16
M  V30 60 1 38 29
M  V30 61 1 1 59
M  V30 62 1 1 60
M  V30 63 1 1 61
M  V30 64 1 5 62 CFG=3
M  V30 65 1 6 63
M  V30 66 1 6 64
M  V30 67 1 7 65
M  V30 68 1 8 66
M  V30 69 1 8 67
M  V30 70 1 8 68
M  V30 71 1 9 69
M  V30 72 1 9 70
M  V30 73 1 9 71
M  V30 74 1 10 72
M  V30 75 1 13 73 CFG=3
M  V30 76 1 14 74
M  V30 77 1 14 75
M  V30 78 1 15 76
M  V30 79 1 15 77
M  V30 80 1 16 78 CFG=3
M  V30 81 1 18 79
M  V30 82 1 18 80
M  V30 83 1 19 81
M  V30 84 1 19 82
M  V30 85 1 20 83
M  V30 86 1 23 84
M  V30 87 1 23 85
M  V30 88 1 24 86
M  V30 89 1 24 87
M  V30 90 1 25 88 CFG=1
M  V30 91 1 26 89
M  V30 92 1 30 90
M  V30 93 1 31 91
M  V30 94 1 32 92
M  V30 95 1 38 93
M  V30 96 1 41 94
M  V30 97 1 42 95 CFG=3
M  V30 98 1 43 96
M  V30 99 1 43 97
M  V30 100 1 44 98
M  V30 101 1 47 99
M  V30 102 1 48 100 CFG=3
M  V30 103 1 49 101 CFG=1
M  V30 104 1 50 102
M  V30 105 1 50 103
M  V30 106 1 50 104
M  V30 107 1 54 105
M  V30 108 1 55 106
M  V30 END BOND
M  V30 END CTAB
M  END
>  <Dataset>  (526) 
ChEMBL_Kinases

>  <Ligand_Instance>  (526) 
nan

>  <PDB_ID>  (526) 
nan

>  <Standardized_SMILES>  (526) 
COC(=O)[C@H](CC(C)C)NC(=O)[C@@H]1CC[C@H]2OCCNC(=O)CC[C@H](NC(=O)c3cccc(C(F)(F)F)c3)C(=O)N[C@@H](CO)C(=O)N[C@@H]([C@@H](C)OP(=O)(O)O)C(=O)N21

>  <Name>  (526) 
nan

>  <Pocket>  (526) 
nan

>  <ATP_Site>  (526) 
nan

>  <Peripheral>  (526) 
nan

>  <Num_H_Atoms_ProtBoundConf>  (526) 
nan

>  <Num_Resolved_Atoms>  (526) 
nan

>  <Num_Not_Resolved_Atoms>  (526) 
nan

$$$$
CHEMBL5089204
     RDKit          3D

  0  0  0  0  0  0  0  0  0  0999 V3000
M  V30 BEGIN CTAB
M  V30 COUNTS 47 48 0 0 0
M  V30 BEGIN ATOM
M  V30 1 C 5.297046 -5.696814 0.303922 0
M  V30 2 O 4.536946 -4.634020 -0.234780 0
M  V30 3 C 3.556681 -4.062115 0.562982 0
M  V30 4 C 2.917022 -3.034096 -0.140384 0
M  V30 5 C 1.884728 -2.304677 0.461953 0
M  V30 6 C 1.181629 -1.223206 -0.222870 0
M  V30 7 C 1.036958 -1.337334 -1.588994 0
M  V30 8 C 0.370912 -0.299948 -2.196468 0
M  V30 9 C -0.159241 0.821202 -1.602547 0
M  V30 10 O -0.816532 1.896931 -2.010625 0
M  V30 11 C -1.313182 2.487328 -3.113112 0
M  V30 12 C -2.368105 1.856686 -3.947736 0 CFG=1
M  V30 13 N -1.935585 0.574295 -4.488821 0
M  V30 14 C -3.767785 1.850701 -3.501643 0
M  V30 15 C -4.192626 1.188242 -2.256712 0
M  V30 16 C -5.731580 1.320987 -2.084098 0
M  V30 17 C -3.638539 1.889870 -1.048523 0
M  V30 18 C 0.031344 0.861777 -0.208264 0
M  V30 19 C -0.409359 1.929619 0.656824 0
M  V30 20 N -0.770107 2.794786 1.333895 0
M  V30 21 C 0.698733 -0.151793 0.494736 0
M  V30 22 C 1.546224 -2.651829 1.755111 0
M  V30 23 C 2.195669 -3.671750 2.424535 0
M  V30 24 N 3.182189 -4.353183 1.819695 0
M  V30 25 H 6.141946 -5.272724 0.895950 0
M  V30 26 H 4.709688 -6.385154 0.934909 0
M  V30 27 H 5.721797 -6.253476 -0.575486 0
M  V30 28 H 3.121815 -2.700645 -1.153363 0
M  V30 29 H 1.399276 -2.152085 -2.169043 0
M  V30 30 H 0.251563 -0.345498 -3.248626 0
M  V30 31 H -1.627757 3.552620 -2.829552 0
M  V30 32 H -0.484243 2.750354 -3.871764 0
M  V30 33 H -2.384386 2.512248 -4.907688 0
M  V30 34 H -2.200911 -0.221554 -3.870258 0
M  V30 35 H -2.382393 0.399331 -5.414592 0
M  V30 36 H -4.109252 2.943513 -3.530756 0
M  V30 37 H -4.427189 1.413437 -4.326333 0
M  V30 38 H -3.905261 0.123370 -2.180862 0
M  V30 39 H -5.925691 2.395233 -2.208061 0
M  V30 40 H -5.924006 1.016900 -1.037257 0
M  V30 41 H -6.277315 0.674664 -2.767345 0
M  V30 42 H -4.506452 2.116995 -0.345345 0
M  V30 43 H -2.925544 1.236381 -0.491802 0
M  V30 44 H -3.259186 2.869009 -1.320189 0
M  V30 45 H 0.865550 -0.164748 1.541211 0
M  V30 46 H 0.750572 -2.136109 2.306013 0
M  V30 47 H 1.972103 -3.988387 3.441574 0
M  V30 END ATOM
M  V30 BEGIN BOND
M  V30 1 1 1 2
M  V30 2 1 2 3
M  V30 3 2 3 4
M  V30 4 1 4 5
M  V30 5 1 5 6
M  V30 6 2 6 7
M  V30 7 1 7 8
M  V30 8 2 8 9
M  V30 9 1 9 10
M  V30 10 1 10 11
M  V30 11 1 11 12
M  V30 12 1 12 13
M  V30 13 1 12 14
M  V30 14 1 14 15
M  V30 15 1 15 16
M  V30 16 1 15 17
M  V30 17 1 9 18
M  V30 18 1 18 19
M  V30 19 3 19 20
M  V30 20 2 18 21
M  V30 21 2 5 22
M  V30 22 1 22 23
M  V30 23 2 23 24
M  V30 24 1 24 3
M  V30 25 1 21 6
M  V30 26 1 1 25
M  V30 27 1 1 26
M  V30 28 1 1 27
M  V30 29 1 4 28
M  V30 30 1 7 29
M  V30 31 1 8 30
M  V30 32 1 11 31
M  V30 33 1 11 32
M  V30 34 1 12 33 CFG=3
M  V30 35 1 13 34
M  V30 36 1 13 35
M  V30 37 1 14 36
M  V30 38 1 14 37
M  V30 39 1 15 38
M  V30 40 1 16 39
M  V30 41 1 16 40
M  V30 42 1 16 41
M  V30 43 1 17 42
M  V30 44 1 17 43
M  V30 45 1 17 44
M  V30 46 1 21 45
M  V30 47 1 22 46
M  V30 48 1 23 47
M  V30 END BOND
M  V30 END CTAB
M  END
>  <Dataset>  (527) 
ChEMBL_Kinases

>  <Ligand_Instance>  (527) 
nan

>  <PDB_ID>  (527) 
nan

>  <Standardized_SMILES>  (527) 
COc1cc(-c2ccc(OC[C@@H](N)CC(C)C)c(C#N)c2)ccn1

>  <Name>  (527) 
nan

>  <Pocket>  (527) 
nan

>  <ATP_Site>  (527) 
nan

>  <Peripheral>  (527) 
nan

>  <Num_H_Atoms_ProtBoundConf>  (527) 
nan

>  <Num_Resolved_Atoms>  (527) 
nan

>  <Num_Not_Resolved_Atoms>  (527) 
nan

$$$$
CHEMBL5089214
     RDKit          3D

  0  0  0  0  0  0  0  0  0  0999 V3000
M  V30 BEGIN CTAB
M  V30 COUNTS 66 70 0 0 0
M  V30 BEGIN ATOM
M  V30 1 C 3.860170 -3.990162 2.269087 0
M  V30 2 C 4.508555 -2.625786 2.475653 0
M  V30 3 N 3.551500 -1.605252 2.204680 0
M  V30 4 C 2.480966 -1.559400 3.184037 0
M  V30 5 C 2.956102 -1.104089 4.545535 0
M  V30 6 C 3.580083 -0.697956 1.109803 0
M  V30 7 C 4.582368 -0.743174 0.165291 0
M  V30 8 N 4.552955 0.157767 -0.862149 0
M  V30 9 C 3.572965 1.063582 -0.950110 0
M  V30 10 C 3.501362 1.990771 -1.965491 0
M  V30 11 C 2.505126 2.928665 -2.073591 0
M  V30 12 C 1.500603 2.976776 -1.130668 0
M  V30 13 C 0.350485 3.868494 -1.029544 0
M  V30 14 N -0.869009 3.354160 -0.736573 0
M  V30 15 C -1.982786 4.070733 -0.620122 0
M  V30 16 N -3.206351 3.416464 -0.305754 0
M  V30 17 C -3.233817 2.009387 -0.122396 0
M  V30 18 C -4.393032 1.325399 0.191131 0
M  V30 19 C -4.381644 -0.042934 0.361598 0
M  V30 20 C -3.236253 -0.811825 0.234183 0
M  V30 21 N -3.181690 -2.201626 0.403674 0
M  V30 22 C -4.241481 -3.055847 0.845219 0
M  V30 23 C -4.536498 -4.064328 -0.247431 0
M  V30 24 N -3.313808 -4.590738 -0.821220 0
M  V30 25 C -3.440732 -5.974163 -1.206236 0
M  V30 26 C -2.175333 -4.344022 0.047337 0
M  V30 27 C -1.907889 -2.856736 0.091661 0
M  V30 28 C -2.122768 -0.065138 -0.078697 0
M  V30 29 N -2.099471 1.266842 -0.251423 0
M  V30 30 N -1.939219 5.403856 -0.798421 0
M  V30 31 C -0.748359 5.998212 -1.096489 0
M  V30 32 C 0.418005 5.241585 -1.217278 0
M  V30 33 F 1.610163 5.774463 -1.508287 0
M  V30 34 C 1.542760 2.048249 -0.084926 0
M  V30 35 C 2.558827 1.117404 -0.004170 0
M  V30 36 N 2.609192 0.214307 1.005599 0
M  V30 37 H 4.617738 -4.739859 1.942013 0
M  V30 38 H 3.117025 -3.929773 1.445837 0
M  V30 39 H 3.424283 -4.383548 3.202716 0
M  V30 40 H 5.412259 -2.623737 1.861990 0
M  V30 41 H 4.783847 -2.570213 3.558773 0
M  V30 42 H 1.738922 -0.803612 2.834244 0
M  V30 43 H 1.925282 -2.516895 3.235571 0
M  V30 44 H 3.367221 -1.948691 5.135528 0
M  V30 45 H 3.723023 -0.314099 4.427458 0
M  V30 46 H 2.075853 -0.623066 5.048460 0
M  V30 47 H 5.379010 -1.451198 0.201836 0
M  V30 48 H 4.265512 2.002201 -2.739497 0
M  V30 49 H 2.395011 3.673877 -2.837375 0
M  V30 50 H -4.108450 3.928282 -0.200035 0
M  V30 51 H -5.275651 1.937400 0.287921 0
M  V30 52 H -5.313319 -0.500979 0.603602 0
M  V30 53 H -4.008962 -3.553745 1.810965 0
M  V30 54 H -5.158756 -2.465425 1.006270 0
M  V30 55 H -5.167540 -3.574370 -1.014248 0
M  V30 56 H -5.135530 -4.889142 0.191989 0
M  V30 57 H -3.155036 -6.039011 -2.289780 0
M  V30 58 H -2.713810 -6.599241 -0.652819 0
M  V30 59 H -4.487264 -6.352879 -1.109738 0
M  V30 60 H -2.348812 -4.664181 1.083100 0
M  V30 61 H -1.259636 -4.826453 -0.331456 0
M  V30 62 H -1.139961 -2.666236 0.846604 0
M  V30 63 H -1.632958 -2.459036 -0.911877 0
M  V30 64 H -1.150268 -0.564586 -0.206484 0
M  V30 65 H -0.658531 7.064800 -1.249517 0
M  V30 66 H 0.814235 1.985176 0.711673 0
M  V30 END ATOM
M  V30 BEGIN BOND
M  V30 1 1 1 2
M  V30 2 1 2 3
M  V30 3 1 3 4
M  V30 4 1 4 5
M  V30 5 1 3 6
M  V30 6 2 6 7
M  V30 7 1 7 8
M  V30 8 2 8 9
M  V30 9 1 9 10
M  V30 10 2 10 11
M  V30 11 1 11 12
M  V30 12 1 12 13
M  V30 13 2 13 14
M  V30 14 1 14 15
M  V30 15 1 15 16
M  V30 16 1 16 17
M  V30 17 2 17 18
M  V30 18 1 18 19
M  V30 19 2 19 20
M  V30 20 1 20 21
M  V30 21 1 21 22
M  V30 22 1 22 23
M  V30 23 1 23 24
M  V30 24 1 24 25
M  V30 25 1 24 26
M  V30 26 1 26 27
M  V30 27 1 20 28
M  V30 28 2 28 29
M  V30 29 2 15 30
M  V30 30 1 30 31
M  V30 31 2 31 32
M  V30 32 1 32 33
M  V30 33 2 12 34
M  V30 34 1 34 35
M  V30 35 2 35 36
M  V30 36 1 36 6
M  V30 37 1 35 9
M  V30 38 1 32 13
M  V30 39 1 29 17
M  V30 40 1 27 21
M  V30 41 1 1 37
M  V30 42 1 1 38
M  V30 43 1 1 39
M  V30 44 1 2 40
M  V30 45 1 2 41
M  V30 46 1 4 42
M  V30 47 1 4 43
M  V30 48 1 5 44
M  V30 49 1 5 45
M  V30 50 1 5 46
M  V30 51 1 7 47
M  V30 52 1 10 48
M  V30 53 1 11 49
M  V30 54 1 16 50
M  V30 55 1 18 51
M  V30 56 1 19 52
M  V30 57 1 22 53
M  V30 58 1 22 54
M  V30 59 1 23 55
M  V30 60 1 23 56
M  V30 61 1 25 57
M  V30 62 1 25 58
M  V30 63 1 25 59
M  V30 64 1 26 60
M  V30 65 1 26 61
M  V30 66 1 27 62
M  V30 67 1 27 63
M  V30 68 1 28 64
M  V30 69 1 31 65
M  V30 70 1 34 66
M  V30 END BOND
M  V30 END CTAB
M  END
>  <Dataset>  (528) 
ChEMBL_Kinases

>  <Ligand_Instance>  (528) 
nan

>  <PDB_ID>  (528) 
nan

>  <Standardized_SMILES>  (528) 
CCN(CC)c1cnc2ccc(-c3nc(Nc4ccc(N5CCN(C)CC5)cn4)ncc3F)cc2n1

>  <Name>  (528) 
nan

>  <Pocket>  (528) 
nan

>  <ATP_Site>  (528) 
nan

>  <Peripheral>  (528) 
nan

>  <Num_H_Atoms_ProtBoundConf>  (528) 
nan

>  <Num_Resolved_Atoms>  (528) 
nan

>  <Num_Not_Resolved_Atoms>  (528) 
nan

$$$$
CHEMBL5089218
     RDKit          3D

  0  0  0  0  0  0  0  0  0  0999 V3000
M  V30 BEGIN CTAB
M  V30 COUNTS 30 32 0 0 0
M  V30 BEGIN ATOM
M  V30 1 N -2.327513 -0.705285 4.573478 0
M  V30 2 C -1.502340 -1.415482 3.658931 0
M  V30 3 C -0.855477 -0.816408 2.599619 0
M  V30 4 C -0.049546 -1.470736 1.694643 0
M  V30 5 C 0.607734 -0.762088 0.587944 0
M  V30 6 C 1.827127 -1.267351 0.175080 0
M  V30 7 C 2.529675 -0.665167 -0.867658 0
M  V30 8 C 1.933465 0.441587 -1.440307 0
M  V30 9 O 2.568038 1.034989 -2.426605 0
M  V30 10 C 2.089927 2.092192 -3.038487 0
M  V30 11 C 0.888831 2.694103 -2.725544 0
M  V30 12 C 0.222227 2.071393 -1.690306 0
M  V30 13 O -0.884003 2.498231 -1.287421 0
M  V30 14 C 0.702280 0.958274 -1.029358 0
M  V30 15 C 0.019994 0.344289 0.009509 0
M  V30 16 C 0.141067 -2.830087 1.837174 0
M  V30 17 C -0.508241 -3.413628 2.895222 0
M  V30 18 N -0.386441 -4.809709 3.142892 0
M  V30 19 N -1.289068 -2.741969 3.760946 0
M  V30 20 H -3.349595 -0.968812 4.687250 0
M  V30 21 H -1.936424 0.075642 5.136427 0
M  V30 22 H -0.991583 0.255183 2.467803 0
M  V30 23 H 2.292913 -2.141486 0.630801 0
M  V30 24 H 3.472381 -1.009922 -1.228227 0
M  V30 25 H 2.697496 2.516107 -3.852973 0
M  V30 26 H 0.498394 3.564540 -3.232180 0
M  V30 27 H -0.917908 0.727867 0.331562 0
M  V30 28 H 0.757929 -3.402114 1.165548 0
M  V30 29 H -1.025369 -5.230441 2.408703 0
M  V30 30 H -0.023095 -5.640852 3.638439 0
M  V30 END ATOM
M  V30 BEGIN BOND
M  V30 1 1 1 2
M  V30 2 2 2 3
M  V30 3 1 3 4
M  V30 4 1 4 5
M  V30 5 2 5 6
M  V30 6 1 6 7
M  V30 7 2 7 8
M  V30 8 1 8 9
M  V30 9 1 9 10
M  V30 10 2 10 11
M  V30 11 1 11 12
M  V30 12 2 12 13
M  V30 13 1 12 14
M  V30 14 2 14 15
M  V30 15 2 4 16
M  V30 16 1 16 17
M  V30 17 1 17 18
M  V30 18 2 17 19
M  V30 19 1 19 2
M  V30 20 1 15 5
M  V30 21 1 14 8
M  V30 22 1 1 20
M  V30 23 1 1 21
M  V30 24 1 3 22
M  V30 25 1 6 23
M  V30 26 1 7 24
M  V30 27 1 10 25
M  V30 28 1 11 26
M  V30 29 1 15 27
M  V30 30 1 16 28
M  V30 31 1 18 29
M  V30 32 1 18 30
M  V30 END BOND
M  V30 END CTAB
M  END
>  <Dataset>  (529) 
ChEMBL_Kinases

>  <Ligand_Instance>  (529) 
nan

>  <PDB_ID>  (529) 
nan

>  <Standardized_SMILES>  (529) 
Nc1cc(-c2ccc3occc(=O)c3c2)cc(N)n1

>  <Name>  (529) 
nan

>  <Pocket>  (529) 
nan

>  <ATP_Site>  (529) 
nan

>  <Peripheral>  (529) 
nan

>  <Num_H_Atoms_ProtBoundConf>  (529) 
nan

>  <Num_Resolved_Atoms>  (529) 
nan

>  <Num_Not_Resolved_Atoms>  (529) 
nan

$$$$
CHEMBL5089253
     RDKit          3D

  0  0  0  0  0  0  0  0  0  0999 V3000
M  V30 BEGIN CTAB
M  V30 COUNTS 68 72 0 0 0
M  V30 BEGIN ATOM
M  V30 1 C 1.105459 -0.332831 5.518945 0
M  V30 2 C 1.830958 -1.471052 4.873380 0
M  V30 3 N 1.718736 -1.523726 3.451824 0
M  V30 4 C 0.455218 -1.826847 2.928683 0
M  V30 5 C 0.076815 -1.303212 1.599309 0
M  V30 6 N 0.832968 -0.177648 1.117581 0
M  V30 7 C 0.816250 0.158441 -0.257886 0
M  V30 8 C 1.412666 1.286215 -0.773704 0
M  V30 9 C 1.372613 1.576374 -2.119137 0
M  V30 10 N 1.978740 2.724982 -2.658924 0
M  V30 11 C 2.643733 3.580909 -1.743032 0
M  V30 12 C 3.964389 3.587817 -1.304145 0
M  V30 13 C 4.054209 4.640126 -0.416203 0
M  V30 14 C 5.294373 5.005304 0.289825 0
M  V30 15 N 2.842691 5.229643 -0.332955 0
M  V30 16 N 2.000322 4.587964 -1.132389 0
M  V30 17 N 0.723614 0.707541 -2.911374 0
M  V30 18 C 0.128063 -0.407559 -2.440064 0
M  V30 19 N -0.562738 -1.343530 -3.232865 0
M  V30 20 C -1.202957 -2.544346 -2.804091 0 CFG=1
M  V30 21 C -0.218147 -3.509744 -2.138188 0
M  V30 22 C -1.165434 -4.503382 -1.501988 0
M  V30 23 N -2.339213 -3.724444 -1.159132 0
M  V30 24 C -3.279663 -4.441759 -0.345964 0
M  V30 25 O -2.785726 -5.575774 -0.168727 0
M  V30 26 C -4.527401 -3.846917 0.113268 0
M  V30 27 C -4.593083 -3.162685 1.332060 0
M  V30 28 C -5.754206 -2.591396 1.796771 0
M  V30 29 C -6.892639 -2.705248 1.019112 0
M  V30 30 Cl -8.433981 -2.011770 1.516941 0
M  V30 31 C -6.817478 -3.380831 -0.180104 0
M  V30 32 C -5.671741 -3.960180 -0.667260 0
M  V30 33 Cl -5.572125 -4.819679 -2.188882 0
M  V30 34 C -2.249917 -2.383094 -1.747519 0
M  V30 35 N 0.191781 -0.651286 -1.118969 0
M  V30 36 C 1.559370 0.508769 2.163558 0
M  V30 37 C 2.490515 -0.546034 2.755037 0
M  V30 38 H 0.142316 -0.073211 5.081266 0
M  V30 39 H 0.905150 -0.571771 6.594841 0
M  V30 40 H 1.721827 0.606745 5.531134 0
M  V30 41 H 2.886935 -1.460749 5.152790 0
M  V30 42 H 1.397045 -2.437811 5.259358 0
M  V30 43 H 0.312318 -2.946444 2.952362 0
M  V30 44 H -0.323160 -1.460987 3.660506 0
M  V30 45 H -1.003800 -0.967576 1.561239 0
M  V30 46 H 0.117505 -2.121394 0.851997 0
M  V30 47 H 1.932408 1.980066 -0.131096 0
M  V30 48 H 1.929546 2.917699 -3.675143 0
M  V30 49 H 4.715900 2.863837 -1.647637 0
M  V30 50 H 5.349252 4.576625 1.317143 0
M  V30 51 H 6.187272 4.709864 -0.310068 0
M  V30 52 H 5.356830 6.130319 0.341518 0
M  V30 53 H 2.658885 6.055543 0.279710 0
M  V30 54 H -0.589284 -1.090236 -4.266232 0
M  V30 55 H -1.622561 -3.084481 -3.680939 0
M  V30 56 H 0.368374 -3.018842 -1.351876 0
M  V30 57 H 0.427106 -3.986917 -2.908100 0
M  V30 58 H -1.427855 -5.228664 -2.309976 0
M  V30 59 H -0.703077 -5.009821 -0.626608 0
M  V30 60 H -3.686241 -3.101785 1.899010 0
M  V30 61 H -5.793773 -2.063629 2.740691 0
M  V30 62 H -7.686891 -3.497413 -0.827040 0
M  V30 63 H -3.228806 -2.075088 -2.169937 0
M  V30 64 H -1.909895 -1.701554 -0.951075 0
M  V30 65 H 2.227936 1.290061 1.750901 0
M  V30 66 H 0.895441 0.919243 2.953484 0
M  V30 67 H 3.231951 -0.120905 3.445904 0
M  V30 68 H 2.967091 -1.060696 1.883847 0
M  V30 END ATOM
M  V30 BEGIN BOND
M  V30 1 1 1 2
M  V30 2 1 2 3
M  V30 3 1 3 4
M  V30 4 1 4 5
M  V30 5 1 5 6
M  V30 6 1 6 7
M  V30 7 2 7 8
M  V30 8 1 8 9
M  V30 9 1 9 10
M  V30 10 1 10 11
M  V30 11 1 11 12
M  V30 12 2 12 13
M  V30 13 1 13 14
M  V30 14 1 13 15
M  V30 15 1 15 16
M  V30 16 2 9 17
M  V30 17 1 17 18
M  V30 18 1 18 19
M  V30 19 1 19 20
M  V30 20 1 20 21
M  V30 21 1 21 22
M  V30 22 1 22 23
M  V30 23 1 23 24
M  V30 24 2 24 25
M  V30 25 1 24 26
M  V30 26 2 26 27
M  V30 27 1 27 28
M  V30 28 2 28 29
M  V30 29 1 29 30
M  V30 30 1 29 31
M  V30 31 2 31 32
M  V30 32 1 32 33
M  V30 33 1 23 34
M  V30 34 2 18 35
M  V30 35 1 6 36
M  V30 36 1 36 37
M  V30 37 1 37 3
M  V30 38 1 35 7
M  V30 39 2 16 11
M  V30 40 1 34 20
M  V30 41 1 32 26
M  V30 42 1 1 38
M  V30 43 1 1 39
M  V30 44 1 1 40
M  V30 45 1 2 41
M  V30 46 1 2 42
M  V30 47 1 4 43
M  V30 48 1 4 44
M  V30 49 1 5 45
M  V30 50 1 5 46
M  V30 51 1 8 47
M  V30 52 1 10 48
M  V30 53 1 12 49
M  V30 54 1 14 50
M  V30 55 1 14 51
M  V30 56 1 14 52
M  V30 57 1 15 53
M  V30 58 1 19 54
M  V30 59 1 20 55 CFG=3
M  V30 60 1 21 56
M  V30 61 1 21 57
M  V30 62 1 22 58
M  V30 63 1 22 59
M  V30 64 1 27 60
M  V30 65 1 28 61
M  V30 66 1 31 62
M  V30 67 1 34 63
M  V30 68 1 34 64
M  V30 69 1 36 65
M  V30 70 1 36 66
M  V30 71 1 37 67
M  V30 72 1 37 68
M  V30 END BOND
M  V30 END CTAB
M  END
>  <Dataset>  (530) 
ChEMBL_Kinases

>  <Ligand_Instance>  (530) 
nan

>  <PDB_ID>  (530) 
nan

>  <Standardized_SMILES>  (530) 
CCN1CCN(c2cc(Nc3cc(C)[nH]n3)nc(N[C@H]3CCN(C(=O)c4ccc(Cl)cc4Cl)C3)n2)CC1

>  <Name>  (530) 
nan

>  <Pocket>  (530) 
nan

>  <ATP_Site>  (530) 
nan

>  <Peripheral>  (530) 
nan

>  <Num_H_Atoms_ProtBoundConf>  (530) 
nan

>  <Num_Resolved_Atoms>  (530) 
nan

>  <Num_Not_Resolved_Atoms>  (530) 
nan

$$$$
CHEMBL5089304
     RDKit          3D

  0  0  0  0  0  0  0  0  0  0999 V3000
M  V30 BEGIN CTAB
M  V30 COUNTS 30 32 0 0 0
M  V30 BEGIN ATOM
M  V30 1 N -0.633074 -4.322332 3.688044 0
M  V30 2 C -0.604066 -2.942233 3.343492 0
M  V30 3 C -0.066860 -2.582264 2.129887 0
M  V30 4 C -0.075127 -1.227524 1.870617 0
M  V30 5 C 0.486209 -0.780825 0.591578 0
M  V30 6 C 1.525174 -1.536623 0.087437 0
M  V30 7 C 2.189141 -1.286900 -1.096397 0
M  V30 8 C 1.765188 -0.183476 -1.825754 0
M  V30 9 N 2.333554 0.175798 -3.009685 0
M  V30 10 C 1.910119 1.248584 -3.703203 0
M  V30 11 C 0.862732 2.056937 -3.249867 0
M  V30 12 C 0.278551 1.700518 -2.048115 0
M  V30 13 C 0.718394 0.600288 -1.344149 0
M  V30 14 C 0.084239 0.312939 -0.155862 0
M  V30 15 C -0.597875 -0.353305 2.800801 0
M  V30 16 C -1.130064 -0.748428 4.010645 0
M  V30 17 N -1.656966 0.192815 4.936964 0
M  V30 18 N -1.111836 -2.075859 4.243436 0
M  V30 19 H -0.275987 -5.145169 4.215479 0
M  V30 20 H -1.398340 -4.839487 3.167671 0
M  V30 21 H 0.309029 -3.343107 1.486839 0
M  V30 22 H 1.905419 -2.417702 0.614109 0
M  V30 23 H 2.995241 -1.890627 -1.466952 0
M  V30 24 H 2.391305 1.499585 -4.641870 0
M  V30 25 H 0.505795 2.930149 -3.798510 0
M  V30 26 H -0.529764 2.316657 -1.689917 0
M  V30 27 H -0.733652 0.882653 0.270197 0
M  V30 28 H -0.562163 0.671160 2.514832 0
M  V30 29 H -1.385888 0.080632 5.956096 0
M  V30 30 H -2.295552 0.990004 4.685065 0
M  V30 END ATOM
M  V30 BEGIN BOND
M  V30 1 1 1 2
M  V30 2 2 2 3
M  V30 3 1 3 4
M  V30 4 1 4 5
M  V30 5 2 5 6
M  V30 6 1 6 7
M  V30 7 2 7 8
M  V30 8 1 8 9
M  V30 9 2 9 10
M  V30 10 1 10 11
M  V30 11 2 11 12
M  V30 12 1 12 13
M  V30 13 2 13 14
M  V30 14 2 4 15
M  V30 15 1 15 16
M  V30 16 1 16 17
M  V30 17 2 16 18
M  V30 18 1 18 2
M  V30 19 1 14 5
M  V30 20 1 13 8
M  V30 21 1 1 19
M  V30 22 1 1 20
M  V30 23 1 3 21
M  V30 24 1 6 22
M  V30 25 1 7 23
M  V30 26 1 10 24
M  V30 27 1 11 25
M  V30 28 1 12 26
M  V30 29 1 14 27
M  V30 30 1 15 28
M  V30 31 1 17 29
M  V30 32 1 17 30
M  V30 END BOND
M  V30 END CTAB
M  END
>  <Dataset>  (531) 
ChEMBL_Kinases

>  <Ligand_Instance>  (531) 
nan

>  <PDB_ID>  (531) 
nan

>  <Standardized_SMILES>  (531) 
Nc1cc(-c2ccc3ncccc3c2)cc(N)n1

>  <Name>  (531) 
nan

>  <Pocket>  (531) 
nan

>  <ATP_Site>  (531) 
nan

>  <Peripheral>  (531) 
nan

>  <Num_H_Atoms_ProtBoundConf>  (531) 
nan

>  <Num_Resolved_Atoms>  (531) 
nan

>  <Num_Not_Resolved_Atoms>  (531) 
nan

$$$$
CHEMBL5089345
     RDKit          3D

  0  0  0  0  0  0  0  0  0  0999 V3000
M  V30 BEGIN CTAB
M  V30 COUNTS 22 23 0 0 0
M  V30 BEGIN ATOM
M  V30 1 C -0.276692 -0.376133 3.670557 0
M  V30 2 N 0.153122 -0.266495 2.303808 0
M  V30 3 C 0.786418 -1.255702 1.645862 0
M  V30 4 N 1.182482 -2.575971 2.061021 0
M  V30 5 C 1.033543 -0.778741 0.372365 0
M  V30 6 C 1.697987 -1.492774 -0.699524 0
M  V30 7 N 2.243811 -2.050451 -1.555765 0
M  V30 8 C 0.548001 0.522811 0.236892 0
M  V30 9 C 0.526428 1.448274 -0.791387 0
M  V30 10 N 1.120553 1.038622 -2.019362 0
M  V30 11 N -0.050221 2.637468 -0.532182 0
M  V30 12 C -0.576550 2.888376 0.687656 0
M  V30 13 N -0.556498 1.979575 1.700688 0
M  V30 14 C 0.003848 0.793772 1.484415 0
M  V30 15 H -1.372911 -0.542196 3.740746 0
M  V30 16 H -0.032846 0.601952 4.171075 0
M  V30 17 H 0.297573 -1.154645 4.219342 0
M  V30 18 H 1.635328 -2.472581 2.996902 0
M  V30 19 H 0.951614 -3.356188 1.375857 0
M  V30 20 H 0.268064 1.032305 -2.647316 0
M  V30 21 H 0.324961 1.003997 -2.720967 0
M  V30 22 H -1.021489 3.867143 0.815573 0
M  V30 END ATOM
M  V30 BEGIN BOND
M  V30 1 1 1 2
M  V30 2 1 2 3
M  V30 3 1 3 4
M  V30 4 2 3 5
M  V30 5 1 5 6
M  V30 6 3 6 7
M  V30 7 1 5 8
M  V30 8 2 8 9
M  V30 9 1 9 10
M  V30 10 1 9 11
M  V30 11 2 11 12
M  V30 12 1 12 13
M  V30 13 2 13 14
M  V30 14 1 14 2
M  V30 15 1 14 8
M  V30 16 1 1 15
M  V30 17 1 1 16
M  V30 18 1 1 17
M  V30 19 1 4 18
M  V30 20 1 4 19
M  V30 21 1 10 20
M  V30 22 1 10 21
M  V30 23 1 12 22
M  V30 END BOND
M  V30 END CTAB
M  END
>  <Dataset>  (532) 
ChEMBL_Kinases

>  <Ligand_Instance>  (532) 
nan

>  <PDB_ID>  (532) 
nan

>  <Standardized_SMILES>  (532) 
Cn1c(N)c(C#N)c2c(N)ncnc21

>  <Name>  (532) 
nan

>  <Pocket>  (532) 
nan

>  <ATP_Site>  (532) 
nan

>  <Peripheral>  (532) 
nan

>  <Num_H_Atoms_ProtBoundConf>  (532) 
nan

>  <Num_Resolved_Atoms>  (532) 
nan

>  <Num_Not_Resolved_Atoms>  (532) 
nan

$$$$
CHEMBL5089367
     RDKit          3D

  0  0  0  0  0  0  0  0  0  0999 V3000
M  V30 BEGIN CTAB
M  V30 COUNTS 63 66 0 0 0
M  V30 BEGIN ATOM
M  V30 1 C 8.229197 1.337612 -1.281348 0
M  V30 2 O 7.307109 1.626616 -0.259737 0
M  V30 3 C 5.945983 1.363719 -0.375461 0
M  V30 4 O 5.495243 0.839362 -1.443355 0
M  V30 5 C 5.116337 1.724795 0.781062 0 CFG=2
M  V30 6 C 5.509889 0.994730 2.048588 0
M  V30 7 C 5.395335 -0.514371 1.912626 0
M  V30 8 S 5.899270 -1.205017 3.512766 0
M  V30 9 C 5.817324 -2.995310 3.543083 0
M  V30 10 N 3.706846 1.419577 0.571926 0
M  V30 11 C 2.640020 2.350927 0.676496 0
M  V30 12 O 2.857341 3.566225 0.973129 0
M  V30 13 C 1.245868 1.979078 0.453947 0
M  V30 14 C 0.273732 2.948840 0.593413 0
M  V30 15 C -1.083151 2.690921 0.402132 0
M  V30 16 C -1.472667 1.412834 0.058753 0
M  V30 17 C -0.488445 0.432979 -0.082145 0
M  V30 18 C 0.853533 0.700427 0.110140 0
M  V30 19 C -0.692052 -0.978032 -0.441105 0
M  V30 20 O 0.338067 -1.684553 -0.701995 0
M  V30 21 C -1.997039 -1.671894 -0.531315 0
M  V30 22 C -1.880538 -2.895695 -1.182708 0
M  V30 23 C -3.001079 -3.688446 -1.360377 0
M  V30 24 C -4.232739 -3.258841 -0.888383 0
M  V30 25 N -5.447303 -3.993565 -1.021464 0
M  V30 26 C -6.715973 -3.626360 -0.494560 0
M  V30 27 C -7.899378 -3.375624 -1.157646 0
M  V30 28 C -9.022393 -3.034263 -0.430646 0
M  V30 29 C -9.013451 -2.930900 0.953620 0
M  V30 30 F -10.151690 -2.589899 1.626926 0
M  V30 31 C -7.833256 -3.180792 1.617542 0
M  V30 32 C -6.699891 -3.524503 0.897017 0
M  V30 33 F -5.623257 -3.739451 1.718789 0
M  V30 34 C -4.338037 -2.043779 -0.243818 0
M  V30 35 C -3.224819 -1.244145 -0.061141 0
M  V30 36 C -3.464380 0.052971 0.652113 0
M  V30 37 C -2.934190 1.230185 -0.123470 0
M  V30 38 H 7.799802 0.663373 -2.067051 0
M  V30 39 H 8.623965 2.247499 -1.743245 0
M  V30 40 H 9.089954 0.779623 -0.831926 0
M  V30 41 H 5.214864 2.803815 1.011550 0
M  V30 42 H 6.532782 1.260248 2.347305 0
M  V30 43 H 4.782234 1.292388 2.833636 0
M  V30 44 H 5.949936 -0.904501 1.060894 0
M  V30 45 H 4.306167 -0.784552 1.789215 0
M  V30 46 H 6.781528 -3.473846 3.221570 0
M  V30 47 H 5.697485 -3.302378 4.622920 0
M  V30 48 H 4.954595 -3.423723 3.026747 0
M  V30 49 H 3.526468 0.426812 0.329599 0
M  V30 50 H 0.473840 3.990083 0.861704 0
M  V30 51 H -1.850210 3.454638 0.511722 0
M  V30 52 H 1.582731 -0.077176 -0.006621 0
M  V30 53 H -0.922177 -3.231246 -1.550612 0
M  V30 54 H -2.982956 -4.646196 -1.855740 0
M  V30 55 H -5.474477 -4.894507 -1.543388 0
M  V30 56 H -7.826543 -3.474629 -2.214322 0
M  V30 57 H -9.915392 -2.851508 -1.012533 0
M  V30 58 H -7.886580 -3.085530 2.684988 0
M  V30 59 H -5.223557 -1.572132 0.176649 0
M  V30 60 H -4.577628 0.172983 0.666403 0
M  V30 61 H -3.130441 0.030806 1.691553 0
M  V30 62 H -3.470210 2.123035 0.186476 0
M  V30 63 H -3.127013 1.047697 -1.200593 0
M  V30 END ATOM
M  V30 BEGIN BOND
M  V30 1 1 1 2
M  V30 2 1 2 3
M  V30 3 2 3 4
M  V30 4 1 3 5
M  V30 5 1 5 6
M  V30 6 1 6 7
M  V30 7 1 7 8
M  V30 8 1 8 9
M  V30 9 1 5 10
M  V30 10 1 10 11
M  V30 11 2 11 12
M  V30 12 1 11 13
M  V30 13 2 13 14
M  V30 14 1 14 15
M  V30 15 2 15 16
M  V30 16 1 16 17
M  V30 17 2 17 18
M  V30 18 1 17 19
M  V30 19 2 19 20
M  V30 20 1 19 21
M  V30 21 2 21 22
M  V30 22 1 22 23
M  V30 23 2 23 24
M  V30 24 1 24 25
M  V30 25 1 25 26
M  V30 26 2 26 27
M  V30 27 1 27 28
M  V30 28 2 28 29
M  V30 29 1 29 30
M  V30 30 1 29 31
M  V30 31 2 31 32
M  V30 32 1 32 33
M  V30 33 1 24 34
M  V30 34 2 34 35
M  V30 35 1 35 36
M  V30 36 1 36 37
M  V30 37 1 18 13
M  V30 38 1 35 21
M  V30 39 1 37 16
M  V30 40 1 32 26
M  V30 41 1 1 38
M  V30 42 1 1 39
M  V30 43 1 1 40
M  V30 44 1 5 41 CFG=1
M  V30 45 1 6 42
M  V30 46 1 6 43
M  V30 47 1 7 44
M  V30 48 1 7 45
M  V30 49 1 9 46
M  V30 50 1 9 47
M  V30 51 1 9 48
M  V30 52 1 10 49
M  V30 53 1 14 50
M  V30 54 1 15 51
M  V30 55 1 18 52
M  V30 56 1 22 53
M  V30 57 1 23 54
M  V30 58 1 25 55
M  V30 59 1 27 56
M  V30 60 1 28 57
M  V30 61 1 31 58
M  V30 62 1 34 59
M  V30 63 1 36 60
M  V30 64 1 36 61
M  V30 65 1 37 62
M  V30 66 1 37 63
M  V30 END BOND
M  V30 END CTAB
M  END
>  <Dataset>  (533) 
ChEMBL_Kinases

>  <Ligand_Instance>  (533) 
nan

>  <PDB_ID>  (533) 
nan

>  <Standardized_SMILES>  (533) 
COC(=O)[C@H](CCSC)NC(=O)c1ccc2c(c1)C(=O)c1ccc(Nc3ccc(F)cc3F)cc1CC2

>  <Name>  (533) 
nan

>  <Pocket>  (533) 
nan

>  <ATP_Site>  (533) 
nan

>  <Peripheral>  (533) 
nan

>  <Num_H_Atoms_ProtBoundConf>  (533) 
nan

>  <Num_Resolved_Atoms>  (533) 
nan

>  <Num_Not_Resolved_Atoms>  (533) 
nan

$$$$
CHEMBL5089102
     RDKit          3D

  0  0  0  0  0  0  0  0  0  0999 V3000
M  V30 BEGIN CTAB
M  V30 COUNTS 58 63 0 0 0
M  V30 BEGIN ATOM
M  V30 1 C -2.129349 -5.606384 1.029770 0
M  V30 2 C -1.428185 -4.912311 -0.076512 0
M  V30 3 C -0.291074 -4.106384 0.023036 0
M  V30 4 N 0.386737 -3.785137 1.229634 0
M  V30 5 C 1.546557 -2.990189 1.412518 0
M  V30 6 N 2.831010 -3.272362 1.773660 0
M  V30 7 C 3.752071 -2.303657 1.859337 0
M  V30 8 C 3.457941 -0.992806 1.592711 0
M  V30 9 C 4.361908 0.042799 1.662626 0
M  V30 10 C 4.012787 1.347178 1.380577 0
M  V30 11 Cl 5.135937 2.677813 1.464090 0
M  V30 12 C 2.709121 1.672166 1.006880 0
M  V30 13 C 2.191189 3.022309 0.671147 0
M  V30 14 C 1.660542 3.799695 1.818601 0
M  V30 15 C 0.262125 3.450650 2.216247 0
M  V30 16 N -0.634996 3.167319 1.179896 0
M  V30 17 C -1.538316 2.131718 1.547164 0
M  V30 18 C -2.555109 1.721337 0.512366 0
M  V30 19 O -3.387561 1.375125 1.608268 0
M  V30 20 C -2.823456 2.516388 2.230193 0
M  V30 21 C -0.208423 3.036477 -0.148697 0
M  V30 22 C 1.231839 3.022508 -0.465683 0
M  V30 23 C 1.840028 0.605385 0.951007 0
M  V30 24 C 2.176305 -0.700741 1.230545 0
M  V30 25 N 1.258606 -1.682845 1.147363 0
M  V30 26 C 0.069922 -3.646825 -1.223952 0
M  V30 27 N -0.847176 -4.177371 -2.043229 0
M  V30 28 N -1.732391 -4.920137 -1.393631 0
M  V30 29 C -2.862011 -5.618055 -2.005665 0
M  V30 30 C -2.762794 -6.368169 -3.250262 0
M  V30 31 C -3.255505 -4.985124 -3.380916 0
M  V30 32 H -1.497255 -6.420116 1.465916 0
M  V30 33 H -3.009083 -6.124349 0.586959 0
M  V30 34 H -2.523252 -4.916156 1.793245 0
M  V30 35 H 0.042701 -4.147958 2.142148 0
M  V30 36 H 4.743700 -2.575801 2.145139 0
M  V30 37 H 5.380123 -0.189846 1.950448 0
M  V30 38 H 3.107978 3.585189 0.328813 0
M  V30 39 H 1.708638 4.889368 1.590326 0
M  V30 40 H 2.321629 3.643355 2.694390 0
M  V30 41 H -0.127975 4.295046 2.823352 0
M  V30 42 H 0.313761 2.586251 2.944563 0
M  V30 43 H -1.124639 1.224838 2.018259 0
M  V30 44 H -3.052840 2.543715 -0.021079 0
M  V30 45 H -2.214559 0.861125 -0.090093 0
M  V30 46 H -2.836030 2.435802 3.334630 0
M  V30 47 H -3.349798 3.400018 1.818943 0
M  V30 48 H -0.700267 2.171711 -0.699258 0
M  V30 49 H -0.669516 3.919303 -0.703928 0
M  V30 50 H 1.484416 3.922122 -1.110783 0
M  V30 51 H 1.440753 2.169342 -1.179564 0
M  V30 52 H 0.820562 0.779384 0.665533 0
M  V30 53 H 0.904172 -3.002729 -1.493180 0
M  V30 54 H -3.693278 -5.852753 -1.312763 0
M  V30 55 H -3.501681 -7.179915 -3.425188 0
M  V30 56 H -1.772460 -6.601009 -3.691297 0
M  V30 57 H -2.563184 -4.259078 -3.819405 0
M  V30 58 H -4.316290 -4.715078 -3.427950 0
M  V30 END ATOM
M  V30 BEGIN BOND
M  V30 1 1 1 2
M  V30 2 2 2 3
M  V30 3 1 3 4
M  V30 4 1 4 5
M  V30 5 2 5 6
M  V30 6 1 6 7
M  V30 7 2 7 8
M  V30 8 1 8 9
M  V30 9 2 9 10
M  V30 10 1 10 11
M  V30 11 1 10 12
M  V30 12 1 12 13
M  V30 13 1 13 14
M  V30 14 1 14 15
M  V30 15 1 15 16
M  V30 16 1 16 17
M  V30 17 1 17 18
M  V30 18 1 18 19
M  V30 19 1 19 20
M  V30 20 1 16 21
M  V30 21 1 21 22
M  V30 22 2 12 23
M  V30 23 1 23 24
M  V30 24 2 24 25
M  V30 25 1 3 26
M  V30 26 2 26 27
M  V30 27 1 27 28
M  V30 28 1 28 29
M  V30 29 1 29 30
M  V30 30 1 30 31
M  V30 31 1 28 2
M  V30 32 1 31 29
M  V30 33 1 25 5
M  V30 34 1 24 8
M  V30 35 1 22 13
M  V30 36 1 20 17
M  V30 37 1 1 32
M  V30 38 1 1 33
M  V30 39 1 1 34
M  V30 40 1 4 35
M  V30 41 1 7 36
M  V30 42 1 9 37
M  V30 43 1 13 38
M  V30 44 1 14 39
M  V30 45 1 14 40
M  V30 46 1 15 41
M  V30 47 1 15 42
M  V30 48 1 17 43
M  V30 49 1 18 44
M  V30 50 1 18 45
M  V30 51 1 20 46
M  V30 52 1 20 47
M  V30 53 1 21 48
M  V30 54 1 21 49
M  V30 55 1 22 50
M  V30 56 1 22 51
M  V30 57 1 23 52
M  V30 58 1 26 53
M  V30 59 1 29 54
M  V30 60 1 30 55
M  V30 61 1 30 56
M  V30 62 1 31 57
M  V30 63 1 31 58
M  V30 END BOND
M  V30 END CTAB
M  END
>  <Dataset>  (534) 
ChEMBL_Kinases

>  <Ligand_Instance>  (534) 
nan

>  <PDB_ID>  (534) 
nan

>  <Standardized_SMILES>  (534) 
Cc1c(Nc2ncc3cc(Cl)c(C4CCN(C5COC5)CC4)cc3n2)cnn1C1CC1

>  <Name>  (534) 
nan

>  <Pocket>  (534) 
nan

>  <ATP_Site>  (534) 
nan

>  <Peripheral>  (534) 
nan

>  <Num_H_Atoms_ProtBoundConf>  (534) 
nan

>  <Num_Resolved_Atoms>  (534) 
nan

>  <Num_Not_Resolved_Atoms>  (534) 
nan

$$$$
CHEMBL583690
     RDKit          3D

  0  0  0  0  0  0  0  0  0  0999 V3000
M  V30 BEGIN CTAB
M  V30 COUNTS 39 42 0 0 0
M  V30 BEGIN ATOM
M  V30 1 C -2.548629 -0.436495 -2.164915 0
M  V30 2 C -1.442486 -1.434600 -2.273432 0
M  V30 3 C -1.685220 -2.679064 -2.784182 0
M  V30 4 O -2.985622 -2.950162 -3.183679 0
M  V30 5 C -0.697837 -3.603621 -2.893858 0
M  V30 6 C 0.583521 -3.342254 -2.502445 0
M  V30 7 C 0.798252 -2.084247 -1.993282 0
M  V30 8 C -0.157514 -1.092383 -1.851513 0
M  V30 9 N 0.111020 0.188864 -1.329036 0
M  V30 10 C 1.230195 0.921750 -0.799962 0
M  V30 11 C 1.762340 0.346557 0.487711 0
M  V30 12 N 1.095127 0.781479 1.542009 0
M  V30 13 C 1.360625 0.447695 2.812827 0
M  V30 14 C 2.458792 -0.433981 2.819880 0
M  V30 15 S 2.724246 -0.819591 4.654238 0
M  V30 16 C 1.351047 0.233446 5.171758 0
M  V30 17 C 0.914556 0.466739 6.413708 0
M  V30 18 C -0.162259 1.308931 6.644536 0
M  V30 19 C -0.694313 1.844290 5.491274 0
M  V30 20 Cl -2.073514 2.927132 5.741915 0
M  V30 21 C -0.259761 1.616355 4.208562 0
M  V30 22 C 0.812197 0.774301 4.017795 0
M  V30 23 C 3.192564 -0.921718 1.760795 0
M  V30 24 O 4.131828 -1.696713 1.984797 0
M  V30 25 N 2.804018 -0.494585 0.551252 0
M  V30 26 H -2.929092 -0.332298 -1.147276 0
M  V30 27 H -2.240442 0.531568 -2.643240 0
M  V30 28 H -3.410245 -0.802934 -2.773733 0
M  V30 29 H -3.444482 -3.825345 -3.010890 0
M  V30 30 H -0.982284 -4.547216 -3.304389 0
M  V30 31 H 1.366344 -4.078225 -2.590625 0
M  V30 32 H 1.814426 -1.897721 -1.695162 0
M  V30 33 H -0.738877 0.831934 -1.297459 0
M  V30 34 H 1.088205 1.999008 -0.737987 0
M  V30 35 H 2.047766 0.794370 -1.580794 0
M  V30 36 H 1.411056 -0.009097 7.238113 0
M  V30 37 H -0.550009 1.527598 7.626743 0
M  V30 38 H -0.777076 2.105479 3.420780 0
M  V30 39 H 3.308500 -0.806050 -0.284721 0
M  V30 END ATOM
M  V30 BEGIN BOND
M  V30 1 1 1 2
M  V30 2 2 2 3
M  V30 3 1 3 4
M  V30 4 1 3 5
M  V30 5 2 5 6
M  V30 6 1 6 7
M  V30 7 2 7 8
M  V30 8 1 8 9
M  V30 9 1 9 10
M  V30 10 1 10 11
M  V30 11 2 11 12
M  V30 12 1 12 13
M  V30 13 2 13 14
M  V30 14 1 14 15
M  V30 15 1 15 16
M  V30 16 2 16 17
M  V30 17 1 17 18
M  V30 18 2 18 19
M  V30 19 1 19 20
M  V30 20 1 19 21
M  V30 21 2 21 22
M  V30 22 1 14 23
M  V30 23 2 23 24
M  V30 24 1 23 25
M  V30 25 1 8 2
M  V30 26 1 25 11
M  V30 27 1 22 13
M  V30 28 1 22 16
M  V30 29 1 1 26
M  V30 30 1 1 27
M  V30 31 1 1 28
M  V30 32 1 4 29
M  V30 33 1 5 30
M  V30 34 1 6 31
M  V30 35 1 7 32
M  V30 36 1 9 33
M  V30 37 1 10 34
M  V30 38 1 10 35
M  V30 39 1 17 36
M  V30 40 1 18 37
M  V30 41 1 21 38
M  V30 42 1 25 39
M  V30 END BOND
M  V30 END CTAB
M  END
>  <Dataset>  (535) 
ChEMBL_Kinases

>  <Ligand_Instance>  (535) 
nan

>  <PDB_ID>  (535) 
nan

>  <Standardized_SMILES>  (535) 
Cc1c(O)cccc1NCc1nc2c(sc3ccc(Cl)cc32)c(=O)[nH]1

>  <Name>  (535) 
nan

>  <Pocket>  (535) 
nan

>  <ATP_Site>  (535) 
nan

>  <Peripheral>  (535) 
nan

>  <Num_H_Atoms_ProtBoundConf>  (535) 
nan

>  <Num_Resolved_Atoms>  (535) 
nan

>  <Num_Not_Resolved_Atoms>  (535) 
nan

$$$$
CHEMBL5091052
     RDKit          3D

  0  0  0  0  0  0  0  0  0  0999 V3000
M  V30 BEGIN CTAB
M  V30 COUNTS 65 69 0 0 0
M  V30 BEGIN ATOM
M  V30 1 N 6.402653 2.443517 1.470816 0
M  V30 2 C 6.361277 3.447295 2.477927 0
M  V30 3 C 7.421421 3.349124 3.354815 0
M  V30 4 C 7.582871 4.221192 4.410428 0
M  V30 5 C 6.638703 5.215546 4.572236 0
M  V30 6 C 5.570030 5.333594 3.708173 0
M  V30 7 C 5.415248 4.457078 2.654118 0
M  V30 8 N 4.372665 4.452149 1.684046 0
M  V30 9 C 3.374901 3.517730 1.291295 0
M  V30 10 C 2.533212 3.869267 0.267703 0
M  V30 11 C 1.586890 2.921744 -0.066133 0
M  V30 12 C 1.494224 1.725627 0.572499 0
M  V30 13 C 2.365048 1.392493 1.612969 0
M  V30 14 C 3.323010 2.318639 1.971021 0
M  V30 15 C 2.372140 0.126019 2.391002 0
M  V30 16 C 2.386309 -1.106698 1.548168 0
M  V30 17 C 1.009775 -1.370610 1.054302 0
M  V30 18 C 0.568824 -2.654014 1.299013 0
M  V30 19 C -0.709622 -3.052204 0.890882 0
M  V30 20 C -1.577763 -2.203793 0.237425 0
M  V30 21 C -2.887853 -2.706890 -0.148881 0
M  V30 22 O -3.121224 -3.910939 0.157540 0
M  V30 23 N -3.873131 -1.952721 -0.820748 0
M  V30 24 C -5.186830 -2.410315 -1.225054 0
M  V30 25 C -5.004590 -3.573968 -2.182261 0
M  V30 26 N -6.301349 -4.069741 -2.619115 0
M  V30 27 C -6.154395 -5.182925 -3.535277 0
M  V30 28 C -6.074683 -6.445503 -2.689187 0
M  V30 29 O -7.322936 -6.710775 -2.179067 0
M  V30 30 C -8.055630 -5.582270 -1.825369 0
M  V30 31 C -7.152728 -4.404877 -1.511699 0
M  V30 32 C -1.106170 -0.929117 0.008655 0
M  V30 33 C 0.148859 -0.513529 0.401025 0
M  V30 34 C 0.408424 0.877697 0.043620 0
M  V30 35 O -0.365166 1.404785 -0.793660 0
M  V30 36 H 6.517578 2.876863 0.537287 0
M  V30 37 H 6.336460 1.413493 1.557015 0
M  V30 38 H 8.219410 2.594279 3.307023 0
M  V30 39 H 8.414582 4.166685 5.121746 0
M  V30 40 H 6.720127 5.936499 5.396847 0
M  V30 41 H 4.797546 6.097974 3.789456 0
M  V30 42 H 4.472251 5.387852 1.237932 0
M  V30 43 H 2.612543 4.824055 -0.236949 0
M  V30 44 H 0.879951 3.107475 -0.859186 0
M  V30 45 H 3.969122 2.013990 2.778897 0
M  V30 46 H 1.431991 0.171436 3.013994 0
M  V30 47 H 3.277458 0.156350 3.049599 0
M  V30 48 H 2.769103 -1.959605 2.114877 0
M  V30 49 H 3.081088 -0.907093 0.684131 0
M  V30 50 H 1.236537 -3.353092 1.817258 0
M  V30 51 H -0.952550 -4.091437 1.137412 0
M  V30 52 H -3.564373 -0.975638 -1.017895 0
M  V30 53 H -5.718342 -1.573424 -1.679259 0
M  V30 54 H -5.740336 -2.846956 -0.350223 0
M  V30 55 H -4.398262 -4.380294 -1.726636 0
M  V30 56 H -4.448176 -3.199174 -3.051211 0
M  V30 57 H -7.071119 -5.204132 -4.188414 0
M  V30 58 H -5.295996 -5.053080 -4.202310 0
M  V30 59 H -5.756883 -7.321119 -3.301359 0
M  V30 60 H -5.363389 -6.218951 -1.859376 0
M  V30 61 H -8.712638 -5.295689 -2.683883 0
M  V30 62 H -8.629092 -5.801167 -0.900151 0
M  V30 63 H -6.622164 -4.676461 -0.581119 0
M  V30 64 H -7.832271 -3.557406 -1.283806 0
M  V30 65 H -1.753632 -0.232644 -0.500135 0
M  V30 END ATOM
M  V30 BEGIN BOND
M  V30 1 1 1 2
M  V30 2 2 2 3
M  V30 3 1 3 4
M  V30 4 2 4 5
M  V30 5 1 5 6
M  V30 6 2 6 7
M  V30 7 1 7 8
M  V30 8 1 8 9
M  V30 9 2 9 10
M  V30 10 1 10 11
M  V30 11 2 11 12
M  V30 12 1 12 13
M  V30 13 2 13 14
M  V30 14 1 13 15
M  V30 15 1 15 16
M  V30 16 1 16 17
M  V30 17 2 17 18
M  V30 18 1 18 19
M  V30 19 2 19 20
M  V30 20 1 20 21
M  V30 21 2 21 22
M  V30 22 1 21 23
M  V30 23 1 23 24
M  V30 24 1 24 25
M  V30 25 1 25 26
M  V30 26 1 26 27
M  V30 27 1 27 28
M  V30 28 1 28 29
M  V30 29 1 29 30
M  V30 30 1 30 31
M  V30 31 1 20 32
M  V30 32 2 32 33
M  V30 33 1 33 34
M  V30 34 2 34 35
M  V30 35 1 7 2
M  V30 36 1 14 9
M  V30 37 1 33 17
M  V30 38 1 34 12
M  V30 39 1 31 26
M  V30 40 1 1 36
M  V30 41 1 1 37
M  V30 42 1 3 38
M  V30 43 1 4 39
M  V30 44 1 5 40
M  V30 45 1 6 41
M  V30 46 1 8 42
M  V30 47 1 10 43
M  V30 48 1 11 44
M  V30 49 1 14 45
M  V30 50 1 15 46
M  V30 51 1 15 47
M  V30 52 1 16 48
M  V30 53 1 16 49
M  V30 54 1 18 50
M  V30 55 1 19 51
M  V30 56 1 23 52
M  V30 57 1 24 53
M  V30 58 1 24 54
M  V30 59 1 25 55
M  V30 60 1 25 56
M  V30 61 1 27 57
M  V30 62 1 27 58
M  V30 63 1 28 59
M  V30 64 1 28 60
M  V30 65 1 30 61
M  V30 66 1 30 62
M  V30 67 1 31 63
M  V30 68 1 31 64
M  V30 69 1 32 65
M  V30 END BOND
M  V30 END CTAB
M  END
>  <Dataset>  (536) 
ChEMBL_Kinases

>  <Ligand_Instance>  (536) 
nan

>  <PDB_ID>  (536) 
nan

>  <Standardized_SMILES>  (536) 
Nc1ccccc1Nc1ccc2c(c1)CCc1ccc(C(=O)NCCN3CCOCC3)cc1C2=O

>  <Name>  (536) 
nan

>  <Pocket>  (536) 
nan

>  <ATP_Site>  (536) 
nan

>  <Peripheral>  (536) 
nan

>  <Num_H_Atoms_ProtBoundConf>  (536) 
nan

>  <Num_Resolved_Atoms>  (536) 
nan

>  <Num_Not_Resolved_Atoms>  (536) 
nan

$$$$
CHEMBL5091208
     RDKit          3D

  0  0  0  0  0  0  0  0  0  0999 V3000
M  V30 BEGIN CTAB
M  V30 COUNTS 60 63 0 0 0
M  V30 BEGIN ATOM
M  V30 1 C 5.292745 -1.673743 4.964919 0
M  V30 2 S 5.806552 -0.003133 4.426302 0
M  V30 3 C 5.473326 0.147564 2.649285 0
M  V30 4 C 5.872305 1.505920 2.123473 0
M  V30 5 C 5.594155 1.641232 0.622194 0 CFG=2
M  V30 6 N 4.178189 1.453066 0.404297 0
M  V30 7 C 3.357183 2.489061 -0.118955 0
M  V30 8 O 3.827866 3.616959 -0.415955 0
M  V30 9 C 1.927919 2.306077 -0.341125 0
M  V30 10 C 1.200217 3.359890 -0.853717 0
M  V30 11 C -0.174749 3.263863 -1.095193 0
M  V30 12 C -0.814931 2.078001 -0.810139 0
M  V30 13 C -0.112219 0.985348 -0.288989 0
M  V30 14 C 1.237578 1.141581 -0.073521 0
M  V30 15 C -0.553544 -0.353484 0.089480 0
M  V30 16 O 0.233466 -1.065759 0.785462 0
M  V30 17 C -1.847438 -0.920558 -0.286063 0
M  V30 18 C -2.009092 -2.118272 0.385270 0
M  V30 19 C -3.184386 -2.823548 0.165049 0
M  V30 20 C -4.132168 -2.316517 -0.698283 0
M  V30 21 N -5.324569 -3.041584 -0.914677 0
M  V30 22 C -5.749886 -4.254002 -0.359707 0
M  V30 23 C -6.037831 -5.396294 -1.073263 0
M  V30 24 C -6.458970 -6.572107 -0.450930 0
M  V30 25 C -6.588684 -6.581753 0.927065 0
M  V30 26 F -7.001096 -7.728005 1.554273 0
M  V30 27 C -6.301536 -5.434909 1.664279 0
M  V30 28 C -5.880383 -4.264864 1.022317 0
M  V30 29 F -5.644123 -3.241414 1.890068 0
M  V30 30 C -3.992736 -1.125349 -1.378183 0
M  V30 31 C -2.822236 -0.424774 -1.157707 0
M  V30 32 C -2.698148 0.838055 -1.891553 0
M  V30 33 C -2.273910 2.021646 -1.082431 0
M  V30 34 C 6.412525 0.611652 -0.059266 0
M  V30 35 O 7.655721 0.650745 0.042551 0
M  V30 36 O 6.130859 -0.497496 -0.862646 0
M  V30 37 H 6.164750 -2.338522 4.788037 0
M  V30 38 H 4.397607 -2.007270 4.383094 0
M  V30 39 H 5.059538 -1.712471 6.036232 0
M  V30 40 H 4.395867 -0.033448 2.511619 0
M  V30 41 H 6.058848 -0.623743 2.108640 0
M  V30 42 H 5.341183 2.326409 2.607988 0
M  V30 43 H 6.969189 1.642570 2.213777 0
M  V30 44 H 5.909481 2.655885 0.332426 0
M  V30 45 H 3.784064 0.521187 0.648338 0
M  V30 46 H 1.609270 4.327598 -1.109102 0
M  V30 47 H -0.783484 4.062849 -1.495134 0
M  V30 48 H 1.784582 0.301121 0.328668 0
M  V30 49 H -1.242458 -2.477288 1.050981 0
M  V30 50 H -3.275974 -3.755489 0.706457 0
M  V30 51 H -6.083620 -2.738740 -1.559150 0
M  V30 52 H -5.926131 -5.356744 -2.158034 0
M  V30 53 H -6.685206 -7.469271 -1.010185 0
M  V30 54 H -6.423836 -5.507921 2.748657 0
M  V30 55 H -4.722643 -0.726533 -2.048365 0
M  V30 56 H -3.724962 1.085067 -2.290925 0
M  V30 57 H -2.075143 0.742324 -2.819308 0
M  V30 58 H -2.812805 1.976849 -0.112078 0
M  V30 59 H -2.601937 2.937827 -1.590968 0
M  V30 60 H 6.242523 -1.450308 -0.510780 0
M  V30 END ATOM
M  V30 BEGIN BOND
M  V30 1 1 1 2
M  V30 2 1 2 3
M  V30 3 1 3 4
M  V30 4 1 4 5
M  V30 5 1 5 6
M  V30 6 1 6 7
M  V30 7 2 7 8
M  V30 8 1 7 9
M  V30 9 2 9 10
M  V30 10 1 10 11
M  V30 11 2 11 12
M  V30 12 1 12 13
M  V30 13 2 13 14
M  V30 14 1 13 15
M  V30 15 2 15 16
M  V30 16 1 15 17
M  V30 17 2 17 18
M  V30 18 1 18 19
M  V30 19 2 19 20
M  V30 20 1 20 21
M  V30 21 1 21 22
M  V30 22 2 22 23
M  V30 23 1 23 24
M  V30 24 2 24 25
M  V30 25 1 25 26
M  V30 26 1 25 27
M  V30 27 2 27 28
M  V30 28 1 28 29
M  V30 29 1 20 30
M  V30 30 2 30 31
M  V30 31 1 31 32
M  V30 32 1 32 33
M  V30 33 1 5 34
M  V30 34 2 34 35
M  V30 35 1 34 36
M  V30 36 1 14 9
M  V30 37 1 31 17
M  V30 38 1 33 12
M  V30 39 1 28 22
M  V30 40 1 1 37
M  V30 41 1 1 38
M  V30 42 1 1 39
M  V30 43 1 3 40
M  V30 44 1 3 41
M  V30 45 1 4 42
M  V30 46 1 4 43
M  V30 47 1 5 44 CFG=3
M  V30 48 1 6 45
M  V30 49 1 10 46
M  V30 50 1 11 47
M  V30 51 1 14 48
M  V30 52 1 18 49
M  V30 53 1 19 50
M  V30 54 1 21 51
M  V30 55 1 23 52
M  V30 56 1 24 53
M  V30 57 1 27 54
M  V30 58 1 30 55
M  V30 59 1 32 56
M  V30 60 1 32 57
M  V30 61 1 33 58
M  V30 62 1 33 59
M  V30 63 1 36 60
M  V30 END BOND
M  V30 END CTAB
M  END
>  <Dataset>  (537) 
ChEMBL_Kinases

>  <Ligand_Instance>  (537) 
nan

>  <PDB_ID>  (537) 
nan

>  <Standardized_SMILES>  (537) 
CSCC[C@H](NC(=O)c1ccc2c(c1)C(=O)c1ccc(Nc3ccc(F)cc3F)cc1CC2)C(=O)O

>  <Name>  (537) 
nan

>  <Pocket>  (537) 
nan

>  <ATP_Site>  (537) 
nan

>  <Peripheral>  (537) 
nan

>  <Num_H_Atoms_ProtBoundConf>  (537) 
nan

>  <Num_Resolved_Atoms>  (537) 
nan

>  <Num_Not_Resolved_Atoms>  (537) 
nan

$$$$
CHEMBL3752265
     RDKit          3D

  0  0  0  0  0  0  0  0  0  0999 V3000
M  V30 BEGIN CTAB
M  V30 COUNTS 41 43 0 0 0
M  V30 BEGIN ATOM
M  V30 1 C 3.280115 -1.945143 1.410749 0
M  V30 2 C 4.567915 -1.615696 0.710616 0
M  V30 3 C 5.753144 -2.213579 1.036855 0
M  V30 4 Cl 5.723940 -3.412830 2.336453 0
M  V30 5 C 6.961773 -1.951383 0.430402 0
M  V30 6 C 6.950358 -0.998187 -0.593251 0
M  V30 7 C 5.782607 -0.363082 -0.964265 0
M  V30 8 C 4.612713 -0.679269 -0.310044 0
M  V30 9 C 3.372801 -0.011804 -0.696605 0
M  V30 10 C 3.217516 0.941973 -1.682104 0
M  V30 11 C 1.855153 1.251673 -1.650577 0
M  V30 12 C 1.258665 0.488728 -0.669149 0
M  V30 13 C -0.162004 0.542193 -0.346065 0
M  V30 14 O -0.852743 1.331576 -1.010751 0
M  V30 15 N -0.768081 -0.244312 0.662977 0
M  V30 16 C -2.125097 -0.279020 1.063946 0
M  V30 17 C -3.165924 0.452205 0.556018 0
M  V30 18 C -4.456987 0.378147 0.981603 0
M  V30 19 C -4.785897 -0.488421 2.002132 0
M  V30 20 S -6.388559 -0.685464 2.643552 0
M  V30 21 N -6.693109 0.393218 3.950824 0
M  V30 22 O -6.519339 -2.101867 3.151282 0
M  V30 23 O -7.411369 -0.515828 1.545245 0
M  V30 24 C -3.765816 -1.242090 2.539770 0
M  V30 25 C -2.471495 -1.138269 2.081292 0
M  V30 26 O 2.191825 -0.246917 -0.126980 0
M  V30 27 H 3.528984 -2.707301 2.182692 0
M  V30 28 H 2.878483 -1.070247 1.950033 0
M  V30 29 H 2.563302 -2.424661 0.716463 0
M  V30 30 H 7.887174 -2.454775 0.724528 0
M  V30 31 H 7.885539 -0.756145 -1.104690 0
M  V30 32 H 5.793227 0.367871 -1.754440 0
M  V30 33 H 3.989190 1.362157 -2.341351 0
M  V30 34 H 1.411107 1.989467 -2.326122 0
M  V30 35 H -0.071246 -0.858238 1.137142 0
M  V30 36 H -2.976781 1.140200 -0.234917 0
M  V30 37 H -5.242772 0.975662 0.549202 0
M  V30 38 H -6.901483 1.352343 3.595054 0
M  V30 39 H -7.497100 0.049351 4.513169 0
M  V30 40 H -3.956144 -1.940427 3.342161 0
M  V30 41 H -1.700755 -1.767858 2.552232 0
M  V30 END ATOM
M  V30 BEGIN BOND
M  V30 1 1 1 2
M  V30 2 2 2 3
M  V30 3 1 3 4
M  V30 4 1 3 5
M  V30 5 2 5 6
M  V30 6 1 6 7
M  V30 7 2 7 8
M  V30 8 1 8 9
M  V30 9 2 9 10
M  V30 10 1 10 11
M  V30 11 2 11 12
M  V30 12 1 12 13
M  V30 13 2 13 14
M  V30 14 1 13 15
M  V30 15 1 15 16
M  V30 16 2 16 17
M  V30 17 1 17 18
M  V30 18 2 18 19
M  V30 19 1 19 20
M  V30 20 1 20 21
M  V30 21 2 20 22
M  V30 22 2 20 23
M  V30 23 1 19 24
M  V30 24 2 24 25
M  V30 25 1 12 26
M  V30 26 1 8 2
M  V30 27 1 26 9
M  V30 28 1 25 16
M  V30 29 1 1 27
M  V30 30 1 1 28
M  V30 31 1 1 29
M  V30 32 1 5 30
M  V30 33 1 6 31
M  V30 34 1 7 32
M  V30 35 1 10 33
M  V30 36 1 11 34
M  V30 37 1 15 35
M  V30 38 1 17 36
M  V30 39 1 18 37
M  V30 40 1 21 38
M  V30 41 1 21 39
M  V30 42 1 24 40
M  V30 43 1 25 41
M  V30 END BOND
M  V30 END CTAB
M  END
>  <Dataset>  (538) 
ChEMBL_Kinases

>  <Ligand_Instance>  (538) 
nan

>  <PDB_ID>  (538) 
nan

>  <Standardized_SMILES>  (538) 
Cc1c(Cl)cccc1-c1ccc(C(=O)Nc2ccc(S(N)(=O)=O)cc2)o1

>  <Name>  (538) 
nan

>  <Pocket>  (538) 
nan

>  <ATP_Site>  (538) 
nan

>  <Peripheral>  (538) 
nan

>  <Num_H_Atoms_ProtBoundConf>  (538) 
nan

>  <Num_Resolved_Atoms>  (538) 
nan

>  <Num_Not_Resolved_Atoms>  (538) 
nan

$$$$
CHEMBL375220
     RDKit          3D

  0  0  0  0  0  0  0  0  0  0999 V3000
M  V30 BEGIN CTAB
M  V30 COUNTS 39 44 0 0 0
M  V30 BEGIN ATOM
M  V30 1 O 0.416650 -4.183343 2.546972 0
M  V30 2 C 0.031022 -3.424002 1.647293 0
M  V30 3 N -0.770745 -4.043766 0.656968 0
M  V30 4 C -1.161006 -3.063847 -0.338220 0
M  V30 5 C -0.495180 -1.830847 0.196657 0
M  V30 6 C 0.208433 -2.023937 1.360804 0
M  V30 7 C 0.866416 -1.008401 1.970620 0
M  V30 8 C 0.818134 0.241314 1.395742 0
M  V30 9 C 0.121255 0.470341 0.227611 0
M  V30 10 C -0.542179 -0.576858 -0.377948 0
M  V30 11 C -1.167217 -0.013413 -1.568916 0
M  V30 12 C -1.948034 -0.607754 -2.537001 0
M  V30 13 C -2.435698 0.140741 -3.589801 0
M  V30 14 C -2.170884 1.476588 -3.715487 0
M  V30 15 C -1.393100 2.073732 -2.753209 0
M  V30 16 C -0.904609 1.333624 -1.702488 0
M  V30 17 C -0.056493 1.744357 -0.556978 0
M  V30 18 C 1.609416 1.195308 2.236102 0
M  V30 19 C 2.081195 0.299609 3.323336 0
M  V30 20 C 2.869903 0.720736 4.372969 0
M  V30 21 C 3.271457 -0.172074 5.350620 0
M  V30 22 C 2.858866 -1.505453 5.247129 0
M  V30 23 C 2.073443 -1.840543 4.168126 0
M  V30 24 C 1.651592 -1.000732 3.180341 0
M  V30 25 H -1.129357 -5.006960 0.488685 0
M  V30 26 H -2.245214 -2.897228 -0.241035 0
M  V30 27 H -0.826162 -3.311262 -1.353908 0
M  V30 28 H -2.178838 -1.663559 -2.470882 0
M  V30 29 H -3.059739 -0.287739 -4.382130 0
M  V30 30 H -2.520555 2.114495 -4.510882 0
M  V30 31 H -1.157403 3.120834 -2.808290 0
M  V30 32 H -0.597613 2.479939 0.100145 0
M  V30 33 H 0.928198 2.129726 -0.867342 0
M  V30 34 H 1.003343 2.033557 2.590213 0
M  V30 35 H 2.468608 1.501817 1.600471 0
M  V30 36 H 3.229261 1.715506 4.529803 0
M  V30 37 H 3.889155 0.112948 6.190577 0
M  V30 38 H 3.161416 -2.219647 6.000355 0
M  V30 39 H 1.789230 -2.864614 4.139090 0
M  V30 END ATOM
M  V30 BEGIN BOND
M  V30 1 2 1 2
M  V30 2 1 2 3
M  V30 3 1 3 4
M  V30 4 1 4 5
M  V30 5 2 5 6
M  V30 6 1 6 7
M  V30 7 2 7 8
M  V30 8 1 8 9
M  V30 9 2 9 10
M  V30 10 1 10 11
M  V30 11 2 11 12
M  V30 12 1 12 13
M  V30 13 2 13 14
M  V30 14 1 14 15
M  V30 15 2 15 16
M  V30 16 1 16 17
M  V30 17 1 8 18
M  V30 18 1 18 19
M  V30 19 2 19 20
M  V30 20 1 20 21
M  V30 21 2 21 22
M  V30 22 1 22 23
M  V30 23 2 23 24
M  V30 24 1 6 2
M  V30 25 1 24 7
M  V30 26 1 10 5
M  V30 27 1 16 11
M  V30 28 1 24 19
M  V30 29 1 17 9
M  V30 30 1 3 25
M  V30 31 1 4 26
M  V30 32 1 4 27
M  V30 33 1 12 28
M  V30 34 1 13 29
M  V30 35 1 14 30
M  V30 36 1 15 31
M  V30 37 1 17 32
M  V30 38 1 17 33
M  V30 39 1 18 34
M  V30 40 1 18 35
M  V30 41 1 20 36
M  V30 42 1 21 37
M  V30 43 1 22 38
M  V30 44 1 23 39
M  V30 END BOND
M  V30 END CTAB
M  END
>  <Dataset>  (539) 
ChEMBL_Kinases

>  <Ligand_Instance>  (539) 
nan

>  <PDB_ID>  (539) 
nan

>  <Standardized_SMILES>  (539) 
O=C1NCc2c1c1c(c3c2-c2ccccc2C3)Cc2ccccc2-1

>  <Name>  (539) 
nan

>  <Pocket>  (539) 
nan

>  <ATP_Site>  (539) 
nan

>  <Peripheral>  (539) 
nan

>  <Num_H_Atoms_ProtBoundConf>  (539) 
nan

>  <Num_Resolved_Atoms>  (539) 
nan

>  <Num_Not_Resolved_Atoms>  (539) 
nan

$$$$
CHEMBL5091230
     RDKit          3D

  0  0  0  0  0  0  0  0  0  0999 V3000
M  V30 BEGIN CTAB
M  V30 COUNTS 64 68 0 0 0
M  V30 BEGIN ATOM
M  V30 1 C 1.636190 -2.946629 4.090809 0
M  V30 2 C 2.165805 -1.933306 3.154324 0
M  V30 3 C 3.470489 -1.539688 3.263171 0
M  V30 4 C 3.995318 -0.597213 2.404089 0
M  V30 5 C 3.167744 -0.066685 1.436732 0
M  V30 6 N 3.705064 0.912587 0.540873 0
M  V30 7 C 3.500612 2.213137 1.125662 0
M  V30 8 O 2.909160 2.106639 2.253349 0
M  V30 9 C 3.918704 3.471445 0.501010 0
M  V30 10 C 4.551396 3.617855 -0.701107 0
M  V30 11 C 4.880955 4.878902 -1.154086 0
M  V30 12 N 4.586697 5.964294 -0.426436 0
M  V30 13 C 3.961590 5.858397 0.766937 0
M  V30 14 C 3.630306 7.055255 1.582665 0
M  V30 15 F 2.271352 7.372821 1.512379 0
M  V30 16 F 3.964543 6.906823 2.914381 0
M  V30 17 F 4.309204 8.157769 1.103475 0
M  V30 18 C 3.620051 4.595154 1.242826 0
M  V30 19 C 1.855051 -0.484386 1.352209 0
M  V30 20 C 1.300948 -1.434409 2.207394 0
M  V30 21 C -0.100198 -1.811170 2.039718 0
M  V30 22 C -1.074489 -1.955449 3.007444 0
M  V30 23 C -2.353975 -2.323580 2.642507 0
M  V30 24 C -2.660932 -2.548859 1.300369 0
M  V30 25 C -1.699785 -2.409304 0.320008 0
M  V30 26 C -0.423115 -2.040645 0.696592 0
M  V30 27 O -1.925842 -2.612337 -1.008354 0
M  V30 28 C -2.999453 -2.774288 -1.864070 0
M  V30 29 C -3.072737 -4.187381 -2.396743 0
M  V30 30 C -3.896421 -4.282838 -3.665617 0
M  V30 31 O -3.506871 -3.395979 -4.645927 0
M  V30 32 C -3.652136 -2.088353 -4.201490 0
M  V30 33 C -2.667355 -1.889081 -3.073658 0
M  V30 34 C -4.340280 -2.337350 -1.390420 0
M  V30 35 C -4.742494 -2.909233 -0.076874 0
M  V30 36 O -5.871879 -3.496721 -0.008947 0
M  V30 37 N -4.050503 -2.917194 1.189694 0
M  V30 38 C -4.745795 -3.300753 2.396245 0
M  V30 39 H 0.831909 -3.537408 3.631975 0
M  V30 40 H 1.307207 -2.483624 5.041832 0
M  V30 41 H 2.456216 -3.653753 4.386880 0
M  V30 42 H 4.118811 -1.970569 4.038538 0
M  V30 43 H 5.024167 -0.326953 2.536018 0
M  V30 44 H 4.191621 0.882708 -0.404123 0
M  V30 45 H 4.759295 2.702691 -1.236897 0
M  V30 46 H 5.378355 4.913509 -2.110830 0
M  V30 47 H 3.113437 4.555829 2.216959 0
M  V30 48 H 1.230092 -0.039974 0.571297 0
M  V30 49 H -0.729816 -1.757289 4.006676 0
M  V30 50 H -3.087565 -2.427373 3.415253 0
M  V30 51 H 0.263582 -1.955839 -0.139729 0
M  V30 52 H -2.086358 -4.628076 -2.551258 0
M  V30 53 H -3.624269 -4.797499 -1.627513 0
M  V30 54 H -3.742768 -5.312162 -4.061381 0
M  V30 55 H -4.995922 -4.206151 -3.440602 0
M  V30 56 H -3.323394 -1.424963 -5.011064 0
M  V30 57 H -4.669535 -1.795982 -3.938807 0
M  V30 58 H -1.656794 -2.116109 -3.434384 0
M  V30 59 H -2.696887 -0.846267 -2.697261 0
M  V30 60 H -4.339012 -1.217410 -1.374317 0
M  V30 61 H -5.082184 -2.646908 -2.127858 0
M  V30 62 H -5.682284 -3.821370 2.034216 0
M  V30 63 H -4.235488 -4.065979 2.997203 0
M  V30 64 H -5.128870 -2.436708 2.981760 0
M  V30 END ATOM
M  V30 BEGIN BOND
M  V30 1 1 1 2
M  V30 2 2 2 3
M  V30 3 1 3 4
M  V30 4 2 4 5
M  V30 5 1 5 6
M  V30 6 1 6 7
M  V30 7 2 7 8
M  V30 8 1 7 9
M  V30 9 2 9 10
M  V30 10 1 10 11
M  V30 11 2 11 12
M  V30 12 1 12 13
M  V30 13 1 13 14
M  V30 14 1 14 15
M  V30 15 1 14 16
M  V30 16 1 14 17
M  V30 17 2 13 18
M  V30 18 1 5 19
M  V30 19 2 19 20
M  V30 20 1 20 21
M  V30 21 2 21 22
M  V30 22 1 22 23
M  V30 23 2 23 24
M  V30 24 1 24 25
M  V30 25 2 25 26
M  V30 26 1 25 27
M  V30 27 1 27 28
M  V30 28 1 28 29
M  V30 29 1 29 30
M  V30 30 1 30 31
M  V30 31 1 31 32
M  V30 32 1 32 33
M  V30 33 1 28 34
M  V30 34 1 34 35
M  V30 35 2 35 36
M  V30 36 1 35 37
M  V30 37 1 37 38
M  V30 38 1 20 2
M  V30 39 1 26 21
M  V30 40 1 33 28
M  V30 41 1 18 9
M  V30 42 1 37 24
M  V30 43 1 1 39
M  V30 44 1 1 40
M  V30 45 1 1 41
M  V30 46 1 3 42
M  V30 47 1 4 43
M  V30 48 1 6 44
M  V30 49 1 10 45
M  V30 50 1 11 46
M  V30 51 1 18 47
M  V30 52 1 19 48
M  V30 53 1 22 49
M  V30 54 1 23 50
M  V30 55 1 26 51
M  V30 56 1 29 52
M  V30 57 1 29 53
M  V30 58 1 30 54
M  V30 59 1 30 55
M  V30 60 1 32 56
M  V30 61 1 32 57
M  V30 62 1 33 58
M  V30 63 1 33 59
M  V30 64 1 34 60
M  V30 65 1 34 61
M  V30 66 1 38 62
M  V30 67 1 38 63
M  V30 68 1 38 64
M  V30 END BOND
M  V30 END CTAB
M  END
>  <Dataset>  (540) 
ChEMBL_Kinases

>  <Ligand_Instance>  (540) 
nan

>  <PDB_ID>  (540) 
nan

>  <Standardized_SMILES>  (540) 
Cc1ccc(NC(=O)c2ccnc(C(F)(F)F)c2)cc1-c1ccc2c(c1)OC1(CCOCC1)CC(=O)N2C

>  <Name>  (540) 
nan

>  <Pocket>  (540) 
nan

>  <ATP_Site>  (540) 
nan

>  <Peripheral>  (540) 
nan

>  <Num_H_Atoms_ProtBoundConf>  (540) 
nan

>  <Num_Resolved_Atoms>  (540) 
nan

>  <Num_Not_Resolved_Atoms>  (540) 
nan

$$$$
CHEMBL5091290
     RDKit          3D

  0  0  0  0  0  0  0  0  0  0999 V3000
M  V30 BEGIN CTAB
M  V30 COUNTS 34 36 0 0 0
M  V30 BEGIN ATOM
M  V30 1 C -0.415460 -2.696292 -0.608345 0
M  V30 2 C -0.184188 -2.801566 0.878189 0 CFG=2
M  V30 3 C -1.526224 -3.101519 1.588078 0
M  V30 4 C -1.087890 -2.939586 3.027593 0
M  V30 5 C 0.028579 -1.902244 2.944224 0
M  V30 6 N 0.115836 -1.536453 1.520608 0
M  V30 7 C 0.354447 -0.366815 0.759191 0
M  V30 8 C 1.091019 -0.268591 -0.408212 0
M  V30 9 C 0.980969 1.044107 -0.803300 0
M  V30 10 C 1.457025 1.761821 -1.863217 0
M  V30 11 N 2.261936 1.024219 -2.781637 0
M  V30 12 N 1.187663 3.056840 -2.031000 0
M  V30 13 C 0.404871 3.660766 -1.093036 0
M  V30 14 N -0.077637 2.983610 -0.040923 0
M  V30 15 C 0.192501 1.685302 0.128268 0
M  V30 16 N -0.176905 0.815163 1.068840 0
M  V30 17 C -1.001231 1.136868 2.200119 0
M  V30 18 H 0.489465 -3.066117 -1.121445 0
M  V30 19 H -1.223064 -3.445926 -0.879800 0
M  V30 20 H -0.760214 -1.711868 -0.909461 0
M  V30 21 H 0.509612 -3.573997 1.186544 0
M  V30 22 H -1.904620 -4.092525 1.353859 0
M  V30 23 H -2.243107 -2.280645 1.296462 0
M  V30 24 H -0.603270 -3.909412 3.323035 0
M  V30 25 H -1.898194 -2.625992 3.692959 0
M  V30 26 H -0.231147 -1.074537 3.594367 0
M  V30 27 H 1.007797 -2.343724 3.283415 0
M  V30 28 H 1.648283 -1.018138 -0.931903 0
M  V30 29 H 1.779359 0.639333 -3.627733 0
M  V30 30 H 3.277230 0.891005 -2.587119 0
M  V30 31 H 0.178252 4.694690 -1.225264 0
M  V30 32 H -1.811396 0.418487 2.370288 0
M  V30 33 H -1.501319 2.138813 2.075125 0
M  V30 34 H -0.320584 1.261437 3.079472 0
M  V30 END ATOM
M  V30 BEGIN BOND
M  V30 1 1 1 2
M  V30 2 1 2 3
M  V30 3 1 3 4
M  V30 4 1 4 5
M  V30 5 1 5 6
M  V30 6 1 6 7
M  V30 7 2 7 8
M  V30 8 1 8 9
M  V30 9 2 9 10
M  V30 10 1 10 11
M  V30 11 1 10 12
M  V30 12 2 12 13
M  V30 13 1 13 14
M  V30 14 2 14 15
M  V30 15 1 15 16
M  V30 16 1 16 17
M  V30 17 1 6 2
M  V30 18 1 16 7
M  V30 19 1 15 9
M  V30 20 1 1 18
M  V30 21 1 1 19
M  V30 22 1 1 20
M  V30 23 1 2 21 CFG=3
M  V30 24 1 3 22
M  V30 25 1 3 23
M  V30 26 1 4 24
M  V30 27 1 4 25
M  V30 28 1 5 26
M  V30 29 1 5 27
M  V30 30 1 8 28
M  V30 31 1 11 29
M  V30 32 1 11 30
M  V30 33 1 13 31
M  V30 34 1 17 32
M  V30 35 1 17 33
M  V30 36 1 17 34
M  V30 END BOND
M  V30 END CTAB
M  END
>  <Dataset>  (541) 
ChEMBL_Kinases

>  <Ligand_Instance>  (541) 
nan

>  <PDB_ID>  (541) 
nan

>  <Standardized_SMILES>  (541) 
C[C@@H]1CCCN1c1cc2c(N)ncnc2n1C

>  <Name>  (541) 
nan

>  <Pocket>  (541) 
nan

>  <ATP_Site>  (541) 
nan

>  <Peripheral>  (541) 
nan

>  <Num_H_Atoms_ProtBoundConf>  (541) 
nan

>  <Num_Resolved_Atoms>  (541) 
nan

>  <Num_Not_Resolved_Atoms>  (541) 
nan

$$$$
CHEMBL3751985
     RDKit          3D

  0  0  0  0  0  0  0  0  0  0999 V3000
M  V30 BEGIN CTAB
M  V30 COUNTS 25 26 0 0 0
M  V30 BEGIN ATOM
M  V30 1 C 0.889686 -1.889848 5.433418 0
M  V30 2 O -0.160299 -1.938624 4.468605 0
M  V30 3 C 0.061494 -1.351664 3.221152 0
M  V30 4 C -0.976386 -1.415691 2.307229 0
M  V30 5 C -0.873817 -0.869952 1.040045 0
M  V30 6 C 0.313116 -0.246260 0.699877 0
M  V30 7 C 0.541088 0.367639 -0.609010 0
M  V30 8 C -0.400823 0.385822 -1.630410 0
M  V30 9 C 0.115225 1.037877 -2.736867 0
M  V30 10 N -0.548922 1.257732 -3.978106 0
M  V30 11 N 1.355965 1.400829 -2.365129 0
M  V30 12 N 1.612914 1.012948 -1.122815 0
M  V30 13 C 1.373473 -0.161840 1.585759 0
M  V30 14 C 1.246794 -0.714369 2.845061 0
M  V30 15 H 0.474034 -2.092088 6.456293 0
M  V30 16 H 1.299557 -0.846041 5.487836 0
M  V30 17 H 1.730727 -2.558853 5.166197 0
M  V30 18 H -1.922701 -1.904921 2.558234 0
M  V30 19 H -1.669220 -0.908339 0.312763 0
M  V30 20 H -1.398047 -0.046114 -1.576323 0
M  V30 21 H -1.278192 1.986247 -4.115790 0
M  V30 22 H -0.117219 0.537621 -4.623180 0
M  V30 23 H 2.048986 1.918919 -2.951150 0
M  V30 24 H 2.326422 0.313922 1.375505 0
M  V30 25 H 2.041591 -0.679588 3.580767 0
M  V30 END ATOM
M  V30 BEGIN BOND
M  V30 1 1 1 2
M  V30 2 1 2 3
M  V30 3 2 3 4
M  V30 4 1 4 5
M  V30 5 2 5 6
M  V30 6 1 6 7
M  V30 7 1 7 8
M  V30 8 2 8 9
M  V30 9 1 9 10
M  V30 10 1 9 11
M  V30 11 1 11 12
M  V30 12 1 6 13
M  V30 13 2 13 14
M  V30 14 1 14 3
M  V30 15 2 12 7
M  V30 16 1 1 15
M  V30 17 1 1 16
M  V30 18 1 1 17
M  V30 19 1 4 18
M  V30 20 1 5 19
M  V30 21 1 8 20
M  V30 22 1 10 21
M  V30 23 1 10 22
M  V30 24 1 11 23
M  V30 25 1 13 24
M  V30 26 1 14 25
M  V30 END BOND
M  V30 END CTAB
M  END
>  <Dataset>  (542) 
ChEMBL_Kinases

>  <Ligand_Instance>  (542) 
nan

>  <PDB_ID>  (542) 
nan

>  <Standardized_SMILES>  (542) 
COc1ccc(-c2cc(N)[nH]n2)cc1

>  <Name>  (542) 
nan

>  <Pocket>  (542) 
nan

>  <ATP_Site>  (542) 
nan

>  <Peripheral>  (542) 
nan

>  <Num_H_Atoms_ProtBoundConf>  (542) 
nan

>  <Num_Resolved_Atoms>  (542) 
nan

>  <Num_Not_Resolved_Atoms>  (542) 
nan

$$$$
CHEMBL5091299
     RDKit          3D

  0  0  0  0  0  0  0  0  0  0999 V3000
M  V30 BEGIN CTAB
M  V30 COUNTS 63 67 0 0 0
M  V30 BEGIN ATOM
M  V30 1 C 5.831598 -4.411864 3.155886 0
M  V30 2 O 4.628830 -3.904692 2.627474 0
M  V30 3 C 4.536928 -2.630369 2.088886 0
M  V30 4 C 5.508131 -1.666339 1.961564 0
M  V30 5 N 5.269866 -0.468005 1.414218 0
M  V30 6 C 4.043358 -0.133204 0.949588 0
M  V30 7 N 3.815367 1.141223 0.370834 0
M  V30 8 C 2.596114 1.671031 -0.121761 0
M  V30 9 C 1.373625 1.039714 -0.124118 0
M  V30 10 C 0.216002 1.600070 -0.612941 0
M  V30 11 C 0.254060 2.864083 -1.135662 0
M  V30 12 C -1.009678 3.390924 -1.627403 0
M  V30 13 O -1.521536 4.452986 -1.191552 0
M  V30 14 N -1.838519 2.822269 -2.633316 0
M  V30 15 C -3.061086 3.532886 -2.948832 0
M  V30 16 C -4.271329 2.686199 -2.546145 0
M  V30 17 N -4.213532 1.493668 -3.360025 0
M  V30 18 C -2.986749 0.754834 -3.234887 0
M  V30 19 C -1.798962 1.649635 -3.489560 0
M  V30 20 C 1.479300 3.480054 -1.126703 0
M  V30 21 N 2.579714 2.909530 -0.646157 0
M  V30 22 N 3.127022 -1.086207 1.087126 0
M  V30 23 C 3.283666 -2.297961 1.617614 0
M  V30 24 C 2.058306 -3.090558 1.597362 0
M  V30 25 C 1.954321 -4.419380 1.232765 0
M  V30 26 C 0.739720 -5.075968 1.237269 0
M  V30 27 C -0.432414 -4.448844 1.602930 0
M  V30 28 N -1.649354 -5.017356 1.628693 0
M  V30 29 C -2.756295 -4.338213 1.994794 0
M  V30 30 C -2.683943 -3.014108 2.363136 0
M  V30 31 N -3.740440 -2.155917 2.767378 0
M  V30 32 C -4.148235 -2.039168 4.165802 0
M  V30 33 C -4.453011 -1.356244 1.773474 0
M  V30 34 N -1.470490 -2.422352 2.344762 0
M  V30 35 C -0.359001 -3.123600 1.971419 0
M  V30 36 C 0.863080 -2.489278 1.959544 0
M  V30 37 H 5.663770 -5.159152 3.956445 0
M  V30 38 H 6.444467 -4.798107 2.324216 0
M  V30 39 H 6.412750 -3.592739 3.637401 0
M  V30 40 H 6.477882 -1.953017 2.337814 0
M  V30 41 H 4.664282 1.769136 0.299090 0
M  V30 42 H 1.299020 0.052502 0.275444 0
M  V30 43 H -0.717844 1.023839 -0.574294 0
M  V30 44 H -3.175293 3.728164 -4.039131 0
M  V30 45 H -3.157005 4.480612 -2.393595 0
M  V30 46 H -5.180879 3.234184 -2.787246 0
M  V30 47 H -4.209614 2.451096 -1.461677 0
M  V30 48 H -5.055707 0.908557 -3.343902 0
M  V30 49 H -3.002833 -0.010112 -4.044136 0
M  V30 50 H -2.872061 0.219008 -2.276942 0
M  V30 51 H -1.765236 1.918354 -4.579049 0
M  V30 52 H -0.870606 1.053812 -3.320219 0
M  V30 53 H 1.494821 4.493457 -1.548578 0
M  V30 54 H 2.872883 -4.911814 0.946828 0
M  V30 55 H 0.679545 -6.119670 0.947937 0
M  V30 56 H -3.736260 -4.766323 2.024141 0
M  V30 57 H -4.856811 -1.221525 4.319629 0
M  V30 58 H -3.271056 -1.828746 4.813019 0
M  V30 59 H -4.565958 -3.017488 4.535561 0
M  V30 60 H -4.411900 -1.825114 0.768664 0
M  V30 61 H -5.489628 -1.175032 2.125048 0
M  V30 62 H -3.989608 -0.331668 1.713248 0
M  V30 63 H 0.898979 -1.454259 2.251118 0
M  V30 END ATOM
M  V30 BEGIN BOND
M  V30 1 1 1 2
M  V30 2 1 2 3
M  V30 3 2 3 4
M  V30 4 1 4 5
M  V30 5 2 5 6
M  V30 6 1 6 7
M  V30 7 1 7 8
M  V30 8 2 8 9
M  V30 9 1 9 10
M  V30 10 2 10 11
M  V30 11 1 11 12
M  V30 12 2 12 13
M  V30 13 1 12 14
M  V30 14 1 14 15
M  V30 15 1 15 16
M  V30 16 1 16 17
M  V30 17 1 17 18
M  V30 18 1 18 19
M  V30 19 1 11 20
M  V30 20 2 20 21
M  V30 21 1 6 22
M  V30 22 2 22 23
M  V30 23 1 23 24
M  V30 24 2 24 25
M  V30 25 1 25 26
M  V30 26 2 26 27
M  V30 27 1 27 28
M  V30 28 2 28 29
M  V30 29 1 29 30
M  V30 30 1 30 31
M  V30 31 1 31 32
M  V30 32 1 31 33
M  V30 33 2 30 34
M  V30 34 1 34 35
M  V30 35 2 35 36
M  V30 36 1 23 3
M  V30 37 1 36 24
M  V30 38 1 21 8
M  V30 39 1 35 27
M  V30 40 1 19 14
M  V30 41 1 1 37
M  V30 42 1 1 38
M  V30 43 1 1 39
M  V30 44 1 4 40
M  V30 45 1 7 41
M  V30 46 1 9 42
M  V30 47 1 10 43
M  V30 48 1 15 44
M  V30 49 1 15 45
M  V30 50 1 16 46
M  V30 51 1 16 47
M  V30 52 1 17 48
M  V30 53 1 18 49
M  V30 54 1 18 50
M  V30 55 1 19 51
M  V30 56 1 19 52
M  V30 57 1 20 53
M  V30 58 1 25 54
M  V30 59 1 26 55
M  V30 60 1 29 56
M  V30 61 1 32 57
M  V30 62 1 32 58
M  V30 63 1 32 59
M  V30 64 1 33 60
M  V30 65 1 33 61
M  V30 66 1 33 62
M  V30 67 1 36 63
M  V30 END BOND
M  V30 END CTAB
M  END
>  <Dataset>  (543) 
ChEMBL_Kinases

>  <Ligand_Instance>  (543) 
nan

>  <PDB_ID>  (543) 
nan

>  <Standardized_SMILES>  (543) 
COc1cnc(Nc2ccc(C(=O)N3CCNCC3)cn2)nc1-c1ccc2ncc(N(C)C)nc2c1

>  <Name>  (543) 
nan

>  <Pocket>  (543) 
nan

>  <ATP_Site>  (543) 
nan

>  <Peripheral>  (543) 
nan

>  <Num_H_Atoms_ProtBoundConf>  (543) 
nan

>  <Num_Resolved_Atoms>  (543) 
nan

>  <Num_Not_Resolved_Atoms>  (543) 
nan

$$$$
CHEMBL509132
     RDKit          3D

  0  0  0  0  0  0  0  0  0  0999 V3000
M  V30 BEGIN CTAB
M  V30 COUNTS 48 49 0 0 0
M  V30 BEGIN ATOM
M  V30 1 C 1.088985 -5.094202 0.732749 0
M  V30 2 C 1.324087 -3.602054 0.572504 0
M  V30 3 C -0.030013 -2.919327 0.675209 0
M  V30 4 C 1.940297 -3.341521 -0.762654 0
M  V30 5 C 2.221861 -3.164302 1.729587 0
M  V30 6 C 2.500997 -1.697753 1.631081 0
M  V30 7 O 3.622457 -1.208703 1.464265 0
M  V30 8 O 1.365357 -0.930075 1.743998 0
M  V30 9 C 1.210471 0.412364 1.699464 0
M  V30 10 C 1.603368 1.219055 0.516841 0
M  V30 11 C 3.030420 1.625473 0.421995 0
M  V30 12 O 3.450988 1.906188 1.732597 0
M  V30 13 C 0.888311 2.579384 0.747666 0
M  V30 14 C -0.528886 2.062159 0.671278 0
M  V30 15 C -1.683800 2.201888 1.317053 0
M  V30 16 C -2.930403 1.514717 0.965870 0
M  V30 17 C -2.930658 0.138154 0.733122 0
M  V30 18 C -4.076335 -0.579820 0.374749 0
M  V30 19 C -5.268516 0.133883 0.249318 0
M  V30 20 F -6.414520 -0.537063 -0.102306 0
M  V30 21 C -5.276750 1.506184 0.480217 0
M  V30 22 C -4.142946 2.201325 0.831755 0
M  V30 23 C -0.363695 1.229337 -0.541905 0
M  V30 24 O -1.290624 0.893286 -1.334826 0
M  V30 25 O 0.967883 0.874061 -0.678708 0
M  V30 26 H 0.119391 -5.346042 0.252523 0
M  V30 27 H 1.917381 -5.608084 0.173483 0
M  V30 28 H 1.135699 -5.359988 1.793498 0
M  V30 29 H -0.251619 -2.652164 1.741925 0
M  V30 30 H -0.096188 -2.005255 0.060254 0
M  V30 31 H -0.792945 -3.649839 0.356139 0
M  V30 32 H 2.044923 -4.247866 -1.393382 0
M  V30 33 H 2.928491 -2.831288 -0.644351 0
M  V30 34 H 1.316381 -2.635669 -1.352829 0
M  V30 35 H 3.164249 -3.741057 1.667698 0
M  V30 36 H 1.727490 -3.419051 2.674054 0
M  V30 37 H 0.145386 0.630332 1.930323 0
M  V30 38 H 1.757804 0.862066 2.581025 0
M  V30 39 H 3.086935 2.617268 -0.122095 0
M  V30 40 H 3.721025 0.984842 -0.103656 0
M  V30 41 H 4.347096 1.471877 1.874107 0
M  V30 42 H 1.132249 3.014589 1.712756 0
M  V30 43 H 1.047116 3.197301 -0.139862 0
M  V30 44 H -1.533509 2.912280 2.144934 0
M  V30 45 H -2.053536 -0.490888 0.820349 0
M  V30 46 H -4.062819 -1.641965 0.198947 0
M  V30 47 H -6.199488 2.073986 0.384628 0
M  V30 48 H -4.135819 3.274759 1.013337 0
M  V30 END ATOM
M  V30 BEGIN BOND
M  V30 1 1 1 2
M  V30 2 1 2 3
M  V30 3 1 2 4
M  V30 4 1 2 5
M  V30 5 1 5 6
M  V30 6 2 6 7
M  V30 7 1 6 8
M  V30 8 1 8 9
M  V30 9 1 9 10
M  V30 10 1 10 11
M  V30 11 1 11 12
M  V30 12 1 10 13
M  V30 13 1 13 14
M  V30 14 2 14 15
M  V30 15 1 15 16
M  V30 16 2 16 17
M  V30 17 1 17 18
M  V30 18 2 18 19
M  V30 19 1 19 20
M  V30 20 1 19 21
M  V30 21 2 21 22
M  V30 22 1 14 23
M  V30 23 2 23 24
M  V30 24 1 23 25
M  V30 25 1 25 10
M  V30 26 1 22 16
M  V30 27 1 1 26
M  V30 28 1 1 27
M  V30 29 1 1 28
M  V30 30 1 3 29
M  V30 31 1 3 30
M  V30 32 1 3 31
M  V30 33 1 4 32
M  V30 34 1 4 33
M  V30 35 1 4 34
M  V30 36 1 5 35
M  V30 37 1 5 36
M  V30 38 1 9 37
M  V30 39 1 9 38
M  V30 40 1 11 39
M  V30 41 1 11 40
M  V30 42 1 12 41
M  V30 43 1 13 42
M  V30 44 1 13 43
M  V30 45 1 15 44
M  V30 46 1 17 45
M  V30 47 1 18 46
M  V30 48 1 21 47
M  V30 49 1 22 48
M  V30 END BOND
M  V30 END CTAB
M  END
>  <Dataset>  (544) 
ChEMBL_Kinases

>  <Ligand_Instance>  (544) 
nan

>  <PDB_ID>  (544) 
nan

>  <Standardized_SMILES>  (544) 
CC(C)(C)CC(=O)OCC1(CO)C/C(=C/c2ccc(F)cc2)C(=O)O1

>  <Name>  (544) 
nan

>  <Pocket>  (544) 
nan

>  <ATP_Site>  (544) 
nan

>  <Peripheral>  (544) 
nan

>  <Num_H_Atoms_ProtBoundConf>  (544) 
nan

>  <Num_Resolved_Atoms>  (544) 
nan

>  <Num_Not_Resolved_Atoms>  (544) 
nan

$$$$
CHEMBL5089933
     RDKit          3D

  0  0  0  0  0  0  0  0  0  0999 V3000
M  V30 BEGIN CTAB
M  V30 COUNTS 49 53 0 0 0
M  V30 BEGIN ATOM
M  V30 1 C 1.475752 -3.386788 2.674814 0
M  V30 2 C 0.453405 -2.721914 1.827271 0
M  V30 3 C 0.658638 -1.803984 0.811966 0
M  V30 4 N 1.912364 -1.297096 0.359839 0
M  V30 5 C 1.922735 -0.344710 -0.710963 0
M  V30 6 N 1.996740 -0.824881 -1.985520 0
M  V30 7 C 2.010990 0.014769 -3.042739 0
M  V30 8 C 1.947020 1.362424 -2.752864 0
M  V30 9 C 1.962030 2.213491 -3.837302 0
M  V30 10 C 1.902023 3.586820 -3.659873 0
M  V30 11 C 1.827919 4.045061 -2.362871 0
M  V30 12 C 1.809069 3.247871 -1.237230 0
M  V30 13 C 1.732006 3.700579 0.146212 0
M  V30 14 C 0.498183 3.918756 0.906749 0
M  V30 15 C 1.190647 5.135974 0.313544 0
M  V30 16 C 1.870959 1.883487 -1.466107 0
M  V30 17 N 1.861231 0.977326 -0.455013 0
M  V30 18 C -0.600608 -1.489827 0.337099 0
M  V30 19 N -1.500510 -2.195234 1.046246 0
M  V30 20 N -0.860489 -2.944605 1.952490 0
M  V30 21 C -1.619811 -3.815819 2.862031 0
M  V30 22 C -2.775744 -2.979768 3.374295 0
M  V30 23 C -3.525940 -3.731506 4.424635 0
M  V30 24 O -3.540214 -5.088868 4.129749 0
M  V30 25 C -3.541459 -5.311846 2.750161 0
M  V30 26 C -2.205678 -4.969420 2.105558 0
M  V30 27 H 2.421974 -2.842235 2.685778 0
M  V30 28 H 1.717285 -4.402699 2.253458 0
M  V30 29 H 1.108903 -3.592456 3.700745 0
M  V30 30 H 2.780067 -1.621870 0.807271 0
M  V30 31 H 2.068967 -0.338567 -4.061447 0
M  V30 32 H 2.020506 1.870179 -4.877070 0
M  V30 33 H 1.910580 4.285996 -4.466646 0
M  V30 34 H 1.780833 5.111129 -2.210088 0
M  V30 35 H 2.660672 3.531569 0.730082 0
M  V30 36 H 0.538146 3.775053 2.009337 0
M  V30 37 H -0.509886 3.746725 0.482069 0
M  V30 38 H 1.733111 5.822519 0.995743 0
M  V30 39 H 0.738508 5.641986 -0.539915 0
M  V30 40 H -0.734472 -0.786932 -0.468336 0
M  V30 41 H -0.960735 -4.162260 3.685073 0
M  V30 42 H -2.359553 -2.016232 3.737007 0
M  V30 43 H -3.412361 -2.765502 2.468926 0
M  V30 44 H -4.586332 -3.355811 4.393462 0
M  V30 45 H -3.047959 -3.592039 5.396452 0
M  V30 46 H -3.738897 -6.398497 2.607241 0
M  V30 47 H -4.391808 -4.776576 2.271774 0
M  V30 48 H -2.466063 -4.568065 1.085969 0
M  V30 49 H -1.539847 -5.853158 2.046541 0
M  V30 END ATOM
M  V30 BEGIN BOND
M  V30 1 1 1 2
M  V30 2 2 2 3
M  V30 3 1 3 4
M  V30 4 1 4 5
M  V30 5 2 5 6
M  V30 6 1 6 7
M  V30 7 2 7 8
M  V30 8 1 8 9
M  V30 9 2 9 10
M  V30 10 1 10 11
M  V30 11 2 11 12
M  V30 12 1 12 13
M  V30 13 1 13 14
M  V30 14 1 14 15
M  V30 15 1 12 16
M  V30 16 2 16 17
M  V30 17 1 3 18
M  V30 18 2 18 19
M  V30 19 1 19 20
M  V30 20 1 20 21
M  V30 21 1 21 22
M  V30 22 1 22 23
M  V30 23 1 23 24
M  V30 24 1 24 25
M  V30 25 1 25 26
M  V30 26 1 20 2
M  V30 27 1 26 21
M  V30 28 1 17 5
M  V30 29 1 16 8
M  V30 30 1 15 13
M  V30 31 1 1 27
M  V30 32 1 1 28
M  V30 33 1 1 29
M  V30 34 1 4 30
M  V30 35 1 7 31
M  V30 36 1 9 32
M  V30 37 1 10 33
M  V30 38 1 11 34
M  V30 39 1 13 35
M  V30 40 1 14 36
M  V30 41 1 14 37
M  V30 42 1 15 38
M  V30 43 1 15 39
M  V30 44 1 18 40
M  V30 45 1 21 41
M  V30 46 1 22 42
M  V30 47 1 22 43
M  V30 48 1 23 44
M  V30 49 1 23 45
M  V30 50 1 25 46
M  V30 51 1 25 47
M  V30 52 1 26 48
M  V30 53 1 26 49
M  V30 END BOND
M  V30 END CTAB
M  END
>  <Dataset>  (545) 
ChEMBL_Kinases

>  <Ligand_Instance>  (545) 
nan

>  <PDB_ID>  (545) 
nan

>  <Standardized_SMILES>  (545) 
Cc1c(Nc2ncc3cccc(C4CC4)c3n2)cnn1C1CCOCC1

>  <Name>  (545) 
nan

>  <Pocket>  (545) 
nan

>  <ATP_Site>  (545) 
nan

>  <Peripheral>  (545) 
nan

>  <Num_H_Atoms_ProtBoundConf>  (545) 
nan

>  <Num_Resolved_Atoms>  (545) 
nan

>  <Num_Not_Resolved_Atoms>  (545) 
nan

$$$$
CHEMBL5091344
     RDKit          3D

  0  0  0  0  0  0  0  0  0  0999 V3000
M  V30 BEGIN CTAB
M  V30 COUNTS 29 31 0 0 0
M  V30 BEGIN ATOM
M  V30 1 C -0.989370 -4.375827 3.886098 0
M  V30 2 C -0.323934 -3.331794 3.077637 0
M  V30 3 N 1.018234 -3.219223 3.213465 0
M  V30 4 C 1.704283 -2.283252 2.504414 0
M  V30 5 N 3.113423 -2.091498 2.581817 0
M  V30 6 C 0.951473 -1.477128 1.657873 0
M  V30 7 C 1.295849 -0.438380 0.797784 0
M  V30 8 C 2.620821 0.026352 0.618515 0
M  V30 9 N 3.699692 0.388854 0.486613 0
M  V30 10 C 0.182819 0.057305 0.163137 0
M  V30 11 C -0.007722 1.114781 -0.807450 0
M  V30 12 C -1.269357 1.393329 -1.275849 0
M  V30 13 C -1.523007 2.394937 -2.207986 0
M  V30 14 C -0.492216 3.149167 -2.695341 0
M  V30 15 N 0.754956 2.904277 -2.259307 0
M  V30 16 C 0.939178 1.932952 -1.366199 0
M  V30 17 N -0.842759 -0.660292 0.619050 0
M  V30 18 C -0.421021 -1.575201 1.503873 0
M  V30 19 N -1.021740 -2.529484 2.244131 0
M  V30 20 H -0.828607 -4.074298 4.956349 0
M  V30 21 H -2.054290 -4.459871 3.650229 0
M  V30 22 H -0.465324 -5.359141 3.780744 0
M  V30 23 H 3.475921 -2.848389 1.965989 0
M  V30 24 H 3.432882 -1.298749 3.190204 0
M  V30 25 H -2.166859 0.869027 -0.968846 0
M  V30 26 H -2.504858 2.616954 -2.577155 0
M  V30 27 H -0.660041 3.934871 -3.421071 0
M  V30 28 H 1.964935 1.798033 -1.066500 0
M  V30 29 H -1.860465 -0.610712 0.396477 0
M  V30 END ATOM
M  V30 BEGIN BOND
M  V30 1 1 1 2
M  V30 2 2 2 3
M  V30 3 1 3 4
M  V30 4 1 4 5
M  V30 5 2 4 6
M  V30 6 1 6 7
M  V30 7 1 7 8
M  V30 8 3 8 9
M  V30 9 2 7 10
M  V30 10 1 10 11
M  V30 11 2 11 12
M  V30 12 1 12 13
M  V30 13 2 13 14
M  V30 14 1 14 15
M  V30 15 2 15 16
M  V30 16 1 10 17
M  V30 17 1 17 18
M  V30 18 2 18 19
M  V30 19 1 19 2
M  V30 20 1 18 6
M  V30 21 1 16 11
M  V30 22 1 1 20
M  V30 23 1 1 21
M  V30 24 1 1 22
M  V30 25 1 5 23
M  V30 26 1 5 24
M  V30 27 1 12 25
M  V30 28 1 13 26
M  V30 29 1 14 27
M  V30 30 1 16 28
M  V30 31 1 17 29
M  V30 END BOND
M  V30 END CTAB
M  END
>  <Dataset>  (546) 
ChEMBL_Kinases

>  <Ligand_Instance>  (546) 
nan

>  <PDB_ID>  (546) 
nan

>  <Standardized_SMILES>  (546) 
Cc1nc(N)c2c(C#N)c(-c3cccnc3)[nH]c2n1

>  <Name>  (546) 
nan

>  <Pocket>  (546) 
nan

>  <ATP_Site>  (546) 
nan

>  <Peripheral>  (546) 
nan

>  <Num_H_Atoms_ProtBoundConf>  (546) 
nan

>  <Num_Resolved_Atoms>  (546) 
nan

>  <Num_Not_Resolved_Atoms>  (546) 
nan

$$$$
CHEMBL5091391
     RDKit          3D

  0  0  0  0  0  0  0  0  0  0999 V3000
M  V30 BEGIN CTAB
M  V30 COUNTS 60 64 0 0 0
M  V30 BEGIN ATOM
M  V30 1 C 4.143129 -0.040313 3.654665 0
M  V30 2 N 5.068894 0.500178 2.702785 0
M  V30 3 C 6.469979 0.345250 3.153036 0
M  V30 4 C 4.910588 1.137378 1.450206 0
M  V30 5 O 6.036660 1.465464 0.927132 0
M  V30 6 C 3.817634 1.528477 0.580820 0
M  V30 7 C 4.144495 2.145548 -0.605034 0
M  V30 8 N 5.464575 2.429518 -1.048084 0
M  V30 9 C 3.155028 2.559891 -1.508260 0
M  V30 10 C 1.831382 2.346630 -1.205549 0
M  V30 11 C 1.448717 1.733351 -0.032085 0
M  V30 12 C 0.039286 1.508073 0.286452 0
M  V30 13 C -0.684914 2.459236 0.978018 0
M  V30 14 N -1.981879 2.236485 1.263554 0
M  V30 15 C -2.594831 1.077484 0.877163 0
M  V30 16 C -1.937100 0.058459 0.172306 0
M  V30 17 C -0.613093 0.349848 -0.087525 0
M  V30 18 Cl 0.299756 -0.859750 -0.964837 0
M  V30 19 C -2.914291 -1.005622 -0.056181 0 CFG=1
M  V30 20 C -3.657682 -0.924748 -1.360847 0
M  V30 21 C -4.482017 -2.218263 -1.304348 0
M  V30 22 C -3.606354 -3.185985 -0.591027 0 CFG=2
M  V30 23 C -3.136930 -4.292805 -1.544395 0
M  V30 24 C -1.996904 -5.033669 -0.932603 0
M  V30 25 C -2.133799 -5.352918 0.516518 0
M  V30 26 N -3.324689 -4.844685 1.144786 0
M  V30 27 C -4.208704 -3.872078 0.552756 0
M  V30 28 O -5.319003 -3.809403 1.138509 0
M  V30 29 C -2.387475 -2.398392 -0.088289 0
M  V30 30 C -3.924398 -0.772531 1.042665 0
M  V30 31 N -3.946558 0.684360 1.095085 0
M  V30 32 C 2.480567 1.358599 0.797007 0
M  V30 33 F 2.063649 0.767658 1.926358 0
M  V30 34 H 3.490054 0.734318 4.117741 0
M  V30 35 H 4.733474 -0.486711 4.502904 0
M  V30 36 H 3.546416 -0.897029 3.279342 0
M  V30 37 H 6.732713 -0.713755 2.950915 0
M  V30 38 H 6.546336 0.578662 4.255495 0
M  V30 39 H 7.162799 0.978567 2.600715 0
M  V30 40 H 5.825690 3.400457 -0.919905 0
M  V30 41 H 5.971474 1.605841 -1.478617 0
M  V30 42 H 3.396838 3.039237 -2.430512 0
M  V30 43 H 1.087611 2.671302 -1.910549 0
M  V30 44 H -0.225212 3.380167 1.293377 0
M  V30 45 H -4.336030 -0.046837 -1.390065 0
M  V30 46 H -2.981764 -0.964756 -2.235538 0
M  V30 47 H -4.641683 -2.546566 -2.369789 0
M  V30 48 H -5.485180 -2.071855 -0.900947 0
M  V30 49 H -2.778290 -3.811541 -2.479922 0
M  V30 50 H -3.983641 -4.970619 -1.715452 0
M  V30 51 H -1.058729 -4.437501 -1.114651 0
M  V30 52 H -1.852441 -5.966518 -1.541417 0
M  V30 53 H -1.195607 -5.044837 1.062826 0
M  V30 54 H -2.133244 -6.475931 0.636962 0
M  V30 55 H -3.501083 -5.259090 2.108349 0
M  V30 56 H -1.670179 -2.468375 -0.930784 0
M  V30 57 H -2.019593 -2.773678 0.871761 0
M  V30 58 H -3.509882 -1.119209 2.007431 0
M  V30 59 H -4.932517 -1.107017 0.808964 0
M  V30 60 H -4.755375 1.347584 1.255478 0
M  V30 END ATOM
M  V30 BEGIN BOND
M  V30 1 1 1 2
M  V30 2 1 2 3
M  V30 3 1 2 4
M  V30 4 2 4 5
M  V30 5 1 4 6
M  V30 6 2 6 7
M  V30 7 1 7 8
M  V30 8 1 7 9
M  V30 9 2 9 10
M  V30 10 1 10 11
M  V30 11 1 11 12
M  V30 12 2 12 13
M  V30 13 1 13 14
M  V30 14 2 14 15
M  V30 15 1 15 16
M  V30 16 2 16 17
M  V30 17 1 17 18
M  V30 18 1 16 19
M  V30 19 1 19 20 CFG=3
M  V30 20 1 20 21
M  V30 21 1 22 21 CFG=3
M  V30 22 1 22 23
M  V30 23 1 23 24
M  V30 24 1 24 25
M  V30 25 1 25 26
M  V30 26 1 26 27
M  V30 27 2 27 28
M  V30 28 1 22 29
M  V30 29 1 19 30
M  V30 30 1 30 31
M  V30 31 2 11 32
M  V30 32 1 32 33
M  V30 33 1 32 6
M  V30 34 1 17 12
M  V30 35 1 29 19
M  V30 36 1 31 15
M  V30 37 1 27 22
M  V30 38 1 1 34
M  V30 39 1 1 35
M  V30 40 1 1 36
M  V30 41 1 3 37
M  V30 42 1 3 38
M  V30 43 1 3 39
M  V30 44 1 8 40
M  V30 45 1 8 41
M  V30 46 1 9 42
M  V30 47 1 10 43
M  V30 48 1 13 44
M  V30 49 1 20 45
M  V30 50 1 20 46
M  V30 51 1 21 47
M  V30 52 1 21 48
M  V30 53 1 23 49
M  V30 54 1 23 50
M  V30 55 1 24 51
M  V30 56 1 24 52
M  V30 57 1 25 53
M  V30 58 1 25 54
M  V30 59 1 26 55
M  V30 60 1 29 56
M  V30 61 1 29 57
M  V30 62 1 30 58
M  V30 63 1 30 59
M  V30 64 1 31 60
M  V30 END BOND
M  V30 END CTAB
M  END
>  <Dataset>  (547) 
ChEMBL_Kinases

>  <Ligand_Instance>  (547) 
nan

>  <PDB_ID>  (547) 
nan

>  <Standardized_SMILES>  (547) 
CN(C)C(=O)c1c(N)ccc(-c2cnc3c(c2Cl)[C@]2(CC[C@@]4(CCCNC4=O)C2)CN3)c1F

>  <Name>  (547) 
nan

>  <Pocket>  (547) 
nan

>  <ATP_Site>  (547) 
nan

>  <Peripheral>  (547) 
nan

>  <Num_H_Atoms_ProtBoundConf>  (547) 
nan

>  <Num_Resolved_Atoms>  (547) 
nan

>  <Num_Not_Resolved_Atoms>  (547) 
nan

$$$$
CHEMBL5091400
     RDKit          3D

  0  0  0  0  0  0  0  0  0  0999 V3000
M  V30 BEGIN CTAB
M  V30 COUNTS 60 64 0 0 0
M  V30 BEGIN ATOM
M  V30 1 C -0.112205 -3.585617 4.656302 0
M  V30 2 C 0.262941 -2.222324 4.262134 0
M  V30 3 C 0.942383 -1.348386 5.086946 0
M  V30 4 C 1.284970 -0.060701 4.685755 0
M  V30 5 C 0.928661 0.350380 3.414569 0
M  V30 6 N 1.251205 1.658076 2.944947 0
M  V30 7 C 2.448687 2.013197 2.262606 0
M  V30 8 O 3.363821 1.211429 1.994234 0
M  V30 9 C 2.599545 3.408172 1.858210 0
M  V30 10 N 3.696559 3.837258 1.208601 0
M  V30 11 C 3.865393 5.114100 0.823062 0
M  V30 12 C 2.899587 6.050175 1.085110 0
M  V30 13 C 1.760715 5.628947 1.753792 0
M  V30 14 C 0.688060 6.621323 2.055966 0
M  V30 15 F -0.474947 5.858161 2.210491 0
M  V30 16 F 0.951403 7.319410 3.219807 0
M  V30 17 F 0.515244 7.479935 1.002477 0
M  V30 18 N 1.682314 4.350622 2.094475 0
M  V30 19 C 0.251528 -0.537281 2.608671 0
M  V30 20 C -0.098648 -1.832769 2.998762 0
M  V30 21 C -0.817778 -2.626750 1.999421 0
M  V30 22 C -1.933542 -3.385464 2.291793 0
M  V30 23 C -2.545952 -4.102115 1.282900 0
M  V30 24 C -2.033164 -4.047715 0.002208 0
M  V30 25 C -0.905229 -3.289870 -0.328983 0
M  V30 26 C -0.298413 -2.570504 0.706780 0
M  V30 27 O -0.269327 -3.128469 -1.551242 0
M  V30 28 C -0.891476 -3.269110 -2.827016 0
M  V30 29 C -2.099021 -2.365488 -2.962064 0
M  V30 30 C -2.140513 -1.763739 -4.339834 0
M  V30 31 O -1.082950 -0.871309 -4.499923 0
M  V30 32 C 0.125825 -1.391950 -4.115270 0
M  V30 33 C 0.068227 -2.903632 -3.928988 0
M  V30 34 C -1.282375 -4.727561 -3.011502 0
M  V30 35 C -2.576271 -5.005658 -2.317679 0
M  V30 36 O -3.613089 -5.417380 -2.940947 0
M  V30 37 N -2.782098 -4.843039 -0.915802 0
M  V30 38 H -0.143449 -4.302299 3.827005 0
M  V30 39 H 0.712433 -3.965781 5.328207 0
M  V30 40 H -1.011714 -3.606490 5.319163 0
M  V30 41 H 1.215487 -1.689440 6.086311 0
M  V30 42 H 1.815739 0.626706 5.325549 0
M  V30 43 H 0.515207 2.370913 3.144750 0
M  V30 44 H 4.773117 5.390230 0.304156 0
M  V30 45 H 3.035914 7.077732 0.774609 0
M  V30 46 H -0.008013 -0.175317 1.622424 0
M  V30 47 H -2.308070 -3.404664 3.307080 0
M  V30 48 H -3.427285 -4.709028 1.484239 0
M  V30 49 H 0.580048 -1.984736 0.431471 0
M  V30 50 H -1.912432 -1.514459 -2.251441 0
M  V30 51 H -3.032621 -2.857440 -2.673125 0
M  V30 52 H -2.161102 -2.522625 -5.134882 0
M  V30 53 H -3.103599 -1.217074 -4.408468 0
M  V30 54 H 0.812828 -1.251343 -4.999490 0
M  V30 55 H 0.615004 -0.883676 -3.266988 0
M  V30 56 H -0.299530 -3.327648 -4.887540 0
M  V30 57 H 1.085935 -3.281175 -3.769759 0
M  V30 58 H -0.516086 -5.354530 -2.517725 0
M  V30 59 H -1.333640 -5.007242 -4.083236 0
M  V30 60 H -3.577563 -5.359930 -0.468211 0
M  V30 END ATOM
M  V30 BEGIN BOND
M  V30 1 1 1 2
M  V30 2 2 2 3
M  V30 3 1 3 4
M  V30 4 2 4 5
M  V30 5 1 5 6
M  V30 6 1 6 7
M  V30 7 2 7 8
M  V30 8 1 7 9
M  V30 9 2 9 10
M  V30 10 1 10 11
M  V30 11 2 11 12
M  V30 12 1 12 13
M  V30 13 1 13 14
M  V30 14 1 14 15
M  V30 15 1 14 16
M  V30 16 1 14 17
M  V30 17 2 13 18
M  V30 18 1 5 19
M  V30 19 2 19 20
M  V30 20 1 20 21
M  V30 21 2 21 22
M  V30 22 1 22 23
M  V30 23 2 23 24
M  V30 24 1 24 25
M  V30 25 2 25 26
M  V30 26 1 25 27
M  V30 27 1 27 28
M  V30 28 1 28 29
M  V30 29 1 29 30
M  V30 30 1 30 31
M  V30 31 1 31 32
M  V30 32 1 32 33
M  V30 33 1 28 34
M  V30 34 1 34 35
M  V30 35 2 35 36
M  V30 36 1 35 37
M  V30 37 1 20 2
M  V30 38 1 26 21
M  V30 39 1 33 28
M  V30 40 1 18 9
M  V30 41 1 37 24
M  V30 42 1 1 38
M  V30 43 1 1 39
M  V30 44 1 1 40
M  V30 45 1 3 41
M  V30 46 1 4 42
M  V30 47 1 6 43
M  V30 48 1 11 44
M  V30 49 1 12 45
M  V30 50 1 19 46
M  V30 51 1 22 47
M  V30 52 1 23 48
M  V30 53 1 26 49
M  V30 54 1 29 50
M  V30 55 1 29 51
M  V30 56 1 30 52
M  V30 57 1 30 53
M  V30 58 1 32 54
M  V30 59 1 32 55
M  V30 60 1 33 56
M  V30 61 1 33 57
M  V30 62 1 34 58
M  V30 63 1 34 59
M  V30 64 1 37 60
M  V30 END BOND
M  V30 END CTAB
M  END
>  <Dataset>  (548) 
ChEMBL_Kinases

>  <Ligand_Instance>  (548) 
nan

>  <PDB_ID>  (548) 
nan

>  <Standardized_SMILES>  (548) 
Cc1ccc(NC(=O)c2nccc(C(F)(F)F)n2)cc1-c1ccc2c(c1)OC1(CCOCC1)CC(=O)N2

>  <Name>  (548) 
nan

>  <Pocket>  (548) 
nan

>  <ATP_Site>  (548) 
nan

>  <Peripheral>  (548) 
nan

>  <Num_H_Atoms_ProtBoundConf>  (548) 
nan

>  <Num_Resolved_Atoms>  (548) 
nan

>  <Num_Not_Resolved_Atoms>  (548) 
nan

$$$$
CHEMBL583679
     RDKit          3D

  0  0  0  0  0  0  0  0  0  0999 V3000
M  V30 BEGIN CTAB
M  V30 COUNTS 67 70 0 0 0
M  V30 BEGIN ATOM
M  V30 1 C -2.162760 0.340295 2.815890 0
M  V30 2 C -0.729314 0.351611 3.238175 0 CFG=2
M  V30 3 C -0.361260 1.625621 3.934133 0
M  V30 4 C -1.162729 2.678608 4.305252 0
M  V30 5 C -0.585373 3.756327 4.943913 0
M  V30 6 C 0.758967 3.848877 5.238545 0
M  V30 7 C 1.567668 2.773524 4.857725 0
M  V30 8 C 1.007928 1.692454 4.220668 0
M  V30 9 N 0.215819 0.052620 2.177898 0
M  V30 10 C 0.314242 0.891776 1.015416 0
M  V30 11 C -0.519070 0.525002 -0.123010 0
M  V30 12 O -0.324896 1.372250 -1.065094 0
M  V30 13 N -1.455029 -0.522629 -0.395672 0
M  V30 14 C -1.964016 -0.348420 -1.715211 0
M  V30 15 C -3.068631 0.378905 -2.047707 0
M  V30 16 C -3.405930 0.430630 -3.383441 0
M  V30 17 C -2.656782 -0.225569 -4.338305 0
M  V30 18 C -1.525464 -0.970677 -3.999199 0
M  V30 19 C -1.204041 -1.010572 -2.658237 0
M  V30 20 C -0.933596 -1.556916 -5.243316 0
M  V30 21 C -1.402484 -0.523768 -6.254974 0 CFG=1
M  V30 22 C -2.826530 -0.311847 -5.825660 0
M  V30 23 C -0.614561 0.728844 -6.147855 0
M  V30 24 O -0.760364 1.761917 -5.442948 0
M  V30 25 N 0.442928 0.516757 -7.088805 0
M  V30 26 C 0.058855 -0.532671 -7.999650 0
M  V30 27 O 0.753990 -0.973378 -8.953225 0
M  V30 28 N -1.255668 -0.976865 -7.617094 0
M  V30 29 C -2.189935 -1.708774 -8.437565 0
M  V30 30 C 1.035131 -1.112524 2.382710 0
M  V30 31 O 0.736423 -1.653225 3.504511 0
M  V30 32 C 2.062211 -1.639526 1.482835 0
M  V30 33 C 1.586960 -2.036343 0.116902 0
M  V30 34 C 2.610617 -2.895897 2.128715 0
M  V30 35 C 3.217489 -0.657171 1.414350 0
M  V30 36 H -2.767311 0.626119 3.683459 0
M  V30 37 H -2.414054 -0.744243 2.630062 0
M  V30 38 H -2.376604 0.956687 1.930895 0
M  V30 39 H -0.634139 -0.424409 4.049234 0
M  V30 40 H -2.182176 2.542347 4.049030 0
M  V30 41 H -1.311218 4.541051 5.196689 0
M  V30 42 H 1.081119 4.755867 5.745693 0
M  V30 43 H 2.614984 2.869598 5.099139 0
M  V30 44 H 1.747884 0.924297 3.978732 0
M  V30 45 H 1.389496 1.028230 0.693095 0
M  V30 46 H 0.029087 1.942414 1.322404 0
M  V30 47 H -1.521810 -1.146292 0.441632 0
M  V30 48 H -3.605928 0.865469 -1.247322 0
M  V30 49 H -4.281043 1.005834 -3.653902 0
M  V30 50 H -0.308855 -1.607957 -2.446200 0
M  V30 51 H -1.403251 -2.523368 -5.517260 0
M  V30 52 H 0.159014 -1.628857 -5.217601 0
M  V30 53 H -3.308460 0.573835 -6.252540 0
M  V30 54 H -3.387526 -1.255888 -6.056680 0
M  V30 55 H 1.378421 1.016567 -7.156777 0
M  V30 56 H -3.192059 -1.195495 -8.446710 0
M  V30 57 H -2.301118 -2.766612 -8.128652 0
M  V30 58 H -1.849581 -1.700712 -9.491314 0
M  V30 59 H 2.183870 -2.903193 -0.294206 0
M  V30 60 H 1.714946 -1.245431 -0.650288 0
M  V30 61 H 0.559328 -2.387979 0.141068 0
M  V30 62 H 3.186716 -2.621332 3.019179 0
M  V30 63 H 1.769644 -3.553260 2.469027 0
M  V30 64 H 3.254612 -3.443376 1.399042 0
M  V30 65 H 4.200101 -1.131390 1.670678 0
M  V30 66 H 3.373048 -0.281508 0.367941 0
M  V30 67 H 3.108945 0.177264 2.134487 0
M  V30 END ATOM
M  V30 BEGIN BOND
M  V30 1 1 1 2
M  V30 2 1 2 3
M  V30 3 2 3 4
M  V30 4 1 4 5
M  V30 5 2 5 6
M  V30 6 1 6 7
M  V30 7 2 7 8
M  V30 8 1 2 9
M  V30 9 1 9 10
M  V30 10 1 10 11
M  V30 11 2 11 12
M  V30 12 1 11 13
M  V30 13 1 13 14
M  V30 14 2 14 15
M  V30 15 1 15 16
M  V30 16 2 16 17
M  V30 17 1 17 18
M  V30 18 2 18 19
M  V30 19 1 18 20
M  V30 20 1 20 21
M  V30 21 1 21 22
M  V30 22 1 21 23
M  V30 23 2 23 24
M  V30 24 1 23 25
M  V30 25 1 25 26
M  V30 26 2 26 27
M  V30 27 1 26 28
M  V30 28 1 28 29
M  V30 29 1 9 30
M  V30 30 2 30 31
M  V30 31 1 30 32
M  V30 32 1 32 33
M  V30 33 1 32 34
M  V30 34 1 32 35
M  V30 35 1 8 3
M  V30 36 1 19 14
M  V30 37 1 21 28 CFG=3
M  V30 38 1 22 17
M  V30 39 1 1 36
M  V30 40 1 1 37
M  V30 41 1 1 38
M  V30 42 1 2 39 CFG=1
M  V30 43 1 4 40
M  V30 44 1 5 41
M  V30 45 1 6 42
M  V30 46 1 7 43
M  V30 47 1 8 44
M  V30 48 1 10 45
M  V30 49 1 10 46
M  V30 50 1 13 47
M  V30 51 1 15 48
M  V30 52 1 16 49
M  V30 53 1 19 50
M  V30 54 1 20 51
M  V30 55 1 20 52
M  V30 56 1 22 53
M  V30 57 1 22 54
M  V30 58 1 25 55
M  V30 59 1 29 56
M  V30 60 1 29 57
M  V30 61 1 29 58
M  V30 62 1 33 59
M  V30 63 1 33 60
M  V30 64 1 33 61
M  V30 65 1 34 62
M  V30 66 1 34 63
M  V30 67 1 34 64
M  V30 68 1 35 65
M  V30 69 1 35 66
M  V30 70 1 35 67
M  V30 END BOND
M  V30 END CTAB
M  END
>  <Dataset>  (549) 
ChEMBL_Kinases

>  <Ligand_Instance>  (549) 
nan

>  <PDB_ID>  (549) 
nan

>  <Standardized_SMILES>  (549) 
C[C@H](c1ccccc1)N(CC(=O)Nc1ccc2c(c1)C[C@@]1(C2)C(=O)NC(=O)N1C)C(=O)C(C)(C)C

>  <Name>  (549) 
nan

>  <Pocket>  (549) 
nan

>  <ATP_Site>  (549) 
nan

>  <Peripheral>  (549) 
nan

>  <Num_H_Atoms_ProtBoundConf>  (549) 
nan

>  <Num_Resolved_Atoms>  (549) 
nan

>  <Num_Not_Resolved_Atoms>  (549) 
nan

$$$$
CHEMBL5091523
     RDKit          3D

  0  0  0  0  0  0  0  0  0  0999 V3000
M  V30 BEGIN CTAB
M  V30 COUNTS 61 65 0 0 0
M  V30 BEGIN ATOM
M  V30 1 C -0.917225 -3.368597 4.638039 0
M  V30 2 C -0.383920 -2.047305 4.208981 0
M  V30 3 C -0.303448 -1.003357 5.120226 0
M  V30 4 C 0.185720 0.235380 4.757316 0
M  V30 5 C 0.602097 0.425322 3.449347 0
M  V30 6 N 1.127816 1.635495 2.918621 0
M  V30 7 C 2.429046 2.190438 2.800543 0
M  V30 8 O 3.441002 1.578995 3.219666 0
M  V30 9 C 2.465902 3.502375 2.162197 0
M  V30 10 C 3.714963 4.074230 2.029668 0
M  V30 11 C 3.848349 5.327780 1.431318 0
M  V30 12 C 2.717583 5.985993 0.975219 0
M  V30 13 C 1.472606 5.378614 1.125633 0
M  V30 14 C 0.206073 6.011345 0.665956 0
M  V30 15 F -0.641868 4.992904 0.269260 0
M  V30 16 F -0.417070 6.697620 1.695752 0
M  V30 17 F 0.459674 6.844060 -0.406613 0
M  V30 18 N 1.404817 4.188227 1.700791 0
M  V30 19 C 0.506486 -0.641202 2.567581 0
M  V30 20 C 0.017878 -1.895883 2.910027 0
M  V30 21 C -0.043294 -2.956339 1.908431 0
M  V30 22 C 0.337002 -4.275953 2.046134 0
M  V30 23 C 0.207876 -5.147404 0.983822 0
M  V30 24 C -0.307070 -4.711603 -0.242465 0
M  V30 25 C -0.686603 -3.376758 -0.366168 0
M  V30 26 C -0.557140 -2.498413 0.702476 0
M  V30 27 O -1.198152 -2.864310 -1.523218 0
M  V30 28 C -1.383407 -3.215475 -2.847566 0
M  V30 29 C -2.839194 -3.494666 -3.204644 0
M  V30 30 C -3.481834 -2.122199 -3.393145 0
M  V30 31 O -2.944428 -1.215895 -2.470538 0
M  V30 32 C -1.717953 -0.801937 -3.003294 0
M  V30 33 C -1.012247 -1.972363 -3.668510 0
M  V30 34 C -0.545800 -4.321078 -3.384571 0
M  V30 35 C -0.605694 -5.573701 -2.575180 0
M  V30 36 O -0.941203 -6.645119 -3.182507 0
M  V30 37 N -0.345429 -5.795899 -1.193222 0
M  V30 38 H -1.455100 -3.892570 3.827457 0
M  V30 39 H -1.716993 -3.120377 5.392234 0
M  V30 40 H -0.187252 -3.977147 5.179851 0
M  V30 41 H -0.627873 -1.149231 6.141710 0
M  V30 42 H 0.277030 1.080870 5.399538 0
M  V30 43 H 0.222301 2.069464 2.599025 0
M  V30 44 H 4.626771 3.591256 2.374007 0
M  V30 45 H 4.803850 5.827610 1.299383 0
M  V30 46 H 2.699353 6.958042 0.496851 0
M  V30 47 H 0.827096 -0.524939 1.525717 0
M  V30 48 H 0.723594 -4.529658 3.023338 0
M  V30 49 H 0.516886 -6.177037 1.128515 0
M  V30 50 H -0.881775 -1.491673 0.492810 0
M  V30 51 H -3.361955 -4.090112 -2.452510 0
M  V30 52 H -2.820832 -3.945527 -4.226158 0
M  V30 53 H -4.591058 -2.164866 -3.316734 0
M  V30 54 H -3.249550 -1.712606 -4.399927 0
M  V30 55 H -1.099208 -0.353519 -2.201068 0
M  V30 56 H -1.902007 -0.031651 -3.771984 0
M  V30 57 H 0.074960 -1.827138 -3.464235 0
M  V30 58 H -1.241981 -2.079664 -4.731351 0
M  V30 59 H 0.504780 -3.942109 -3.475402 0
M  V30 60 H -0.868143 -4.536387 -4.405861 0
M  V30 61 H -0.172618 -6.764966 -0.825138 0
M  V30 END ATOM
M  V30 BEGIN BOND
M  V30 1 1 1 2
M  V30 2 2 2 3
M  V30 3 1 3 4
M  V30 4 2 4 5
M  V30 5 1 5 6
M  V30 6 1 6 7
M  V30 7 2 7 8
M  V30 8 1 7 9
M  V30 9 2 9 10
M  V30 10 1 10 11
M  V30 11 2 11 12
M  V30 12 1 12 13
M  V30 13 1 13 14
M  V30 14 1 14 15
M  V30 15 1 14 16
M  V30 16 1 14 17
M  V30 17 2 13 18
M  V30 18 1 5 19
M  V30 19 2 19 20
M  V30 20 1 20 21
M  V30 21 2 21 22
M  V30 22 1 22 23
M  V30 23 2 23 24
M  V30 24 1 24 25
M  V30 25 2 25 26
M  V30 26 1 25 27
M  V30 27 1 27 28
M  V30 28 1 28 29
M  V30 29 1 29 30
M  V30 30 1 30 31
M  V30 31 1 31 32
M  V30 32 1 32 33
M  V30 33 1 28 34
M  V30 34 1 34 35
M  V30 35 2 35 36
M  V30 36 1 35 37
M  V30 37 1 20 2
M  V30 38 1 26 21
M  V30 39 1 33 28
M  V30 40 1 18 9
M  V30 41 1 37 24
M  V30 42 1 1 38
M  V30 43 1 1 39
M  V30 44 1 1 40
M  V30 45 1 3 41
M  V30 46 1 4 42
M  V30 47 1 6 43
M  V30 48 1 10 44
M  V30 49 1 11 45
M  V30 50 1 12 46
M  V30 51 1 19 47
M  V30 52 1 22 48
M  V30 53 1 23 49
M  V30 54 1 26 50
M  V30 55 1 29 51
M  V30 56 1 29 52
M  V30 57 1 30 53
M  V30 58 1 30 54
M  V30 59 1 32 55
M  V30 60 1 32 56
M  V30 61 1 33 57
M  V30 62 1 33 58
M  V30 63 1 34 59
M  V30 64 1 34 60
M  V30 65 1 37 61
M  V30 END BOND
M  V30 END CTAB
M  END
>  <Dataset>  (550) 
ChEMBL_Kinases

>  <Ligand_Instance>  (550) 
nan

>  <PDB_ID>  (550) 
nan

>  <Standardized_SMILES>  (550) 
Cc1ccc(NC(=O)c2cccc(C(F)(F)F)n2)cc1-c1ccc2c(c1)OC1(CCOCC1)CC(=O)N2

>  <Name>  (550) 
nan

>  <Pocket>  (550) 
nan

>  <ATP_Site>  (550) 
nan

>  <Peripheral>  (550) 
nan

>  <Num_H_Atoms_ProtBoundConf>  (550) 
nan

>  <Num_Resolved_Atoms>  (550) 
nan

>  <Num_Not_Resolved_Atoms>  (550) 
nan

$$$$
CHEMBL3751963
     RDKit          3D

  0  0  0  0  0  0  0  0  0  0999 V3000
M  V30 BEGIN CTAB
M  V30 COUNTS 25 26 0 0 0
M  V30 BEGIN ATOM
M  V30 1 N 0.071953 -4.563608 2.566268 0
M  V30 2 C -0.536137 -3.613601 2.353905 0
M  V30 3 C -1.290984 -2.395348 2.074701 0
M  V30 4 C -0.622819 -1.237118 2.831078 0
M  V30 5 C 0.810168 -1.073778 2.367085 0
M  V30 6 N 0.867202 -0.785476 0.964343 0
M  V30 7 C 0.923936 -1.691024 -0.059235 0
M  V30 8 N 0.958598 -1.104131 -1.240914 0
M  V30 9 C 0.926324 0.228297 -1.053209 0
M  V30 10 C 0.940231 1.327441 -1.906368 0
M  V30 11 Br 1.017443 1.074289 -3.794573 0
M  V30 12 C 0.898971 2.622038 -1.416664 0
M  V30 13 Br 0.918547 4.113635 -2.596308 0
M  V30 14 C 0.842788 2.793744 -0.033897 0
M  V30 15 Br 0.787213 4.582100 0.611003 0
M  V30 16 C 0.830734 1.685130 0.774211 0
M  V30 17 Br 0.761650 2.044169 2.632307 0
M  V30 18 C 0.870912 0.389298 0.303820 0
M  V30 19 H -1.290940 -2.162551 0.991257 0
M  V30 20 H -2.316886 -2.488754 2.454144 0
M  V30 21 H -0.693538 -1.470113 3.898332 0
M  V30 22 H -1.202899 -0.325774 2.581951 0
M  V30 23 H 1.253246 -2.109903 2.493887 0
M  V30 24 H 1.417926 -0.473523 3.025997 0
M  V30 25 H 0.941809 -2.770074 0.006842 0
M  V30 END ATOM
M  V30 BEGIN BOND
M  V30 1 3 1 2
M  V30 2 1 2 3
M  V30 3 1 3 4
M  V30 4 1 4 5
M  V30 5 1 5 6
M  V30 6 1 6 7
M  V30 7 2 7 8
M  V30 8 1 8 9
M  V30 9 2 9 10
M  V30 10 1 10 11
M  V30 11 1 10 12
M  V30 12 1 12 13
M  V30 13 2 12 14
M  V30 14 1 14 15
M  V30 15 1 14 16
M  V30 16 1 16 17
M  V30 17 2 16 18
M  V30 18 1 18 6
M  V30 19 1 18 9
M  V30 20 1 3 19
M  V30 21 1 3 20
M  V30 22 1 4 21
M  V30 23 1 4 22
M  V30 24 1 5 23
M  V30 25 1 5 24
M  V30 26 1 7 25
M  V30 END BOND
M  V30 END CTAB
M  END
>  <Dataset>  (551) 
ChEMBL_Kinases

>  <Ligand_Instance>  (551) 
nan

>  <PDB_ID>  (551) 
nan

>  <Standardized_SMILES>  (551) 
N#CCCCn1cnc2c(Br)c(Br)c(Br)c(Br)c21

>  <Name>  (551) 
nan

>  <Pocket>  (551) 
nan

>  <ATP_Site>  (551) 
nan

>  <Peripheral>  (551) 
nan

>  <Num_H_Atoms_ProtBoundConf>  (551) 
nan

>  <Num_Resolved_Atoms>  (551) 
nan

>  <Num_Not_Resolved_Atoms>  (551) 
nan

$$$$
CHEMBL583635
     RDKit          3D

  0  0  0  0  0  0  0  0  0  0999 V3000
M  V30 BEGIN CTAB
M  V30 COUNTS 43 46 0 0 0
M  V30 BEGIN ATOM
M  V30 1 C 4.630473 -3.565030 -1.495082 0
M  V30 2 O 4.986551 -2.196068 -1.524583 0
M  V30 3 C 4.124752 -1.289911 -0.877026 0
M  V30 4 C 2.987832 -1.740167 -0.246930 0
M  V30 5 C 2.144396 -0.839247 0.388529 0
M  V30 6 C 2.547709 0.476978 0.322373 0
M  V30 7 C 3.680322 0.956212 -0.300912 0
M  V30 8 C 4.500922 0.039672 -0.924579 0
M  V30 9 O 5.660694 0.418048 -1.578040 0
M  V30 10 C 6.032867 1.785534 -1.622322 0
M  V30 11 S 1.343594 1.450865 1.185840 0
M  V30 12 O 1.937679 2.144420 2.353957 0
M  V30 13 O 0.665387 2.403571 0.252508 0
M  V30 14 C 0.338240 0.083906 1.615558 0
M  V30 15 C -0.822120 -0.225337 2.281787 0
M  V30 16 N -1.702672 0.644696 2.935411 0
M  V30 17 C -2.921180 0.302249 3.634784 0
M  V30 18 C -3.930618 -0.380109 2.816390 0
M  V30 19 C -4.673195 0.303269 1.857346 0
M  V30 20 Cl -4.348064 2.014046 1.652087 0
M  V30 21 C -5.650885 -0.243980 1.044014 0
M  V30 22 C -5.916036 -1.588284 1.194745 0
M  V30 23 C -5.219427 -2.345816 2.130965 0
M  V30 24 C -4.261455 -1.720115 2.900454 0
M  V30 25 Cl -3.427181 -2.712825 4.077224 0
M  V30 26 N -0.922074 -1.552127 2.162535 0
M  V30 27 N 0.091311 -2.046941 1.476642 0
M  V30 28 C 0.920496 -1.053824 1.105463 0
M  V30 29 H 5.390828 -4.172368 -2.027719 0
M  V30 30 H 4.562551 -3.901310 -0.420833 0
M  V30 31 H 3.605896 -3.761329 -1.892917 0
M  V30 32 H 2.789636 -2.798194 -0.269927 0
M  V30 33 H 3.933066 2.006712 -0.312499 0
M  V30 34 H 7.018998 1.905028 -2.144203 0
M  V30 35 H 6.120540 2.217085 -0.597553 0
M  V30 36 H 5.308188 2.392225 -2.185666 0
M  V30 37 H -1.451229 1.681314 2.918830 0
M  V30 38 H -3.389134 1.184787 4.075998 0
M  V30 39 H -2.613797 -0.414693 4.447826 0
M  V30 40 H -6.180404 0.347865 0.327288 0
M  V30 41 H -6.655791 -2.099161 0.610138 0
M  V30 42 H -5.425734 -3.399413 2.249993 0
M  V30 43 H 0.163036 -3.091615 1.290896 0
M  V30 END ATOM
M  V30 BEGIN BOND
M  V30 1 1 1 2
M  V30 2 1 2 3
M  V30 3 2 3 4
M  V30 4 1 4 5
M  V30 5 2 5 6
M  V30 6 1 6 7
M  V30 7 2 7 8
M  V30 8 1 8 9
M  V30 9 1 9 10
M  V30 10 1 6 11
M  V30 11 2 11 12
M  V30 12 2 11 13
M  V30 13 1 11 14
M  V30 14 1 14 15
M  V30 15 1 15 16
M  V30 16 1 16 17
M  V30 17 1 17 18
M  V30 18 2 18 19
M  V30 19 1 19 20
M  V30 20 1 19 21
M  V30 21 2 21 22
M  V30 22 1 22 23
M  V30 23 2 23 24
M  V30 24 1 24 25
M  V30 25 2 15 26
M  V30 26 1 26 27
M  V30 27 1 27 28
M  V30 28 1 8 3
M  V30 29 2 28 14
M  V30 30 1 28 5
M  V30 31 1 24 18
M  V30 32 1 1 29
M  V30 33 1 1 30
M  V30 34 1 1 31
M  V30 35 1 4 32
M  V30 36 1 7 33
M  V30 37 1 10 34
M  V30 38 1 10 35
M  V30 39 1 10 36
M  V30 40 1 16 37
M  V30 41 1 17 38
M  V30 42 1 17 39
M  V30 43 1 21 40
M  V30 44 1 22 41
M  V30 45 1 23 42
M  V30 46 1 27 43
M  V30 END BOND
M  V30 END CTAB
M  END
>  <Dataset>  (552) 
ChEMBL_Kinases

>  <Ligand_Instance>  (552) 
nan

>  <PDB_ID>  (552) 
nan

>  <Standardized_SMILES>  (552) 
COc1cc2c(cc1OC)S(=O)(=O)c1c(NCc3c(Cl)cccc3Cl)n[nH]c1-2

>  <Name>  (552) 
nan

>  <Pocket>  (552) 
nan

>  <ATP_Site>  (552) 
nan

>  <Peripheral>  (552) 
nan

>  <Num_H_Atoms_ProtBoundConf>  (552) 
nan

>  <Num_Resolved_Atoms>  (552) 
nan

>  <Num_Not_Resolved_Atoms>  (552) 
nan

$$$$
CHEMBL3702326
     RDKit          3D

  0  0  0  0  0  0  0  0  0  0999 V3000
M  V30 BEGIN CTAB
M  V30 COUNTS 41 43 0 0 0
M  V30 BEGIN ATOM
M  V30 1 C -0.229337 -2.918764 0.199284 0
M  V30 2 C 1.161507 -2.601854 -0.191125 0
M  V30 3 C 2.100909 -3.598491 0.089852 0
M  V30 4 C 1.963700 -4.886857 0.696949 0
M  V30 5 O 0.907022 -5.391287 1.112374 0
M  V30 6 O 3.055238 -5.713795 0.878292 0
M  V30 7 S 3.627372 -2.948131 -0.481922 0
M  V30 8 C 2.974318 -1.362426 -1.081904 0
M  V30 9 N 3.580772 -0.303339 -1.676270 0
M  V30 10 C 2.823991 0.746069 -2.018918 0
M  V30 11 N 1.528111 0.664513 -1.746359 0
M  V30 12 C 0.929726 -0.360217 -1.168323 0
M  V30 13 N -0.459869 -0.099082 -1.045183 0
M  V30 14 C -1.161513 0.777897 -0.124286 0
M  V30 15 C -1.802701 1.705545 -0.969356 0
M  V30 16 C -2.586520 2.732873 -0.469629 0
M  V30 17 C -2.766371 2.881049 0.894823 0
M  V30 18 F -3.487844 3.817952 1.551176 0
M  V30 19 C -2.119053 1.949274 1.660231 0
M  V30 20 C -1.331084 0.909054 1.275369 0
M  V30 21 O -0.615231 -0.096810 1.796482 0
M  V30 22 C -0.331824 -0.552121 3.054231 0
M  V30 23 C 0.417603 0.365096 3.976938 0
M  V30 24 C 1.771230 0.749355 3.411972 0
M  V30 25 F -0.309096 1.427568 4.377124 0
M  V30 26 C 1.625866 -1.474066 -0.785743 0
M  V30 27 H -0.590269 -3.800169 -0.413977 0
M  V30 28 H -0.275937 -3.289819 1.244073 0
M  V30 29 H -0.961745 -2.141282 0.064762 0
M  V30 30 H 3.139364 -6.303626 1.726000 0
M  V30 31 H 3.374397 1.543596 -2.483936 0
M  V30 32 H -1.003987 -0.645324 -1.747564 0
M  V30 33 H -1.808197 1.787800 -2.054163 0
M  V30 34 H -3.118098 3.493703 -1.049041 0
M  V30 35 H -2.210796 1.973105 2.731253 0
M  V30 36 H -1.313290 -0.759241 3.600234 0
M  V30 37 H 0.183881 -1.546090 2.963119 0
M  V30 38 H 0.613735 -0.265353 4.907786 0
M  V30 39 H 2.507618 -0.038533 3.737761 0
M  V30 40 H 2.037390 1.732060 3.811731 0
M  V30 41 H 1.711847 0.744119 2.300967 0
M  V30 END ATOM
M  V30 BEGIN BOND
M  V30 1 1 1 2
M  V30 2 2 2 3
M  V30 3 1 3 4
M  V30 4 2 4 5
M  V30 5 1 4 6
M  V30 6 1 3 7
M  V30 7 1 7 8
M  V30 8 2 8 9
M  V30 9 1 9 10
M  V30 10 2 10 11
M  V30 11 1 11 12
M  V30 12 1 12 13
M  V30 13 1 13 14
M  V30 14 2 14 15
M  V30 15 1 15 16
M  V30 16 2 16 17
M  V30 17 1 17 18
M  V30 18 1 17 19
M  V30 19 2 19 20
M  V30 20 1 20 21
M  V30 21 1 21 22
M  V30 22 1 22 23
M  V30 23 1 23 24
M  V30 24 1 23 25
M  V30 25 2 12 26
M  V30 26 1 26 2
M  V30 27 1 26 8
M  V30 28 1 20 14
M  V30 29 1 1 27
M  V30 30 1 1 28
M  V30 31 1 1 29
M  V30 32 1 6 30
M  V30 33 1 10 31
M  V30 34 1 13 32
M  V30 35 1 15 33
M  V30 36 1 16 34
M  V30 37 1 19 35
M  V30 38 1 22 36
M  V30 39 1 22 37
M  V30 40 1 23 38
M  V30 41 1 24 39
M  V30 42 1 24 40
M  V30 43 1 24 41
M  V30 END BOND
M  V30 END CTAB
M  END
>  <Dataset>  (553) 
ChEMBL_Kinases

>  <Ligand_Instance>  (553) 
nan

>  <PDB_ID>  (553) 
nan

>  <Standardized_SMILES>  (553) 
Cc1c(C(=O)O)sc2ncnc(Nc3ccc(F)cc3OCC(C)F)c12

>  <Name>  (553) 
nan

>  <Pocket>  (553) 
nan

>  <ATP_Site>  (553) 
nan

>  <Peripheral>  (553) 
nan

>  <Num_H_Atoms_ProtBoundConf>  (553) 
nan

>  <Num_Resolved_Atoms>  (553) 
nan

>  <Num_Not_Resolved_Atoms>  (553) 
nan

$$$$
CHEMBL3702327
     RDKit          3D

  0  0  0  0  0  0  0  0  0  0999 V3000
M  V30 BEGIN CTAB
M  V30 COUNTS 63 66 0 0 0
M  V30 BEGIN ATOM
M  V30 1 C 0.591457 -1.343759 0.210989 0
M  V30 2 C 0.402842 -1.270820 1.669818 0
M  V30 3 C 0.902015 -0.194838 2.336972 0
M  V30 4 C 1.611592 1.040246 2.175907 0
M  V30 5 O 1.829234 1.715519 3.241980 0
M  V30 6 N 2.185007 1.797309 1.136540 0
M  V30 7 C 2.764910 2.981335 1.637384 0
M  V30 8 C 3.397725 3.822418 0.584865 0
M  V30 9 C 2.534442 4.363401 -0.491761 0
M  V30 10 C 3.431874 5.211885 -1.408938 0
M  V30 11 C 2.558168 5.321688 -2.621974 0
M  V30 12 N 1.865434 4.085433 -2.729813 0
M  V30 13 C 2.289434 3.272686 -3.827233 0
M  V30 14 C 2.044057 3.333647 -1.491246 0
M  V30 15 S 0.478379 -0.507074 4.019718 0
M  V30 16 C -0.361472 -2.096009 3.721883 0
M  V30 17 N -0.956765 -2.934082 4.584005 0
M  V30 18 C -1.522028 -4.064470 4.143533 0
M  V30 19 N -1.412387 -4.218259 2.824215 0
M  V30 20 C -0.827155 -3.398330 1.964082 0
M  V30 21 N -0.891947 -3.877821 0.628487 0
M  V30 22 C -1.554428 -5.066796 0.302491 0
M  V30 23 C -0.917731 -6.234714 -0.153770 0
M  V30 24 C -1.601223 -7.397813 -0.481299 0
M  V30 25 C -2.966899 -7.402577 -0.351612 0
M  V30 26 F -3.457194 -8.610764 -0.711656 0
M  V30 27 C -3.593873 -6.245442 0.098625 0
M  V30 28 C -2.926301 -5.048785 0.437939 0
M  V30 29 O -3.920599 -4.257080 0.793545 0
M  V30 30 C -4.136413 -2.979471 1.208549 0
M  V30 31 C -5.176754 -2.262978 0.312127 0
M  V30 32 C -4.824560 -2.977369 2.587167 0
M  V30 33 F -6.053719 -3.645052 2.482707 0
M  V30 34 C -0.234522 -2.227404 2.374772 0
M  V30 35 H 1.176985 -0.546906 -0.239029 0
M  V30 36 H -0.361627 -1.387775 -0.350263 0
M  V30 37 H 1.161965 -2.283585 -0.077434 0
M  V30 38 H 2.077332 1.342188 0.220315 0
M  V30 39 H 3.596634 2.670863 2.336864 0
M  V30 40 H 2.052226 3.586319 2.254001 0
M  V30 41 H 4.249880 3.299752 0.083449 0
M  V30 42 H 3.886574 4.725321 1.070873 0
M  V30 43 H 1.729548 5.023574 -0.151842 0
M  V30 44 H 3.617922 6.205651 -0.985111 0
M  V30 45 H 4.362129 4.668469 -1.680927 0
M  V30 46 H 3.200852 5.408871 -3.546670 0
M  V30 47 H 1.867147 6.194217 -2.561841 0
M  V30 48 H 1.730214 2.306886 -3.746990 0
M  V30 49 H 2.051989 3.735605 -4.804019 0
M  V30 50 H 3.376992 3.038520 -3.718864 0
M  V30 51 H 2.804941 2.563978 -1.595762 0
M  V30 52 H 1.072437 2.951230 -1.150453 0
M  V30 53 H -1.988782 -4.712043 4.855391 0
M  V30 54 H -0.622530 -3.686998 -0.354536 0
M  V30 55 H 0.171951 -6.075579 -0.204802 0
M  V30 56 H -0.884807 -8.137022 -0.800098 0
M  V30 57 H -4.656249 -6.536930 0.102449 0
M  V30 58 H -3.267835 -2.306636 1.332175 0
M  V30 59 H -5.023888 -1.170720 0.360665 0
M  V30 60 H -6.206274 -2.470955 0.656682 0
M  V30 61 H -5.109594 -2.624697 -0.729313 0
M  V30 62 H -4.203837 -3.454497 3.339955 0
M  V30 63 H -5.068360 -1.943526 2.896432 0
M  V30 END ATOM
M  V30 BEGIN BOND
M  V30 1 1 1 2
M  V30 2 2 2 3
M  V30 3 1 3 4
M  V30 4 2 4 5
M  V30 5 1 4 6
M  V30 6 1 6 7
M  V30 7 1 7 8
M  V30 8 1 8 9
M  V30 9 1 9 10
M  V30 10 1 10 11
M  V30 11 1 11 12
M  V30 12 1 12 13
M  V30 13 1 12 14
M  V30 14 1 3 15
M  V30 15 1 15 16
M  V30 16 2 16 17
M  V30 17 1 17 18
M  V30 18 2 18 19
M  V30 19 1 19 20
M  V30 20 1 20 21
M  V30 21 1 21 22
M  V30 22 2 22 23
M  V30 23 1 23 24
M  V30 24 2 24 25
M  V30 25 1 25 26
M  V30 26 1 25 27
M  V30 27 2 27 28
M  V30 28 1 28 29
M  V30 29 1 29 30
M  V30 30 1 30 31
M  V30 31 1 30 32
M  V30 32 1 32 33
M  V30 33 2 20 34
M  V30 34 1 34 2
M  V30 35 1 14 9
M  V30 36 1 34 16
M  V30 37 1 28 22
M  V30 38 1 1 35
M  V30 39 1 1 36
M  V30 40 1 1 37
M  V30 41 1 6 38
M  V30 42 1 7 39
M  V30 43 1 7 40
M  V30 44 1 8 41
M  V30 45 1 8 42
M  V30 46 1 9 43
M  V30 47 1 10 44
M  V30 48 1 10 45
M  V30 49 1 11 46
M  V30 50 1 11 47
M  V30 51 1 13 48
M  V30 52 1 13 49
M  V30 53 1 13 50
M  V30 54 1 14 51
M  V30 55 1 14 52
M  V30 56 1 18 53
M  V30 57 1 21 54
M  V30 58 1 23 55
M  V30 59 1 24 56
M  V30 60 1 27 57
M  V30 61 1 30 58
M  V30 62 1 31 59
M  V30 63 1 31 60
M  V30 64 1 31 61
M  V30 65 1 32 62
M  V30 66 1 32 63
M  V30 END BOND
M  V30 END CTAB
M  END
>  <Dataset>  (554) 
ChEMBL_Kinases

>  <Ligand_Instance>  (554) 
nan

>  <PDB_ID>  (554) 
nan

>  <Standardized_SMILES>  (554) 
Cc1c(C(=O)NCCC2CCN(C)C2)sc2ncnc(Nc3ccc(F)cc3OC(C)CF)c12

>  <Name>  (554) 
nan

>  <Pocket>  (554) 
nan

>  <ATP_Site>  (554) 
nan

>  <Peripheral>  (554) 
nan

>  <Num_H_Atoms_ProtBoundConf>  (554) 
nan

>  <Num_Resolved_Atoms>  (554) 
nan

>  <Num_Not_Resolved_Atoms>  (554) 
nan

$$$$
CHEMBL3702328
     RDKit          3D

  0  0  0  0  0  0  0  0  0  0999 V3000
M  V30 BEGIN CTAB
M  V30 COUNTS 63 66 0 0 0
M  V30 BEGIN ATOM
M  V30 1 C 0.683020 -1.387824 0.349608 0
M  V30 2 C 0.416042 -1.141181 1.782761 0
M  V30 3 C 1.006605 0.019655 2.179908 0
M  V30 4 C 1.821206 1.126116 1.707987 0
M  V30 5 O 2.148087 2.050029 2.521400 0
M  V30 6 N 2.399204 1.477619 0.467807 0
M  V30 7 C 3.128651 2.709040 0.544244 0
M  V30 8 C 3.699166 2.971938 -0.852932 0
M  V30 9 C 2.587060 3.081937 -1.861408 0
M  V30 10 N 3.120577 3.326179 -3.167284 0
M  V30 11 C 2.074309 3.437170 -4.178740 0
M  V30 12 C 2.682958 4.244961 -5.304911 0
M  V30 13 C 3.939080 4.852994 -4.757104 0
M  V30 14 C 3.776070 4.640346 -3.252940 0
M  V30 15 S 0.615603 0.198220 3.891535 0
M  V30 16 C -0.369683 -1.381182 3.975840 0
M  V30 17 N -1.018586 -1.960035 5.010054 0
M  V30 18 C -1.670166 -3.114140 4.856854 0
M  V30 19 N -1.583315 -3.563873 3.620950 0
M  V30 20 C -0.960321 -3.029845 2.581712 0
M  V30 21 N -1.058876 -3.783508 1.380521 0
M  V30 22 C -1.766398 -5.014999 1.452078 0
M  V30 23 C -1.336370 -6.339308 1.245122 0
M  V30 24 C -2.103155 -7.477560 1.343658 0
M  V30 25 C -3.424599 -7.278875 1.679995 0
M  V30 26 F -4.157205 -8.433619 1.769534 0
M  V30 27 C -3.934413 -6.019845 1.900735 0
M  V30 28 C -3.125178 -4.908655 1.789806 0
M  V30 29 O -3.681351 -3.690304 2.017361 0
M  V30 30 C -4.967088 -3.331398 2.355477 0
M  V30 31 C -5.617406 -2.355653 1.401505 0
M  V30 32 C -4.957238 -2.652391 3.722046 0
M  V30 33 F -6.208853 -2.273036 4.112397 0
M  V30 34 C -0.279714 -1.840658 2.708950 0
M  V30 35 H 0.291973 -2.300562 -0.074997 0
M  V30 36 H 0.331634 -0.548849 -0.294603 0
M  V30 37 H 1.806217 -1.433520 0.185631 0
M  V30 38 H 2.216292 0.807068 -0.304053 0
M  V30 39 H 4.008211 2.566124 1.206176 0
M  V30 40 H 2.577794 3.569141 0.926948 0
M  V30 41 H 4.296887 3.881392 -0.882832 0
M  V30 42 H 4.325772 2.076521 -1.085436 0
M  V30 43 H 1.874641 3.860966 -1.517946 0
M  V30 44 H 1.985581 2.149932 -1.932555 0
M  V30 45 H 1.841150 2.404392 -4.533796 0
M  V30 46 H 1.174457 3.947469 -3.786663 0
M  V30 47 H 2.878905 3.595968 -6.200682 0
M  V30 48 H 1.978840 5.041467 -5.650282 0
M  V30 49 H 4.850990 4.270901 -5.025302 0
M  V30 50 H 4.013234 5.919845 -5.025549 0
M  V30 51 H 3.086365 5.404981 -2.827965 0
M  V30 52 H 4.761289 4.605724 -2.750358 0
M  V30 53 H -2.156697 -3.508249 5.715827 0
M  V30 54 H -0.918080 -3.995715 0.383434 0
M  V30 55 H -0.265349 -6.346669 0.983935 0
M  V30 56 H -1.574714 -8.377184 1.145926 0
M  V30 57 H -4.972191 -6.056882 2.149802 0
M  V30 58 H -5.659562 -4.186482 2.444120 0
M  V30 59 H -6.585096 -2.076750 1.882784 0
M  V30 60 H -5.035845 -1.391586 1.344349 0
M  V30 61 H -5.861857 -2.770572 0.418520 0
M  V30 62 H -4.262846 -1.808127 3.696400 0
M  V30 63 H -4.541179 -3.391626 4.434932 0
M  V30 END ATOM
M  V30 BEGIN BOND
M  V30 1 1 1 2
M  V30 2 2 2 3
M  V30 3 1 3 4
M  V30 4 2 4 5
M  V30 5 1 4 6
M  V30 6 1 6 7
M  V30 7 1 7 8
M  V30 8 1 8 9
M  V30 9 1 9 10
M  V30 10 1 10 11
M  V30 11 1 11 12
M  V30 12 1 12 13
M  V30 13 1 13 14
M  V30 14 1 3 15
M  V30 15 1 15 16
M  V30 16 2 16 17
M  V30 17 1 17 18
M  V30 18 2 18 19
M  V30 19 1 19 20
M  V30 20 1 20 21
M  V30 21 1 21 22
M  V30 22 2 22 23
M  V30 23 1 23 24
M  V30 24 2 24 25
M  V30 25 1 25 26
M  V30 26 1 25 27
M  V30 27 2 27 28
M  V30 28 1 28 29
M  V30 29 1 29 30
M  V30 30 1 30 31
M  V30 31 1 30 32
M  V30 32 1 32 33
M  V30 33 2 20 34
M  V30 34 1 34 2
M  V30 35 1 14 10
M  V30 36 1 34 16
M  V30 37 1 28 22
M  V30 38 1 1 35
M  V30 39 1 1 36
M  V30 40 1 1 37
M  V30 41 1 6 38
M  V30 42 1 7 39
M  V30 43 1 7 40
M  V30 44 1 8 41
M  V30 45 1 8 42
M  V30 46 1 9 43
M  V30 47 1 9 44
M  V30 48 1 11 45
M  V30 49 1 11 46
M  V30 50 1 12 47
M  V30 51 1 12 48
M  V30 52 1 13 49
M  V30 53 1 13 50
M  V30 54 1 14 51
M  V30 55 1 14 52
M  V30 56 1 18 53
M  V30 57 1 21 54
M  V30 58 1 23 55
M  V30 59 1 24 56
M  V30 60 1 27 57
M  V30 61 1 30 58
M  V30 62 1 31 59
M  V30 63 1 31 60
M  V30 64 1 31 61
M  V30 65 1 32 62
M  V30 66 1 32 63
M  V30 END BOND
M  V30 END CTAB
M  END
>  <Dataset>  (555) 
ChEMBL_Kinases

>  <Ligand_Instance>  (555) 
nan

>  <PDB_ID>  (555) 
nan

>  <Standardized_SMILES>  (555) 
Cc1c(C(=O)NCCCN2CCCC2)sc2ncnc(Nc3ccc(F)cc3OC(C)CF)c12

>  <Name>  (555) 
nan

>  <Pocket>  (555) 
nan

>  <ATP_Site>  (555) 
nan

>  <Peripheral>  (555) 
nan

>  <Num_H_Atoms_ProtBoundConf>  (555) 
nan

>  <Num_Resolved_Atoms>  (555) 
nan

>  <Num_Not_Resolved_Atoms>  (555) 
nan

$$$$
CHEMBL5091537
     RDKit          3D

  0  0  0  0  0  0  0  0  0  0999 V3000
M  V30 BEGIN CTAB
M  V30 COUNTS 33 35 0 0 0
M  V30 BEGIN ATOM
M  V30 1 C -1.865710 -5.416505 0.690056 0
M  V30 2 C -0.932592 -4.279154 0.665598 0
M  V30 3 N 0.418743 -4.454981 0.719107 0
M  V30 4 C 1.196364 -3.354445 0.691266 0
M  V30 5 N 2.621051 -3.429316 0.742284 0
M  V30 6 C 0.623076 -2.102002 0.611103 0
M  V30 7 C 1.129871 -0.808219 0.564836 0
M  V30 8 C 2.537424 -0.546757 0.598893 0
M  V30 9 N 3.682962 -0.336663 0.641458 0
M  V30 10 C 0.114893 0.124793 0.485578 0
M  V30 11 C 0.235266 1.578504 0.418614 0
M  V30 12 C -0.561862 2.404342 1.185785 0
M  V30 13 C -0.424488 3.786011 1.100689 0
M  V30 14 C 0.504682 4.387363 0.254800 0
M  V30 15 C 1.304565 3.572255 -0.514597 0
M  V30 16 F 2.211879 4.144139 -1.341072 0
M  V30 17 C 1.144756 2.204778 -0.408196 0
M  V30 18 F 1.969718 1.476945 -1.198254 0
M  V30 19 N -1.009390 -0.591546 0.483144 0
M  V30 20 C -2.367979 -0.130856 0.415492 0
M  V30 21 C -0.753264 -1.930571 0.556980 0
M  V30 22 N -1.509978 -3.044553 0.586168 0
M  V30 23 H -2.340693 -5.556191 -0.307265 0
M  V30 24 H -2.679872 -5.273098 1.449580 0
M  V30 25 H -1.355274 -6.369467 0.910498 0
M  V30 26 H 3.181896 -3.900391 -0.000868 0
M  V30 27 H 2.928332 -2.940333 1.626306 0
M  V30 28 H -1.304274 2.004389 1.864170 0
M  V30 29 H -1.041398 4.440753 1.694904 0
M  V30 30 H 0.625779 5.458119 0.175260 0
M  V30 31 H -2.941944 -0.277185 1.354266 0
M  V30 32 H -2.464214 0.913339 0.068589 0
M  V30 33 H -2.937344 -0.735570 -0.350065 0
M  V30 END ATOM
M  V30 BEGIN BOND
M  V30 1 1 1 2
M  V30 2 2 2 3
M  V30 3 1 3 4
M  V30 4 1 4 5
M  V30 5 2 4 6
M  V30 6 1 6 7
M  V30 7 1 7 8
M  V30 8 3 8 9
M  V30 9 2 7 10
M  V30 10 1 10 11
M  V30 11 2 11 12
M  V30 12 1 12 13
M  V30 13 2 13 14
M  V30 14 1 14 15
M  V30 15 1 15 16
M  V30 16 2 15 17
M  V30 17 1 17 18
M  V30 18 1 10 19
M  V30 19 1 19 20
M  V30 20 1 19 21
M  V30 21 2 21 22
M  V30 22 1 22 2
M  V30 23 1 21 6
M  V30 24 1 17 11
M  V30 25 1 1 23
M  V30 26 1 1 24
M  V30 27 1 1 25
M  V30 28 1 5 26
M  V30 29 1 5 27
M  V30 30 1 12 28
M  V30 31 1 13 29
M  V30 32 1 14 30
M  V30 33 1 20 31
M  V30 34 1 20 32
M  V30 35 1 20 33
M  V30 END BOND
M  V30 END CTAB
M  END
>  <Dataset>  (556) 
ChEMBL_Kinases

>  <Ligand_Instance>  (556) 
nan

>  <PDB_ID>  (556) 
nan

>  <Standardized_SMILES>  (556) 
Cc1nc(N)c2c(C#N)c(-c3cccc(F)c3F)n(C)c2n1

>  <Name>  (556) 
nan

>  <Pocket>  (556) 
nan

>  <ATP_Site>  (556) 
nan

>  <Peripheral>  (556) 
nan

>  <Num_H_Atoms_ProtBoundConf>  (556) 
nan

>  <Num_Resolved_Atoms>  (556) 
nan

>  <Num_Not_Resolved_Atoms>  (556) 
nan

$$$$
CHEMBL5091334
     RDKit          3D

  0  0  0  0  0  0  0  0  0  0999 V3000
M  V30 BEGIN CTAB
M  V30 COUNTS 41 43 0 0 0
M  V30 BEGIN ATOM
M  V30 1 C -2.407957 -5.594668 2.705065 0
M  V30 2 C -1.249099 -4.989842 2.823923 0
M  V30 3 C -0.401604 -3.838375 2.702768 0
M  V30 4 O 0.663721 -4.376039 3.121488 0
M  V30 5 N -0.379901 -2.491609 2.315747 0
M  V30 6 C 0.950753 -1.912388 2.354399 0
M  V30 7 O 1.775578 -2.577008 3.075329 0
M  V30 8 C 1.363846 -0.670135 1.642008 0
M  V30 9 C 1.115255 -0.647948 0.183133 0
M  V30 10 C 2.016329 0.378113 -0.444301 0
M  V30 11 C 1.769166 1.669138 -0.003680 0
M  V30 12 C 2.517914 2.724430 -0.491552 0
M  V30 13 C 3.535059 2.528104 -1.432285 0
M  V30 14 O 4.323118 3.535616 -1.963850 0
M  V30 15 C 4.184518 4.893812 -1.609461 0
M  V30 16 C 3.742270 1.225870 -1.838964 0
M  V30 17 C 3.013050 0.151718 -1.371791 0
M  V30 18 S -0.580741 -0.308125 -0.329673 0
M  V30 19 C -1.764740 -0.981893 0.842908 0
M  V30 20 C -3.031709 -0.537631 0.654178 0
M  V30 21 C -4.114588 -0.919006 1.451314 0
M  V30 22 C -3.871933 -1.809999 2.503098 0
M  V30 23 C -2.613338 -2.308286 2.762751 0
M  V30 24 C -1.606924 -1.856882 1.897974 0
M  V30 25 H -3.382553 -5.262522 2.358353 0
M  V30 26 H -3.399306 -5.263572 2.354377 0
M  V30 27 H -1.253795 -5.995615 3.117934 0
M  V30 28 H 0.909007 0.237988 2.090532 0
M  V30 29 H 2.468799 -0.555153 1.786623 0
M  V30 30 H 1.410780 -1.625492 -0.252745 0
M  V30 31 H 1.008848 1.972085 0.726243 0
M  V30 32 H 2.359533 3.746702 -0.176342 0
M  V30 33 H 3.237612 5.235976 -2.121293 0
M  V30 34 H 5.047433 5.473529 -1.932029 0
M  V30 35 H 3.983780 5.024614 -0.525668 0
M  V30 36 H 4.510881 0.983488 -2.565691 0
M  V30 37 H 3.138884 -0.876715 -1.659273 0
M  V30 38 H -3.265719 0.152457 -0.145395 0
M  V30 39 H -5.101900 -0.534738 1.255907 0
M  V30 40 H -4.700534 -2.118803 3.134521 0
M  V30 41 H -2.366961 -2.977246 3.558502 0
M  V30 END ATOM
M  V30 BEGIN BOND
M  V30 1 2 1 2
M  V30 2 1 2 3
M  V30 3 2 3 4
M  V30 4 1 3 5
M  V30 5 1 5 6
M  V30 6 2 6 7
M  V30 7 1 6 8
M  V30 8 1 8 9
M  V30 9 1 9 10
M  V30 10 2 10 11
M  V30 11 1 11 12
M  V30 12 2 12 13
M  V30 13 1 13 14
M  V30 14 1 14 15
M  V30 15 1 13 16
M  V30 16 2 16 17
M  V30 17 1 9 18
M  V30 18 1 18 19
M  V30 19 2 19 20
M  V30 20 1 20 21
M  V30 21 2 21 22
M  V30 22 1 22 23
M  V30 23 2 23 24
M  V30 24 1 24 5
M  V30 25 1 17 10
M  V30 26 1 24 19
M  V30 27 1 1 25
M  V30 28 1 1 26
M  V30 29 1 2 27
M  V30 30 1 8 28
M  V30 31 1 8 29
M  V30 32 1 9 30
M  V30 33 1 11 31
M  V30 34 1 12 32
M  V30 35 1 15 33
M  V30 36 1 15 34
M  V30 37 1 15 35
M  V30 38 1 16 36
M  V30 39 1 17 37
M  V30 40 1 20 38
M  V30 41 1 21 39
M  V30 42 1 22 40
M  V30 43 1 23 41
M  V30 END BOND
M  V30 END CTAB
M  END
>  <Dataset>  (557) 
ChEMBL_Kinases

>  <Ligand_Instance>  (557) 
nan

>  <PDB_ID>  (557) 
nan

>  <Standardized_SMILES>  (557) 
C=CC(=O)N1C(=O)CC(c2ccc(OC)cc2)Sc2ccccc21

>  <Name>  (557) 
nan

>  <Pocket>  (557) 
nan

>  <ATP_Site>  (557) 
nan

>  <Peripheral>  (557) 
nan

>  <Num_H_Atoms_ProtBoundConf>  (557) 
nan

>  <Num_Resolved_Atoms>  (557) 
nan

>  <Num_Not_Resolved_Atoms>  (557) 
nan

$$$$
CHEMBL5089934
     RDKit          3D

  0  0  0  0  0  0  0  0  0  0999 V3000
M  V30 BEGIN CTAB
M  V30 COUNTS 49 52 0 0 0
M  V30 BEGIN ATOM
M  V30 1 C 6.100564 -4.563612 3.494528 0
M  V30 2 C 5.300377 -4.006830 2.776761 0
M  V30 3 C 4.360654 -3.323464 1.919251 0
M  V30 4 C 3.570956 -2.299893 2.458004 0
M  V30 5 C 2.675488 -1.651143 1.636268 0
M  V30 6 C 2.569639 -2.009342 0.320467 0
M  V30 7 C 3.343374 -3.015164 -0.214577 0
M  V30 8 C 4.247111 -3.678593 0.590782 0
M  V30 9 N 3.043596 -3.173317 -1.515466 0
M  V30 10 C 2.086969 -2.289189 -1.844190 0
M  V30 11 N 1.402704 -1.992466 -2.980172 0
M  V30 12 C 0.471524 -1.018663 -2.970485 0
M  V30 13 N 0.184083 -0.306972 -1.847210 0
M  V30 14 C 0.845749 -0.578398 -0.708278 0
M  V30 15 N 0.422779 0.294435 0.326372 0
M  V30 16 C 1.080293 1.393573 1.022782 0
M  V30 17 C -0.910707 0.178444 0.882582 0 CFG=1
M  V30 18 C -0.949993 -0.129199 2.340967 0
M  V30 19 C -2.379228 -0.607006 2.652811 0
M  V30 20 C -3.349379 -0.036549 1.633832 0
M  V30 21 N -3.009904 1.266029 1.212871 0
M  V30 22 C -4.000826 2.127337 0.716391 0
M  V30 23 C -4.627008 1.790904 -0.592867 0
M  V30 24 C -5.290916 0.512496 -0.550648 0
M  V30 25 N -5.844333 -0.518999 -0.529442 0
M  V30 26 C -1.719173 1.439405 0.652739 0
M  V30 27 C 1.791898 -1.567609 -0.713063 0
M  V30 28 H 6.811795 -5.060880 4.127578 0
M  V30 29 H 3.722629 -2.082134 3.514085 0
M  V30 30 H 2.131148 -0.903400 2.159472 0
M  V30 31 H 4.844431 -4.465932 0.146387 0
M  V30 32 H 3.443305 -3.851064 -2.227200 0
M  V30 33 H 0.009210 -0.899838 -3.959269 0
M  V30 34 H 0.982278 1.326305 2.124041 0
M  V30 35 H 0.746239 2.382339 0.707753 0
M  V30 36 H 2.178061 1.234830 0.827882 0
M  V30 37 H -1.426750 -0.643300 0.352190 0
M  V30 38 H -0.223003 -0.940539 2.545153 0
M  V30 39 H -0.748074 0.721712 3.012834 0
M  V30 40 H -2.361317 -1.703253 2.501040 0
M  V30 41 H -2.646092 -0.407707 3.689547 0
M  V30 42 H -3.417974 -0.768403 0.776098 0
M  V30 43 H -4.347931 -0.035032 2.107554 0
M  V30 44 H -3.513293 3.140925 0.569613 0
M  V30 45 H -4.757923 2.292923 1.517276 0
M  V30 46 H -5.419019 2.556091 -0.832901 0
M  V30 47 H -3.940222 1.814589 -1.443809 0
M  V30 48 H -1.204908 2.236166 1.262510 0
M  V30 49 H -1.685981 1.711940 -0.403250 0
M  V30 END ATOM
M  V30 BEGIN BOND
M  V30 1 3 1 2
M  V30 2 1 2 3
M  V30 3 2 3 4
M  V30 4 1 4 5
M  V30 5 2 5 6
M  V30 6 1 6 7
M  V30 7 2 7 8
M  V30 8 1 7 9
M  V30 9 1 9 10
M  V30 10 2 10 11
M  V30 11 1 11 12
M  V30 12 2 12 13
M  V30 13 1 13 14
M  V30 14 1 14 15
M  V30 15 1 15 16
M  V30 16 1 15 17
M  V30 17 1 17 18
M  V30 18 1 18 19
M  V30 19 1 19 20
M  V30 20 1 20 21
M  V30 21 1 21 22
M  V30 22 1 22 23
M  V30 23 1 23 24
M  V30 24 3 24 25
M  V30 25 1 21 26
M  V30 26 2 14 27
M  V30 27 1 8 3
M  V30 28 1 27 10
M  V30 29 1 27 6
M  V30 30 1 26 17
M  V30 31 1 1 28
M  V30 32 1 4 29
M  V30 33 1 5 30
M  V30 34 1 8 31
M  V30 35 1 9 32
M  V30 36 1 12 33
M  V30 37 1 16 34
M  V30 38 1 16 35
M  V30 39 1 16 36
M  V30 40 1 17 37 CFG=3
M  V30 41 1 18 38
M  V30 42 1 18 39
M  V30 43 1 19 40
M  V30 44 1 19 41
M  V30 45 1 20 42
M  V30 46 1 20 43
M  V30 47 1 22 44
M  V30 48 1 22 45
M  V30 49 1 23 46
M  V30 50 1 23 47
M  V30 51 1 26 48
M  V30 52 1 26 49
M  V30 END BOND
M  V30 END CTAB
M  END
>  <Dataset>  (558) 
ChEMBL_Kinases

>  <Ligand_Instance>  (558) 
nan

>  <PDB_ID>  (558) 
nan

>  <Standardized_SMILES>  (558) 
C#Cc1ccc2c(c1)[nH]c1ncnc(N(C)[C@H]3CCCN(CCC#N)C3)c12

>  <Name>  (558) 
nan

>  <Pocket>  (558) 
nan

>  <ATP_Site>  (558) 
nan

>  <Peripheral>  (558) 
nan

>  <Num_H_Atoms_ProtBoundConf>  (558) 
nan

>  <Num_Resolved_Atoms>  (558) 
nan

>  <Num_Not_Resolved_Atoms>  (558) 
nan

$$$$
CHEMBL5090070
     RDKit          3D

  0  0  0  0  0  0  0  0  0  0999 V3000
M  V30 BEGIN CTAB
M  V30 COUNTS 46 49 0 0 0
M  V30 BEGIN ATOM
M  V30 1 O 2.853784 -0.225545 -0.957920 0
M  V30 2 C 3.930389 -0.834978 -0.622382 0
M  V30 3 N 4.512991 -1.427894 -1.776164 0
M  V30 4 C 3.797024 -1.222686 -3.016280 0
M  V30 5 C 2.863040 -2.225341 -3.184510 0
M  V30 6 C 2.059902 -2.211343 -4.323473 0
M  V30 7 C 2.190130 -1.215748 -5.271811 0
M  V30 8 C 3.127693 -0.229206 -5.080034 0
M  V30 9 C 3.926883 -0.231802 -3.958990 0
M  V30 10 N 4.416424 -0.877783 0.715434 0
M  V30 11 C 3.496728 -0.123397 1.641269 0
M  V30 12 N 3.440272 0.968583 2.028853 0
M  V30 13 C 2.563193 1.521966 2.828300 0
M  V30 14 C 1.555921 0.679641 3.276808 0
M  V30 15 C 0.515870 1.306279 4.200313 0
M  V30 16 C -0.515211 0.284545 4.594006 0
M  V30 17 N -1.262385 -0.332405 3.580693 0
M  V30 18 C -2.016633 -0.955198 2.557786 0
M  V30 19 N -1.668954 -1.748355 1.545625 0
M  V30 20 C -2.490766 -2.282968 0.659190 0
M  V30 21 N -3.766874 -1.974137 0.831032 0
M  V30 22 C -4.258127 -1.197011 1.792671 0
M  V30 23 C -5.607264 -1.011070 1.785814 0
M  V30 24 C -6.164902 -0.217744 2.759064 0
M  V30 25 C -5.331153 0.364592 3.712278 0
M  V30 26 C -3.977957 0.134352 3.659636 0
M  V30 27 C -3.368015 -0.651633 2.707596 0
M  V30 28 S 2.048633 -0.925457 2.418273 0
M  V30 29 H 5.418325 -1.958393 -1.591358 0
M  V30 30 H 2.644721 -3.062774 -2.538689 0
M  V30 31 H 1.275551 -2.924348 -4.610240 0
M  V30 32 H 1.604915 -1.125425 -6.193008 0
M  V30 33 H 3.287223 0.580325 -5.777216 0
M  V30 34 H 4.694248 0.482737 -3.698079 0
M  V30 35 H 5.282643 -1.388152 0.873937 0
M  V30 36 H 2.754155 2.588956 3.034829 0
M  V30 37 H 1.094914 1.550107 5.099998 0
M  V30 38 H 0.067595 2.176294 3.679553 0
M  V30 39 H 0.009759 -0.464835 5.265654 0
M  V30 40 H -1.188770 0.842618 5.333061 0
M  V30 41 H -0.312459 -0.686203 3.226756 0
M  V30 42 H -2.036255 -2.906022 -0.098123 0
M  V30 43 H -6.299836 -1.427603 1.085549 0
M  V30 44 H -7.232774 -0.032898 2.805154 0
M  V30 45 H -5.724319 0.992625 4.495467 0
M  V30 46 H -3.321978 0.578264 4.391577 0
M  V30 END ATOM
M  V30 BEGIN BOND
M  V30 1 2 1 2
M  V30 2 1 2 3
M  V30 3 1 3 4
M  V30 4 2 4 5
M  V30 5 1 5 6
M  V30 6 2 6 7
M  V30 7 1 7 8
M  V30 8 2 8 9
M  V30 9 1 2 10
M  V30 10 1 10 11
M  V30 11 2 11 12
M  V30 12 1 12 13
M  V30 13 2 13 14
M  V30 14 1 14 15
M  V30 15 1 15 16
M  V30 16 1 16 17
M  V30 17 1 17 18
M  V30 18 2 18 19
M  V30 19 1 19 20
M  V30 20 2 20 21
M  V30 21 1 21 22
M  V30 22 2 22 23
M  V30 23 1 23 24
M  V30 24 2 24 25
M  V30 25 1 25 26
M  V30 26 2 26 27
M  V30 27 1 14 28
M  V30 28 1 9 4
M  V30 29 1 28 11
M  V30 30 1 27 18
M  V30 31 1 27 22
M  V30 32 1 3 29
M  V30 33 1 5 30
M  V30 34 1 6 31
M  V30 35 1 7 32
M  V30 36 1 8 33
M  V30 37 1 9 34
M  V30 38 1 10 35
M  V30 39 1 13 36
M  V30 40 1 15 37
M  V30 41 1 15 38
M  V30 42 1 16 39
M  V30 43 1 16 40
M  V30 44 1 17 41
M  V30 45 1 20 42
M  V30 46 1 23 43
M  V30 47 1 24 44
M  V30 48 1 25 45
M  V30 49 1 26 46
M  V30 END BOND
M  V30 END CTAB
M  END
>  <Dataset>  (559) 
ChEMBL_Kinases

>  <Ligand_Instance>  (559) 
nan

>  <PDB_ID>  (559) 
nan

>  <Standardized_SMILES>  (559) 
O=C(Nc1ccccc1)Nc1ncc(CCNc2ncnc3ccccc23)s1

>  <Name>  (559) 
nan

>  <Pocket>  (559) 
nan

>  <ATP_Site>  (559) 
nan

>  <Peripheral>  (559) 
nan

>  <Num_H_Atoms_ProtBoundConf>  (559) 
nan

>  <Num_Resolved_Atoms>  (559) 
nan

>  <Num_Not_Resolved_Atoms>  (559) 
nan

$$$$
CHEMBL509012
     RDKit          3D

  0  0  0  0  0  0  0  0  0  0999 V3000
M  V30 BEGIN CTAB
M  V30 COUNTS 58 60 0 0 0
M  V30 BEGIN ATOM
M  V30 1 C 1.122647 -3.928872 2.274131 0
M  V30 2 C 2.392212 -3.136687 2.026256 0
M  V30 3 C 2.292916 -1.869933 2.822721 0
M  V30 4 C 2.508411 -2.877492 0.543998 0
M  V30 5 C 3.755938 -2.090410 0.239353 0
M  V30 6 C 3.642786 -1.534967 -1.183003 0
M  V30 7 C 2.857969 -0.267568 -1.176881 0
M  V30 8 O 2.362036 0.234741 -0.125677 0
M  V30 9 N 2.610197 0.469360 -2.356417 0
M  V30 10 C 1.810702 1.645685 -1.961178 0
M  V30 11 N 2.031749 2.713461 -1.616548 0
M  V30 12 C 1.168195 3.656218 -1.293275 0
M  V30 13 C -0.140126 3.374886 -1.361742 0
M  V30 14 S -1.641589 4.269665 -1.040632 0
M  V30 15 C -2.150754 4.053515 0.709478 0
M  V30 16 C -2.517452 2.654062 0.960575 0
M  V30 17 N -1.626463 1.703692 1.371527 0
M  V30 18 C -2.300912 0.523246 1.506228 0
M  V30 19 C -3.622307 0.795504 1.163723 0
M  V30 20 C -4.565904 -0.330498 1.229087 0
M  V30 21 C -5.932544 0.118890 0.838883 0
M  V30 22 C -4.115082 -1.411199 0.253109 0
M  V30 23 C -4.515422 -0.937263 2.612954 0
M  V30 24 O -3.681199 2.057953 0.855057 0
M  V30 25 S -0.103772 1.595214 -1.943555 0
M  V30 26 C 3.040577 -2.582416 -2.059423 0
M  V30 27 C 3.277522 -3.924779 -1.407531 0
M  V30 28 N 2.558708 -4.111890 -0.174992 0
M  V30 29 H 0.933034 -3.868708 3.385819 0
M  V30 30 H 1.187910 -4.976534 1.962450 0
M  V30 31 H 0.317754 -3.363117 1.755563 0
M  V30 32 H 3.298386 -3.727528 2.334370 0
M  V30 33 H 1.605831 -1.167986 2.293003 0
M  V30 34 H 1.773124 -2.121236 3.777580 0
M  V30 35 H 3.267957 -1.396971 3.053031 0
M  V30 36 H 1.589060 -2.352138 0.204087 0
M  V30 37 H 4.617240 -2.785052 0.303204 0
M  V30 38 H 3.936827 -1.268950 0.966361 0
M  V30 39 H 4.652741 -1.286804 -1.558796 0
M  V30 40 H 2.960605 0.165023 -3.266756 0
M  V30 41 H 1.406467 4.672222 -0.965532 0
M  V30 42 H -2.966244 4.758040 0.901049 0
M  V30 43 H -1.258011 4.319530 1.340566 0
M  V30 44 H -1.699819 -0.322590 1.831391 0
M  V30 45 H -6.455726 0.477905 1.763794 0
M  V30 46 H -6.481373 -0.708782 0.343910 0
M  V30 47 H -5.830244 1.006633 0.171483 0
M  V30 48 H -5.025992 -1.915086 -0.111608 0
M  V30 49 H -3.493813 -2.177648 0.789281 0
M  V30 50 H -3.535546 -1.005491 -0.576632 0
M  V30 51 H -3.459901 -1.041392 2.912118 0
M  V30 52 H -5.100338 -0.315063 3.316428 0
M  V30 53 H -4.907386 -1.989339 2.529371 0
M  V30 54 H 1.964751 -2.370018 -2.203610 0
M  V30 55 H 3.528900 -2.551259 -3.043706 0
M  V30 56 H 4.369114 -4.054810 -1.268891 0
M  V30 57 H 3.002445 -4.707596 -2.170037 0
M  V30 58 H 3.027816 -4.825225 0.411748 0
M  V30 END ATOM
M  V30 BEGIN BOND
M  V30 1 1 1 2
M  V30 2 1 2 3
M  V30 3 1 2 4
M  V30 4 1 4 5
M  V30 5 1 5 6
M  V30 6 1 6 7
M  V30 7 2 7 8
M  V30 8 1 7 9
M  V30 9 1 9 10
M  V30 10 2 10 11
M  V30 11 1 11 12
M  V30 12 2 12 13
M  V30 13 1 13 14
M  V30 14 1 14 15
M  V30 15 1 15 16
M  V30 16 2 16 17
M  V30 17 1 17 18
M  V30 18 2 18 19
M  V30 19 1 19 20
M  V30 20 1 20 21
M  V30 21 1 20 22
M  V30 22 1 20 23
M  V30 23 1 19 24
M  V30 24 1 13 25
M  V30 25 1 6 26
M  V30 26 1 26 27
M  V30 27 1 27 28
M  V30 28 1 28 4
M  V30 29 1 25 10
M  V30 30 1 24 16
M  V30 31 1 1 29
M  V30 32 1 1 30
M  V30 33 1 1 31
M  V30 34 1 2 32
M  V30 35 1 3 33
M  V30 36 1 3 34
M  V30 37 1 3 35
M  V30 38 1 4 36
M  V30 39 1 5 37
M  V30 40 1 5 38
M  V30 41 1 6 39
M  V30 42 1 9 40
M  V30 43 1 12 41
M  V30 44 1 15 42
M  V30 45 1 15 43
M  V30 46 1 18 44
M  V30 47 1 21 45
M  V30 48 1 21 46
M  V30 49 1 21 47
M  V30 50 1 22 48
M  V30 51 1 22 49
M  V30 52 1 22 50
M  V30 53 1 23 51
M  V30 54 1 23 52
M  V30 55 1 23 53
M  V30 56 1 26 54
M  V30 57 1 26 55
M  V30 58 1 27 56
M  V30 59 1 27 57
M  V30 60 1 28 58
M  V30 END BOND
M  V30 END CTAB
M  END
>  <Dataset>  (560) 
ChEMBL_Kinases

>  <Ligand_Instance>  (560) 
nan

>  <PDB_ID>  (560) 
nan

>  <Standardized_SMILES>  (560) 
CC(C)C1CC(C(=O)Nc2ncc(SCc3ncc(C(C)(C)C)o3)s2)CCN1

>  <Name>  (560) 
nan

>  <Pocket>  (560) 
nan

>  <ATP_Site>  (560) 
nan

>  <Peripheral>  (560) 
nan

>  <Num_H_Atoms_ProtBoundConf>  (560) 
nan

>  <Num_Resolved_Atoms>  (560) 
nan

>  <Num_Not_Resolved_Atoms>  (560) 
nan

$$$$
CHEMBL5090129
     RDKit          3D

  0  0  0  0  0  0  0  0  0  0999 V3000
M  V30 BEGIN CTAB
M  V30 COUNTS 62 66 0 0 0
M  V30 BEGIN ATOM
M  V30 1 N 5.873581 1.915212 2.095275 0
M  V30 2 C 5.795854 2.363564 3.451592 0
M  V30 3 C 6.859164 1.849793 4.191565 0
M  V30 4 C 6.990991 2.153013 5.540683 0
M  V30 5 C 6.036467 2.978260 6.123901 0
M  V30 6 C 4.980638 3.485475 5.379050 0
M  V30 7 C 4.865342 3.176302 4.048481 0
M  V30 8 N 3.841884 3.622877 3.168226 0
M  V30 9 C 2.848687 2.985759 2.372982 0
M  V30 10 C 2.020398 3.789114 1.618032 0
M  V30 11 C 1.083568 3.099443 0.874956 0
M  V30 12 C 0.965299 1.735355 0.869673 0
M  V30 13 C 1.834035 0.975947 1.655723 0
M  V30 14 C 2.779680 1.607716 2.410265 0
M  V30 15 C 1.840593 -0.518120 1.764963 0
M  V30 16 C 1.899755 -1.176044 0.391058 0
M  V30 17 C 0.555186 -1.204104 -0.239218 0
M  V30 18 C 0.164342 -2.440745 -0.695863 0
M  V30 19 C -1.056895 -2.631368 -1.305083 0
M  V30 20 C -1.920471 -1.569593 -1.469561 0
M  V30 21 C -3.257104 -1.615921 -2.100272 0
M  V30 22 O -4.006137 -0.586867 -2.218450 0
M  V30 23 N -3.848958 -2.797199 -2.638429 0
M  V30 24 C -5.138372 -2.465780 -3.163044 0
M  V30 25 C -5.837498 -3.662481 -3.754017 0
M  V30 26 C -6.022572 -4.697914 -2.710478 0
M  V30 27 C -5.155232 -5.725413 -2.403660 0
M  V30 28 C -5.423317 -6.635850 -1.408723 0
M  V30 29 C -6.587356 -6.552626 -0.670778 0
M  V30 30 C -7.490094 -5.539222 -0.940561 0
M  V30 31 C -7.172821 -4.655408 -1.946088 0
M  V30 32 C -1.525231 -0.330888 -1.010411 0
M  V30 33 C -0.303134 -0.136935 -0.400043 0
M  V30 34 C -0.102438 1.250694 0.001884 0
M  V30 35 O -0.898090 2.094429 -0.422870 0
M  V30 36 H 6.262423 2.590678 1.430300 0
M  V30 37 H 5.633774 1.050412 1.565525 0
M  V30 38 H 7.649588 1.204044 3.837549 0
M  V30 39 H 7.801384 1.778633 6.163430 0
M  V30 40 H 6.107417 3.235570 7.172397 0
M  V30 41 H 4.221097 4.128041 5.794854 0
M  V30 42 H 3.956654 4.658934 3.207028 0
M  V30 43 H 2.112421 4.873333 1.620559 0
M  V30 44 H 0.386491 3.652576 0.248162 0
M  V30 45 H 3.396697 0.957912 2.976600 0
M  V30 46 H 0.838336 -0.783061 2.174430 0
M  V30 47 H 2.653356 -0.823904 2.426348 0
M  V30 48 H 2.381804 -2.149790 0.398237 0
M  V30 49 H 2.490305 -0.450186 -0.238489 0
M  V30 50 H 0.820756 -3.286193 -0.579423 0
M  V30 51 H -1.408988 -3.582124 -1.680079 0
M  V30 52 H -3.246567 -3.657017 -2.550902 0
M  V30 53 H -5.824405 -2.041584 -2.401557 0
M  V30 54 H -5.082848 -1.675333 -3.960343 0
M  V30 55 H -6.846193 -3.337866 -4.101731 0
M  V30 56 H -5.267741 -4.088551 -4.607519 0
M  V30 57 H -4.248220 -5.779699 -2.991224 0
M  V30 58 H -4.732191 -7.427620 -1.188064 0
M  V30 59 H -6.865818 -7.236718 0.130545 0
M  V30 60 H -8.414595 -5.443593 -0.380756 0
M  V30 61 H -7.905647 -3.870223 -2.131814 0
M  V30 62 H -2.160212 0.540616 -1.111113 0
M  V30 END ATOM
M  V30 BEGIN BOND
M  V30 1 1 1 2
M  V30 2 2 2 3
M  V30 3 1 3 4
M  V30 4 2 4 5
M  V30 5 1 5 6
M  V30 6 2 6 7
M  V30 7 1 7 8
M  V30 8 1 8 9
M  V30 9 2 9 10
M  V30 10 1 10 11
M  V30 11 2 11 12
M  V30 12 1 12 13
M  V30 13 2 13 14
M  V30 14 1 13 15
M  V30 15 1 15 16
M  V30 16 1 16 17
M  V30 17 2 17 18
M  V30 18 1 18 19
M  V30 19 2 19 20
M  V30 20 1 20 21
M  V30 21 2 21 22
M  V30 22 1 21 23
M  V30 23 1 23 24
M  V30 24 1 24 25
M  V30 25 1 25 26
M  V30 26 2 26 27
M  V30 27 1 27 28
M  V30 28 2 28 29
M  V30 29 1 29 30
M  V30 30 2 30 31
M  V30 31 1 20 32
M  V30 32 2 32 33
M  V30 33 1 33 34
M  V30 34 2 34 35
M  V30 35 1 7 2
M  V30 36 1 14 9
M  V30 37 1 33 17
M  V30 38 1 34 12
M  V30 39 1 31 26
M  V30 40 1 1 36
M  V30 41 1 1 37
M  V30 42 1 3 38
M  V30 43 1 4 39
M  V30 44 1 5 40
M  V30 45 1 6 41
M  V30 46 1 8 42
M  V30 47 1 10 43
M  V30 48 1 11 44
M  V30 49 1 14 45
M  V30 50 1 15 46
M  V30 51 1 15 47
M  V30 52 1 16 48
M  V30 53 1 16 49
M  V30 54 1 18 50
M  V30 55 1 19 51
M  V30 56 1 23 52
M  V30 57 1 24 53
M  V30 58 1 24 54
M  V30 59 1 25 55
M  V30 60 1 25 56
M  V30 61 1 27 57
M  V30 62 1 28 58
M  V30 63 1 29 59
M  V30 64 1 30 60
M  V30 65 1 31 61
M  V30 66 1 32 62
M  V30 END BOND
M  V30 END CTAB
M  END
>  <Dataset>  (561) 
ChEMBL_Kinases

>  <Ligand_Instance>  (561) 
nan

>  <PDB_ID>  (561) 
nan

>  <Standardized_SMILES>  (561) 
Nc1ccccc1Nc1ccc2c(c1)CCc1ccc(C(=O)NCCc3ccccc3)cc1C2=O

>  <Name>  (561) 
nan

>  <Pocket>  (561) 
nan

>  <ATP_Site>  (561) 
nan

>  <Peripheral>  (561) 
nan

>  <Num_H_Atoms_ProtBoundConf>  (561) 
nan

>  <Num_Resolved_Atoms>  (561) 
nan

>  <Num_Not_Resolved_Atoms>  (561) 
nan

$$$$
CHEMBL5090164
     RDKit          3D

  0  0  0  0  0  0  0  0  0  0999 V3000
M  V30 BEGIN CTAB
M  V30 COUNTS 65 70 0 0 0
M  V30 BEGIN ATOM
M  V30 1 C -0.594392 -3.394395 4.183610 0
M  V30 2 C 0.277722 -2.427686 3.482795 0
M  V30 3 C 1.516124 -2.097364 3.995299 0
M  V30 4 C 2.339341 -1.196352 3.347827 0
M  V30 5 C 1.870928 -0.644129 2.172174 0
M  V30 6 N 2.784172 0.279700 1.564304 0
M  V30 7 C 2.688683 1.652485 1.932112 0
M  V30 8 O 1.759620 1.845670 2.785383 0
M  V30 9 C 3.562452 2.701744 1.384851 0
M  V30 10 C 4.570660 2.536058 0.464867 0
M  V30 11 C 5.306114 3.635060 0.050037 0
M  V30 12 N 5.039441 4.867948 0.543168 0
M  V30 13 C 4.054303 5.053503 1.447059 0
M  V30 14 C 3.727687 6.403627 2.018232 0
M  V30 15 C 3.394721 6.410729 3.512368 0
M  V30 16 C 2.351427 6.701294 2.482847 0
M  V30 17 C 3.294131 3.980156 1.889043 0
M  V30 18 C 0.630758 -0.983667 1.671806 0
M  V30 19 C -0.192517 -1.877336 2.308507 0
M  V30 20 C -1.484426 -2.162308 1.690463 0
M  V30 21 C -2.712712 -2.224667 2.319836 0
M  V30 22 C -3.860152 -2.505692 1.609899 0
M  V30 23 C -3.817822 -2.735690 0.235069 0
M  V30 24 C -2.574706 -2.673429 -0.406382 0
M  V30 25 C -1.426380 -2.390283 0.315125 0
M  V30 26 O -2.442241 -2.885383 -1.747490 0
M  V30 27 C -3.212300 -3.015870 -2.887794 0
M  V30 28 C -2.440091 -2.404791 -4.041406 0
M  V30 29 C -1.056683 -3.045804 -3.988564 0
M  V30 30 O -0.991810 -4.109591 -3.100528 0
M  V30 31 C -1.935115 -5.096142 -3.439392 0
M  V30 32 C -3.292284 -4.511635 -3.229604 0
M  V30 33 C -4.622082 -2.532058 -2.822770 0
M  V30 34 C -5.387214 -3.033774 -1.684911 0
M  V30 35 O -6.486029 -3.603789 -1.979216 0
M  V30 36 N -5.135241 -3.007026 -0.287957 0
M  V30 37 H 0.110727 -4.113965 4.690725 0
M  V30 38 H -1.253129 -3.951808 3.497896 0
M  V30 39 H -1.162476 -2.896797 5.006754 0
M  V30 40 H 1.838350 -2.564375 4.930016 0
M  V30 41 H 3.296463 -1.000493 3.830463 0
M  V30 42 H 3.522689 -0.002421 0.859593 0
M  V30 43 H 4.708555 1.514187 0.129554 0
M  V30 44 H 6.086544 3.458298 -0.672801 0
M  V30 45 H 4.342076 7.240510 1.657374 0
M  V30 46 H 3.812070 7.209116 4.143694 0
M  V30 47 H 3.303167 5.433096 4.025973 0
M  V30 48 H 2.027423 7.749986 2.433041 0
M  V30 49 H 1.534319 5.951667 2.356505 0
M  V30 50 H 2.502335 4.161877 2.621839 0
M  V30 51 H 0.330210 -0.500082 0.730294 0
M  V30 52 H -2.698733 -2.040461 3.379558 0
M  V30 53 H -4.811236 -2.550100 2.119769 0
M  V30 54 H -0.511003 -2.366727 -0.285570 0
M  V30 55 H -2.308496 -1.307386 -3.943145 0
M  V30 56 H -2.898955 -2.608952 -5.031908 0
M  V30 57 H -0.293506 -2.305416 -3.634281 0
M  V30 58 H -0.709686 -3.403208 -4.972606 0
M  V30 59 H -1.815133 -5.419168 -4.490869 0
M  V30 60 H -1.815162 -5.946404 -2.741840 0
M  V30 61 H -3.869165 -4.534857 -4.199386 0
M  V30 62 H -3.917893 -4.998697 -2.477725 0
M  V30 63 H -5.085832 -2.729447 -3.799829 0
M  V30 64 H -4.558061 -1.412997 -2.744113 0
M  V30 65 H -5.891616 -3.181893 0.395149 0
M  V30 END ATOM
M  V30 BEGIN BOND
M  V30 1 1 1 2
M  V30 2 2 2 3
M  V30 3 1 3 4
M  V30 4 2 4 5
M  V30 5 1 5 6
M  V30 6 1 6 7
M  V30 7 2 7 8
M  V30 8 1 7 9
M  V30 9 2 9 10
M  V30 10 1 10 11
M  V30 11 2 11 12
M  V30 12 1 12 13
M  V30 13 1 13 14
M  V30 14 1 14 15
M  V30 15 1 15 16
M  V30 16 2 13 17
M  V30 17 1 5 18
M  V30 18 2 18 19
M  V30 19 1 19 20
M  V30 20 2 20 21
M  V30 21 1 21 22
M  V30 22 2 22 23
M  V30 23 1 23 24
M  V30 24 2 24 25
M  V30 25 1 24 26
M  V30 26 1 26 27
M  V30 27 1 27 28
M  V30 28 1 28 29
M  V30 29 1 29 30
M  V30 30 1 30 31
M  V30 31 1 31 32
M  V30 32 1 27 33
M  V30 33 1 33 34
M  V30 34 2 34 35
M  V30 35 1 34 36
M  V30 36 1 19 2
M  V30 37 1 25 20
M  V30 38 1 32 27
M  V30 39 1 17 9
M  V30 40 1 36 23
M  V30 41 1 16 14
M  V30 42 1 1 37
M  V30 43 1 1 38
M  V30 44 1 1 39
M  V30 45 1 3 40
M  V30 46 1 4 41
M  V30 47 1 6 42
M  V30 48 1 10 43
M  V30 49 1 11 44
M  V30 50 1 14 45
M  V30 51 1 15 46
M  V30 52 1 15 47
M  V30 53 1 16 48
M  V30 54 1 16 49
M  V30 55 1 17 50
M  V30 56 1 18 51
M  V30 57 1 21 52
M  V30 58 1 22 53
M  V30 59 1 25 54
M  V30 60 1 28 55
M  V30 61 1 28 56
M  V30 62 1 29 57
M  V30 63 1 29 58
M  V30 64 1 31 59
M  V30 65 1 31 60
M  V30 66 1 32 61
M  V30 67 1 32 62
M  V30 68 1 33 63
M  V30 69 1 33 64
M  V30 70 1 36 65
M  V30 END BOND
M  V30 END CTAB
M  END
>  <Dataset>  (562) 
ChEMBL_Kinases

>  <Ligand_Instance>  (562) 
nan

>  <PDB_ID>  (562) 
nan

>  <Standardized_SMILES>  (562) 
Cc1ccc(NC(=O)c2ccnc(C3CC3)c2)cc1-c1ccc2c(c1)OC1(CCOCC1)CC(=O)N2

>  <Name>  (562) 
nan

>  <Pocket>  (562) 
nan

>  <ATP_Site>  (562) 
nan

>  <Peripheral>  (562) 
nan

>  <Num_H_Atoms_ProtBoundConf>  (562) 
nan

>  <Num_Resolved_Atoms>  (562) 
nan

>  <Num_Not_Resolved_Atoms>  (562) 
nan

$$$$
CHEMBL5090199
     RDKit          3D

  0  0  0  0  0  0  0  0  0  0999 V3000
M  V30 BEGIN CTAB
M  V30 COUNTS 60 64 0 0 0
M  V30 BEGIN ATOM
M  V30 1 C 0.834246 3.658097 -1.310759 0
M  V30 2 O 1.285615 3.684380 0.032830 0
M  V30 3 C 1.725179 2.543853 0.659751 0
M  V30 4 C 2.147487 2.630018 1.966589 0
M  V30 5 C 2.608528 1.513131 2.675305 0
M  V30 6 C 2.644635 0.273415 2.047670 0
M  V30 7 C 2.231064 0.141410 0.737896 0
M  V30 8 C 2.204179 -1.081376 -0.051929 0
M  V30 9 N 3.149106 -1.075631 -1.006946 0
M  V30 10 C 3.066074 -2.232321 -1.701672 0
M  V30 11 S 3.700947 -3.309180 -3.069483 0
M  V30 12 C 2.438140 -4.684307 -2.713257 0
M  V30 13 C 1.697939 -4.163588 -1.612361 0
M  V30 14 N 2.063810 -2.960958 -1.175691 0
M  V30 15 C 1.518609 -2.271766 -0.157992 0
M  V30 16 C 0.441829 -2.483943 0.799161 0
M  V30 17 C 0.174834 -3.641498 1.450827 0
M  V30 18 C -0.830978 -3.861514 2.358048 0
M  V30 19 N -1.652998 -2.844916 2.650596 0
M  V30 20 C -1.419753 -1.665848 2.018980 0
M  V30 21 N -2.188757 -0.497649 2.191916 0
M  V30 22 C -3.115960 0.561769 1.956008 0
M  V30 23 C -2.667868 1.537455 0.907281 0
M  V30 24 C -2.496650 0.951775 -0.471208 0
M  V30 25 N -3.772604 0.428663 -0.966901 0
M  V30 26 S -3.649305 -0.257498 -2.538435 0
M  V30 27 O -4.988726 -0.735519 -2.954585 0
M  V30 28 O -2.708743 -1.418406 -2.555101 0
M  V30 29 C -3.124150 0.938733 -3.712176 0
M  V30 30 C -1.798833 0.849682 -4.153671 0
M  V30 31 C -1.337624 1.791808 -5.071791 0
M  V30 32 C -2.216783 2.765580 -5.495390 0
M  V30 33 C -3.513331 2.875597 -5.080356 0
M  V30 34 C -3.966145 1.938491 -4.170959 0
M  V30 35 N -0.419989 -1.514597 1.144604 0
M  V30 36 C 1.780745 1.297265 0.084307 0
M  V30 37 H 0.468621 4.632666 -1.651298 0
M  V30 38 H 0.043264 2.893480 -1.485367 0
M  V30 39 H 1.715231 3.351865 -1.929573 0
M  V30 40 H 2.125900 3.596945 2.482101 0
M  V30 41 H 2.941414 1.578704 3.700974 0
M  V30 42 H 2.987142 -0.636998 2.514918 0
M  V30 43 H 2.440959 -5.593655 -3.324664 0
M  V30 44 H 0.959056 -4.897738 -1.356160 0
M  V30 45 H 0.791458 -4.514260 1.271094 0
M  V30 46 H -1.021430 -4.795267 2.864127 0
M  V30 47 H -1.748577 -0.288220 3.146110 0
M  V30 48 H -3.374510 1.160841 2.862990 0
M  V30 49 H -4.132181 0.125920 1.654338 0
M  V30 50 H -3.371600 2.407769 0.880989 0
M  V30 51 H -1.697735 1.959122 1.250215 0
M  V30 52 H -2.194568 1.754423 -1.200253 0
M  V30 53 H -1.714665 0.184876 -0.545513 0
M  V30 54 H -4.495202 1.192687 -0.953494 0
M  V30 55 H -1.086152 0.084242 -3.833827 0
M  V30 56 H -0.300118 1.709195 -5.411119 0
M  V30 57 H -1.849699 3.497285 -6.208964 0
M  V30 58 H -4.182705 3.639462 -5.417300 0
M  V30 59 H -4.986760 1.988437 -3.815793 0
M  V30 60 H 1.427574 1.295940 -0.959646 0
M  V30 END ATOM
M  V30 BEGIN BOND
M  V30 1 1 1 2
M  V30 2 1 2 3
M  V30 3 2 3 4
M  V30 4 1 4 5
M  V30 5 2 5 6
M  V30 6 1 6 7
M  V30 7 1 7 8
M  V30 8 1 8 9
M  V30 9 2 9 10
M  V30 10 1 10 11
M  V30 11 1 11 12
M  V30 12 2 12 13
M  V30 13 1 13 14
M  V30 14 1 14 15
M  V30 15 1 15 16
M  V30 16 2 16 17
M  V30 17 1 17 18
M  V30 18 2 18 19
M  V30 19 1 19 20
M  V30 20 1 20 21
M  V30 21 1 21 22
M  V30 22 1 22 23
M  V30 23 1 23 24
M  V30 24 1 24 25
M  V30 25 1 25 26
M  V30 26 2 26 27
M  V30 27 2 26 28
M  V30 28 1 26 29
M  V30 29 2 29 30
M  V30 30 1 30 31
M  V30 31 2 31 32
M  V30 32 1 32 33
M  V30 33 2 33 34
M  V30 34 2 20 35
M  V30 35 2 7 36
M  V30 36 1 36 3
M  V30 37 2 15 8
M  V30 38 1 35 16
M  V30 39 1 14 10
M  V30 40 1 34 29
M  V30 41 1 1 37
M  V30 42 1 1 38
M  V30 43 1 1 39
M  V30 44 1 4 40
M  V30 45 1 5 41
M  V30 46 1 6 42
M  V30 47 1 12 43
M  V30 48 1 13 44
M  V30 49 1 17 45
M  V30 50 1 18 46
M  V30 51 1 21 47
M  V30 52 1 22 48
M  V30 53 1 22 49
M  V30 54 1 23 50
M  V30 55 1 23 51
M  V30 56 1 24 52
M  V30 57 1 24 53
M  V30 58 1 25 54
M  V30 59 1 30 55
M  V30 60 1 31 56
M  V30 61 1 32 57
M  V30 62 1 33 58
M  V30 63 1 34 59
M  V30 64 1 36 60
M  V30 END BOND
M  V30 END CTAB
M  END
>  <Dataset>  (563) 
ChEMBL_Kinases

>  <Ligand_Instance>  (563) 
nan

>  <PDB_ID>  (563) 
nan

>  <Standardized_SMILES>  (563) 
COc1cccc(-c2nc3sccn3c2-c2ccnc(NCCCNS(=O)(=O)c3ccccc3)n2)c1

>  <Name>  (563) 
nan

>  <Pocket>  (563) 
nan

>  <ATP_Site>  (563) 
nan

>  <Peripheral>  (563) 
nan

>  <Num_H_Atoms_ProtBoundConf>  (563) 
nan

>  <Num_Resolved_Atoms>  (563) 
nan

>  <Num_Not_Resolved_Atoms>  (563) 
nan

$$$$
CHEMBL5090252
     RDKit          3D

  0  0  0  0  0  0  0  0  0  0999 V3000
M  V30 BEGIN CTAB
M  V30 COUNTS 60 63 0 0 0
M  V30 BEGIN ATOM
M  V30 1 C 4.075363 -2.143466 5.493414 0
M  V30 2 C 4.848425 -2.829232 4.412706 0
M  V30 3 O 4.228746 -2.805114 3.147210 0
M  V30 4 C 3.902369 -1.678169 2.444681 0
M  V30 5 C 4.143632 -0.378851 2.894633 0
M  V30 6 C 3.790041 0.701072 2.138219 0
M  V30 7 N 4.056662 1.924258 2.642679 0
M  V30 8 C 3.706097 2.981063 1.893388 0
M  V30 9 N 3.117623 2.848992 0.697109 0
M  V30 10 C 2.821752 1.669546 0.131585 0
M  V30 11 N 2.199401 1.567909 -1.146772 0
M  V30 12 C 1.858777 2.749798 -1.870808 0
M  V30 13 C 0.832608 3.628590 -1.186122 0
M  V30 14 C -0.416200 2.824496 -1.005409 0
M  V30 15 C -0.675426 2.057290 0.116638 0
M  V30 16 C -1.833999 1.323095 0.262674 0
M  V30 17 C -2.798389 1.340208 -0.750891 0
M  V30 18 N -3.952169 0.536492 -0.473674 0
M  V30 19 C -3.857994 -0.790977 -0.912156 0
M  V30 20 O -2.834988 -1.238630 -1.504050 0
M  V30 21 N -4.913574 -1.718177 -0.716094 0
M  V30 22 C -4.783695 -3.065910 -1.176190 0
M  V30 23 C -5.116974 -3.629794 -2.391425 0
M  V30 24 C -4.897263 -4.955040 -2.600210 0
M  V30 25 C -4.346404 -5.764162 -1.627833 0
M  V30 26 Cl -4.087758 -7.466663 -1.958326 0
M  V30 27 C -4.003126 -5.230766 -0.404338 0
M  V30 28 C -3.412864 -6.134458 0.616273 0
M  V30 29 F -4.342876 -7.138446 0.881936 0
M  V30 30 F -2.249309 -6.708980 0.161551 0
M  V30 31 F -3.231192 -5.476560 1.814343 0
M  V30 32 C -4.229538 -3.870600 -0.192465 0
M  V30 33 C -2.563113 2.098168 -1.880616 0
M  V30 34 C -1.390252 2.818462 -1.986965 0
M  V30 35 C 3.183360 0.605777 0.903678 0
M  V30 36 C 2.949141 -0.676027 0.467467 0
M  V30 37 C 3.289433 -1.789105 1.197829 0
M  V30 38 F 3.045675 -3.054992 0.741621 0
M  V30 39 H 3.811367 -2.870744 6.296442 0
M  V30 40 H 3.139093 -1.699908 5.058583 0
M  V30 41 H 4.630523 -1.332701 5.991614 0
M  V30 42 H 5.871516 -2.384944 4.272289 0
M  V30 43 H 5.039903 -3.911114 4.649531 0
M  V30 44 H 4.616931 -0.241026 3.855558 0
M  V30 45 H 3.892291 3.990989 2.240781 0
M  V30 46 H 1.979357 0.659500 -1.580316 0
M  V30 47 H 2.821003 3.333113 -1.975286 0
M  V30 48 H 1.518303 2.472515 -2.887310 0
M  V30 49 H 1.200791 3.880298 -0.182444 0
M  V30 50 H 0.597764 4.518112 -1.800384 0
M  V30 51 H 0.052500 2.030612 0.906885 0
M  V30 52 H -1.960336 0.749924 1.169477 0
M  V30 53 H -4.823239 0.881889 0.019872 0
M  V30 54 H -5.779761 -1.358246 -0.221037 0
M  V30 55 H -5.539727 -2.893711 -3.069416 0
M  V30 56 H -5.187540 -5.322710 -3.585199 0
M  V30 57 H -3.917409 -3.560877 0.815792 0
M  V30 58 H -3.343981 2.067964 -2.621554 0
M  V30 59 H -1.263242 3.394734 -2.898617 0
M  V30 60 H 2.488565 -0.879730 -0.465679 0
M  V30 END ATOM
M  V30 BEGIN BOND
M  V30 1 1 1 2
M  V30 2 1 2 3
M  V30 3 1 3 4
M  V30 4 2 4 5
M  V30 5 1 5 6
M  V30 6 2 6 7
M  V30 7 1 7 8
M  V30 8 2 8 9
M  V30 9 1 9 10
M  V30 10 1 10 11
M  V30 11 1 11 12
M  V30 12 1 12 13
M  V30 13 1 13 14
M  V30 14 2 14 15
M  V30 15 1 15 16
M  V30 16 2 16 17
M  V30 17 1 17 18
M  V30 18 1 18 19
M  V30 19 2 19 20
M  V30 20 1 19 21
M  V30 21 1 21 22
M  V30 22 2 22 23
M  V30 23 1 23 24
M  V30 24 2 24 25
M  V30 25 1 25 26
M  V30 26 1 25 27
M  V30 27 1 27 28
M  V30 28 1 28 29
M  V30 29 1 28 30
M  V30 30 1 28 31
M  V30 31 2 27 32
M  V30 32 1 17 33
M  V30 33 2 33 34
M  V30 34 2 10 35
M  V30 35 1 35 36
M  V30 36 2 36 37
M  V30 37 1 37 38
M  V30 38 1 37 4
M  V30 39 1 35 6
M  V30 40 1 34 14
M  V30 41 1 32 22
M  V30 42 1 1 39
M  V30 43 1 1 40
M  V30 44 1 1 41
M  V30 45 1 2 42
M  V30 46 1 2 43
M  V30 47 1 5 44
M  V30 48 1 8 45
M  V30 49 1 11 46
M  V30 50 1 12 47
M  V30 51 1 12 48
M  V30 52 1 13 49
M  V30 53 1 13 50
M  V30 54 1 15 51
M  V30 55 1 16 52
M  V30 56 1 18 53
M  V30 57 1 21 54
M  V30 58 1 23 55
M  V30 59 1 24 56
M  V30 60 1 32 57
M  V30 61 1 33 58
M  V30 62 1 34 59
M  V30 63 1 36 60
M  V30 END BOND
M  V30 END CTAB
M  END
>  <Dataset>  (564) 
ChEMBL_Kinases

>  <Ligand_Instance>  (564) 
nan

>  <PDB_ID>  (564) 
nan

>  <Standardized_SMILES>  (564) 
CCOc1cc2ncnc(NCCc3ccc(NC(=O)Nc4ccc(Cl)c(C(F)(F)F)c4)cc3)c2cc1F

>  <Name>  (564) 
nan

>  <Pocket>  (564) 
nan

>  <ATP_Site>  (564) 
nan

>  <Peripheral>  (564) 
nan

>  <Num_H_Atoms_ProtBoundConf>  (564) 
nan

>  <Num_Resolved_Atoms>  (564) 
nan

>  <Num_Not_Resolved_Atoms>  (564) 
nan

$$$$
CHEMBL5090279
     RDKit          3D

  0  0  0  0  0  0  0  0  0  0999 V3000
M  V30 BEGIN CTAB
M  V30 COUNTS 50 52 0 0 0
M  V30 BEGIN ATOM
M  V30 1 C -2.045217 -5.085277 0.664224 0
M  V30 2 C -0.867162 -4.173110 1.030019 0
M  V30 3 C 0.426060 -4.738543 0.555000 0
M  V30 4 O 1.484113 -3.935204 0.910277 0
M  V30 5 C 1.366865 -2.690770 0.379867 0
M  V30 6 C 2.545283 -1.788060 0.706662 0
M  V30 7 C 2.713353 -1.600286 2.171664 0
M  V30 8 C 1.624810 -0.728304 2.770180 0
M  V30 9 C 1.720015 0.631236 2.136081 0
M  V30 10 N 1.765521 0.556941 0.686212 0
M  V30 11 C 1.201120 1.574046 -0.135137 0
M  V30 12 C 2.166452 2.245180 -0.895123 0
M  V30 13 C 1.781925 3.266867 -1.733519 0
M  V30 14 N 0.481912 3.643747 -1.843977 0
M  V30 15 C -0.464169 3.000784 -1.112622 0
M  V30 16 C -0.111025 1.974527 -0.265064 0
M  V30 17 C -1.248117 1.393601 0.435802 0
M  V30 18 N -1.304522 0.345816 1.363072 0
M  V30 19 C -2.293782 2.104736 -0.017474 0
M  V30 20 C -3.662800 1.847246 0.436219 0
M  V30 21 N -3.957421 0.826172 1.383883 0
M  V30 22 O -4.638666 2.514271 0.011096 0
M  V30 23 C -1.936538 3.156620 -0.999392 0
M  V30 24 C 2.370842 -0.515271 -0.080565 0
M  V30 25 H -2.887178 -4.809336 1.335014 0
M  V30 26 H -2.366496 -4.893074 -0.367005 0
M  V30 27 H -1.793445 -6.148372 0.877284 0
M  V30 28 H -0.859234 -4.002595 2.113100 0
M  V30 29 H -1.070675 -3.231753 0.440348 0
M  V30 30 H 0.334948 -4.815435 -0.573662 0
M  V30 31 H 0.578867 -5.795080 0.877274 0
M  V30 32 H 1.296286 -2.736464 -0.723652 0
M  V30 33 H 0.492027 -2.144006 0.848769 0
M  V30 34 H 3.444535 -2.310344 0.315867 0
M  V30 35 H 3.712649 -1.208011 2.384900 0
M  V30 36 H 2.631946 -2.589378 2.652643 0
M  V30 37 H 1.900955 -0.598646 3.845711 0
M  V30 38 H 0.649480 -1.206065 2.658323 0
M  V30 39 H 1.003503 1.357122 2.509388 0
M  V30 40 H 2.749848 1.010643 2.419373 0
M  V30 41 H 3.231345 2.008011 -0.868430 0
M  V30 42 H 2.539880 3.787909 -2.324927 0
M  V30 43 H -1.352466 -0.632882 0.995215 0
M  V30 44 H -1.343432 -0.486547 0.741103 0
M  V30 45 H -3.554586 0.658993 2.331305 0
M  V30 46 H -4.020689 0.182307 2.197236 0
M  V30 47 H -2.218261 4.173358 -0.660578 0
M  V30 48 H -2.391491 2.887083 -1.974314 0
M  V30 49 H 1.708719 -0.752705 -0.952765 0
M  V30 50 H 3.365637 -0.173140 -0.485642 0
M  V30 END ATOM
M  V30 BEGIN BOND
M  V30 1 1 1 2
M  V30 2 1 2 3
M  V30 3 1 3 4
M  V30 4 1 4 5
M  V30 5 1 5 6
M  V30 6 1 6 7
M  V30 7 1 7 8
M  V30 8 1 8 9
M  V30 9 1 9 10
M  V30 10 1 10 11
M  V30 11 2 11 12
M  V30 12 1 12 13
M  V30 13 2 13 14
M  V30 14 1 14 15
M  V30 15 2 15 16
M  V30 16 1 16 17
M  V30 17 1 17 18
M  V30 18 2 17 19
M  V30 19 1 19 20
M  V30 20 1 20 21
M  V30 21 2 20 22
M  V30 22 1 19 23
M  V30 23 1 10 24
M  V30 24 1 24 6
M  V30 25 1 16 11
M  V30 26 1 23 15
M  V30 27 1 1 25
M  V30 28 1 1 26
M  V30 29 1 1 27
M  V30 30 1 2 28
M  V30 31 1 2 29
M  V30 32 1 3 30
M  V30 33 1 3 31
M  V30 34 1 5 32
M  V30 35 1 5 33
M  V30 36 1 6 34
M  V30 37 1 7 35
M  V30 38 1 7 36
M  V30 39 1 8 37
M  V30 40 1 8 38
M  V30 41 1 9 39
M  V30 42 1 9 40
M  V30 43 1 12 41
M  V30 44 1 13 42
M  V30 45 1 18 43
M  V30 46 1 18 44
M  V30 47 1 21 45
M  V30 48 1 21 46
M  V30 49 1 23 47
M  V30 50 1 23 48
M  V30 51 1 24 49
M  V30 52 1 24 50
M  V30 END BOND
M  V30 END CTAB
M  END
>  <Dataset>  (565) 
ChEMBL_Kinases

>  <Ligand_Instance>  (565) 
nan

>  <PDB_ID>  (565) 
nan

>  <Standardized_SMILES>  (565) 
CCCOCC1CCCN(c2ccnc3c2C(N)=C(C(N)=O)C3)C1

>  <Name>  (565) 
nan

>  <Pocket>  (565) 
nan

>  <ATP_Site>  (565) 
nan

>  <Peripheral>  (565) 
nan

>  <Num_H_Atoms_ProtBoundConf>  (565) 
nan

>  <Num_Resolved_Atoms>  (565) 
nan

>  <Num_Not_Resolved_Atoms>  (565) 
nan

$$$$
CHEMBL5090286
     RDKit          3D

  0  0  0  0  0  0  0  0  0  0999 V3000
M  V30 BEGIN CTAB
M  V30 COUNTS 64 68 0 0 0
M  V30 BEGIN ATOM
M  V30 1 C 6.097224 0.729818 4.482991 0
M  V30 2 C 5.307985 -0.267647 3.674886 0
M  V30 3 N 5.850764 -0.468510 2.343094 0
M  V30 4 C 5.053781 -1.438415 1.594271 0
M  V30 5 C 3.940341 -0.622578 0.985605 0
M  V30 6 C 4.442463 0.779707 0.975620 0
M  V30 7 C 4.415814 1.385075 -0.422731 0
M  V30 8 N 3.097996 1.421970 -0.979041 0
M  V30 9 C 2.066020 2.163340 -0.337622 0
M  V30 10 O 2.198606 2.833729 0.733274 0
M  V30 11 C 0.656176 2.381704 -0.655942 0
M  V30 12 C -0.300298 1.392144 -0.666401 0
M  V30 13 C -1.652696 1.599949 -0.955811 0
M  V30 14 C -2.614727 0.504386 -0.916913 0
M  V30 15 C -2.246415 -0.789835 -0.639907 0
M  V30 16 C -3.274095 -1.709458 -0.600845 0
M  V30 17 C -4.604447 -1.309332 -0.834978 0
M  V30 18 N -5.435550 -2.417021 -0.751853 0
M  V30 19 S -6.404269 -3.794008 -0.688726 0
M  V30 20 O -6.769028 -4.180168 -2.131328 0
M  V30 21 O -7.679016 -3.572589 0.081284 0
M  V30 22 C -5.576233 -5.165687 0.039599 0
M  V30 23 C -4.359279 -5.443816 0.613338 0
M  V30 24 C -4.038802 -6.680333 1.096655 0
M  V30 25 C -4.918723 -7.764907 1.049578 0
M  V30 26 C -6.127884 -7.490168 0.480595 0
M  V30 27 Cl -7.179067 -8.912102 0.459737 0
M  V30 28 C -6.486314 -6.249398 -0.019643 0
M  V30 29 Cl -8.117300 -6.229132 -0.683741 0
M  V30 30 C -4.915595 0.029270 -1.113239 0
M  V30 31 C -3.899381 0.947690 -1.154177 0
M  V30 32 N -1.978498 2.876559 -1.236161 0
M  V30 33 C -1.145354 3.917202 -1.258180 0
M  V30 34 N -1.326280 5.239535 -1.520868 0
M  V30 35 N -0.133600 5.777920 -1.389137 0
M  V30 36 C 0.804072 4.886422 -1.059497 0
M  V30 37 C 0.173304 3.649062 -0.964580 0
M  V30 38 C 5.799134 0.744294 1.561042 0
M  V30 39 H 5.617961 1.726244 4.419640 0
M  V30 40 H 7.164168 0.774062 4.156001 0
M  V30 41 H 6.138237 0.389225 5.543163 0
M  V30 42 H 4.274430 0.123416 3.585089 0
M  V30 43 H 5.341178 -1.250517 4.197991 0
M  V30 44 H 5.672486 -1.810759 0.770272 0
M  V30 45 H 4.720112 -2.220830 2.289698 0
M  V30 46 H 3.077258 -0.688214 1.708271 0
M  V30 47 H 3.595836 -0.999734 -0.000232 0
M  V30 48 H 3.797410 1.446334 1.611891 0
M  V30 49 H 4.938431 2.344754 -0.449769 0
M  V30 50 H 5.004617 0.673832 -1.049343 0
M  V30 51 H 2.582647 1.013611 -1.820096 0
M  V30 52 H 0.109975 0.421699 -0.423881 0
M  V30 53 H -1.203732 -1.054136 -0.467348 0
M  V30 54 H -2.904388 -2.681357 -0.389740 0
M  V30 55 H -6.037652 -1.871347 -0.059770 0
M  V30 56 H -3.812407 -4.539143 0.583535 0
M  V30 57 H -3.033029 -6.675848 1.502224 0
M  V30 58 H -4.564588 -8.688891 1.458981 0
M  V30 59 H -5.969605 0.185087 -1.269032 0
M  V30 60 H -4.198485 1.958581 -1.373021 0
M  V30 61 H -2.220442 5.719554 -1.771948 0
M  V30 62 H 1.871978 4.982132 -0.875141 0
M  V30 63 H 5.917604 1.616998 2.264355 0
M  V30 64 H 6.609633 0.765196 0.801680 0
M  V30 END ATOM
M  V30 BEGIN BOND
M  V30 1 1 1 2
M  V30 2 1 2 3
M  V30 3 1 3 4
M  V30 4 1 4 5
M  V30 5 1 5 6
M  V30 6 1 6 7
M  V30 7 1 7 8
M  V30 8 1 8 9
M  V30 9 2 9 10
M  V30 10 1 9 11
M  V30 11 2 11 12
M  V30 12 1 12 13
M  V30 13 1 13 14
M  V30 14 2 14 15
M  V30 15 1 15 16
M  V30 16 2 16 17
M  V30 17 1 17 18
M  V30 18 1 18 19
M  V30 19 2 19 20
M  V30 20 2 19 21
M  V30 21 1 19 22
M  V30 22 2 22 23
M  V30 23 1 23 24
M  V30 24 2 24 25
M  V30 25 1 25 26
M  V30 26 1 26 27
M  V30 27 2 26 28
M  V30 28 1 28 29
M  V30 29 1 17 30
M  V30 30 2 30 31
M  V30 31 2 13 32
M  V30 32 1 32 33
M  V30 33 1 33 34
M  V30 34 1 34 35
M  V30 35 2 35 36
M  V30 36 1 36 37
M  V30 37 1 6 38
M  V30 38 1 38 3
M  V30 39 1 37 11
M  V30 40 1 31 14
M  V30 41 2 37 33
M  V30 42 1 28 22
M  V30 43 1 1 39
M  V30 44 1 1 40
M  V30 45 1 1 41
M  V30 46 1 2 42
M  V30 47 1 2 43
M  V30 48 1 4 44
M  V30 49 1 4 45
M  V30 50 1 5 46
M  V30 51 1 5 47
M  V30 52 1 6 48
M  V30 53 1 7 49
M  V30 54 1 7 50
M  V30 55 1 8 51
M  V30 56 1 12 52
M  V30 57 1 15 53
M  V30 58 1 16 54
M  V30 59 1 18 55
M  V30 60 1 23 56
M  V30 61 1 24 57
M  V30 62 1 25 58
M  V30 63 1 30 59
M  V30 64 1 31 60
M  V30 65 1 34 61
M  V30 66 1 36 62
M  V30 67 1 38 63
M  V30 68 1 38 64
M  V30 END BOND
M  V30 END CTAB
M  END
>  <Dataset>  (566) 
ChEMBL_Kinases

>  <Ligand_Instance>  (566) 
nan

>  <PDB_ID>  (566) 
nan

>  <Standardized_SMILES>  (566) 
CCN1CCC(CNC(=O)c2cc(-c3ccc(NS(=O)(=O)c4cccc(Cl)c4Cl)cc3)nc3[nH]ncc23)C1

>  <Name>  (566) 
nan

>  <Pocket>  (566) 
nan

>  <ATP_Site>  (566) 
nan

>  <Peripheral>  (566) 
nan

>  <Num_H_Atoms_ProtBoundConf>  (566) 
nan

>  <Num_Resolved_Atoms>  (566) 
nan

>  <Num_Not_Resolved_Atoms>  (566) 
nan

$$$$
CHEMBL5090299
     RDKit          3D

  0  0  0  0  0  0  0  0  0  0999 V3000
M  V30 BEGIN CTAB
M  V30 COUNTS 48 51 0 0 0
M  V30 BEGIN ATOM
M  V30 1 C 1.254497 -3.460348 -2.295175 0
M  V30 2 C 1.797052 -4.588456 -1.476689 0
M  V30 3 O 0.912126 -5.089744 -0.508272 0
M  V30 4 C 0.433189 -4.254747 0.491651 0
M  V30 5 N 0.743055 -2.958357 0.634603 0
M  V30 6 C 0.258811 -2.182600 1.616148 0
M  V30 7 C 0.654170 -0.777159 1.691616 0
M  V30 8 C 0.142023 0.001346 2.711636 0
M  V30 9 C 0.561892 1.326129 2.719608 0
M  V30 10 C 1.438350 1.846015 1.770541 0
M  V30 11 N 1.856658 3.195219 1.791097 0
M  V30 12 S 0.760857 4.486262 2.045063 0
M  V30 13 O 1.511600 5.789059 2.048682 0
M  V30 14 O 0.114224 4.351922 3.409278 0
M  V30 15 C -0.469099 4.604182 0.830447 0
M  V30 16 C -0.631666 3.787029 -0.268277 0
M  V30 17 C -1.650298 3.967725 -1.180713 0
M  V30 18 Cl -1.796709 2.891560 -2.553547 0
M  V30 19 C -2.546657 5.002274 -0.997220 0
M  V30 20 C -2.405979 5.844771 0.106078 0
M  V30 21 C -1.376763 5.642183 1.005445 0
M  V30 22 F -1.319106 6.512049 2.048641 0
M  V30 23 C 1.920543 1.021521 0.770821 0
M  V30 24 C 1.524616 -0.304826 0.730144 0
M  V30 25 N -0.586287 -2.716451 2.517276 0
M  V30 26 C -0.973880 -4.013807 2.477904 0
M  V30 27 N -1.780644 -4.793106 3.222183 0
M  V30 28 N -1.777171 -6.003611 2.696923 0
M  V30 29 C -0.967113 -6.028974 1.602170 0
M  V30 30 C -0.757740 -7.251345 0.796280 0
M  V30 31 C -0.441028 -4.767126 1.440972 0
M  V30 32 H 0.601862 -3.799671 -3.128182 0
M  V30 33 H 0.661152 -2.717861 -1.731803 0
M  V30 34 H 2.115036 -2.897964 -2.715051 0
M  V30 35 H 2.767245 -4.272440 -1.051272 0
M  V30 36 H 1.989578 -5.429303 -2.197224 0
M  V30 37 H -0.528550 -0.410528 3.431694 0
M  V30 38 H 0.196825 1.982214 3.490196 0
M  V30 39 H 2.886386 3.336062 1.638807 0
M  V30 40 H 0.104805 2.987072 -0.362638 0
M  V30 41 H -3.344145 5.124323 -1.733448 0
M  V30 42 H -3.142399 6.652439 0.209182 0
M  V30 43 H 2.607626 1.342609 -0.010369 0
M  V30 44 H 1.901604 -0.962530 -0.057083 0
M  V30 45 H -2.294750 -4.437720 4.062895 0
M  V30 46 H -1.645390 -7.362257 0.132513 0
M  V30 47 H 0.146040 -7.214682 0.181611 0
M  V30 48 H -0.682424 -8.165567 1.439585 0
M  V30 END ATOM
M  V30 BEGIN BOND
M  V30 1 1 1 2
M  V30 2 1 2 3
M  V30 3 1 3 4
M  V30 4 2 4 5
M  V30 5 1 5 6
M  V30 6 1 6 7
M  V30 7 2 7 8
M  V30 8 1 8 9
M  V30 9 2 9 10
M  V30 10 1 10 11
M  V30 11 1 11 12
M  V30 12 2 12 13
M  V30 13 2 12 14
M  V30 14 1 12 15
M  V30 15 2 15 16
M  V30 16 1 16 17
M  V30 17 1 17 18
M  V30 18 2 17 19
M  V30 19 1 19 20
M  V30 20 2 20 21
M  V30 21 1 21 22
M  V30 22 1 10 23
M  V30 23 2 23 24
M  V30 24 2 6 25
M  V30 25 1 25 26
M  V30 26 1 26 27
M  V30 27 1 27 28
M  V30 28 2 28 29
M  V30 29 1 29 30
M  V30 30 1 29 31
M  V30 31 1 31 4
M  V30 32 1 24 7
M  V30 33 2 31 26
M  V30 34 1 21 15
M  V30 35 1 1 32
M  V30 36 1 1 33
M  V30 37 1 1 34
M  V30 38 1 2 35
M  V30 39 1 2 36
M  V30 40 1 8 37
M  V30 41 1 9 38
M  V30 42 1 11 39
M  V30 43 1 16 40
M  V30 44 1 19 41
M  V30 45 1 20 42
M  V30 46 1 23 43
M  V30 47 1 24 44
M  V30 48 1 27 45
M  V30 49 1 30 46
M  V30 50 1 30 47
M  V30 51 1 30 48
M  V30 END BOND
M  V30 END CTAB
M  END
>  <Dataset>  (567) 
ChEMBL_Kinases

>  <Ligand_Instance>  (567) 
nan

>  <PDB_ID>  (567) 
nan

>  <Standardized_SMILES>  (567) 
CCOc1nc(-c2ccc(NS(=O)(=O)c3cc(Cl)ccc3F)cc2)nc2[nH]nc(C)c12

>  <Name>  (567) 
nan

>  <Pocket>  (567) 
nan

>  <ATP_Site>  (567) 
nan

>  <Peripheral>  (567) 
nan

>  <Num_H_Atoms_ProtBoundConf>  (567) 
nan

>  <Num_Resolved_Atoms>  (567) 
nan

>  <Num_Not_Resolved_Atoms>  (567) 
nan

$$$$
CHEMBL3702324
     RDKit          3D

  0  0  0  0  0  0  0  0  0  0999 V3000
M  V30 BEGIN CTAB
M  V30 COUNTS 45 47 0 0 0
M  V30 BEGIN ATOM
M  V30 1 C 2.602464 -4.292256 0.396132 0
M  V30 2 O 3.222681 -3.042326 0.282632 0
M  V30 3 C 2.241835 -2.091472 0.553769 0
M  V30 4 C 2.819639 -0.670673 0.460374 0
M  V30 5 C 3.908541 -0.649656 1.544432 0
M  V30 6 O 1.779594 0.193567 0.748625 0
M  V30 7 C 1.285184 1.245590 0.043762 0
M  V30 8 C 1.907836 1.517495 -1.161277 0
M  V30 9 C 1.404989 2.582187 -1.871623 0
M  V30 10 F 1.934573 2.952299 -3.081793 0
M  V30 11 C 0.356852 3.373955 -1.479834 0
M  V30 12 C -0.233178 3.082245 -0.292433 0
M  V30 13 C 0.203558 2.013993 0.511209 0
M  V30 14 N -0.243008 1.545691 1.750041 0
M  V30 15 C -0.815242 0.586277 2.583559 0
M  V30 16 N -0.495671 0.750428 3.872079 0
M  V30 17 C -0.828552 0.056309 4.923715 0
M  V30 18 N -1.617243 -0.973791 4.608602 0
M  V30 19 C -1.968274 -1.188496 3.364241 0
M  V30 20 S -3.031512 -2.524407 2.804067 0
M  V30 21 C -2.941520 -1.990740 1.007313 0
M  V30 22 C -3.610004 -2.667838 -0.063379 0
M  V30 23 O -3.708108 -2.530483 -1.314625 0
M  V30 24 O -4.371207 -3.772643 0.260334 0
M  V30 25 C -2.119581 -0.865064 1.036929 0
M  V30 26 C -1.880901 -0.157832 -0.248420 0
M  V30 27 C -1.626474 -0.467362 2.251896 0
M  V30 28 H 2.178242 -4.469620 1.401703 0
M  V30 29 H 1.772563 -4.300780 -0.336223 0
M  V30 30 H 3.286105 -5.103795 0.073983 0
M  V30 31 H 1.343649 -2.176449 -0.055438 0
M  V30 32 H 1.963444 -2.271868 1.635413 0
M  V30 33 H 3.330684 -0.522681 -0.507611 0
M  V30 34 H 3.502261 -0.267745 2.512297 0
M  V30 35 H 4.797736 -0.057230 1.201896 0
M  V30 36 H 4.296649 -1.668756 1.752602 0
M  V30 37 H 2.719233 1.030779 -1.634727 0
M  V30 38 H -0.060727 4.204427 -1.996888 0
M  V30 39 H -1.078779 3.588635 0.197940 0
M  V30 40 H 0.063598 2.477267 2.183160 0
M  V30 41 H -0.558452 0.208885 5.946947 0
M  V30 42 H -5.218835 -4.060648 -0.224552 0
M  V30 43 H -2.599527 -0.555957 -1.032066 0
M  V30 44 H -0.896771 -0.352610 -0.696456 0
M  V30 45 H -2.189509 0.910150 -0.192160 0
M  V30 END ATOM
M  V30 BEGIN BOND
M  V30 1 1 1 2
M  V30 2 1 2 3
M  V30 3 1 3 4
M  V30 4 1 4 5
M  V30 5 1 4 6
M  V30 6 1 6 7
M  V30 7 2 7 8
M  V30 8 1 8 9
M  V30 9 1 9 10
M  V30 10 2 9 11
M  V30 11 1 11 12
M  V30 12 2 12 13
M  V30 13 1 13 14
M  V30 14 1 14 15
M  V30 15 2 15 16
M  V30 16 1 16 17
M  V30 17 2 17 18
M  V30 18 1 18 19
M  V30 19 1 19 20
M  V30 20 1 20 21
M  V30 21 1 21 22
M  V30 22 2 22 23
M  V30 23 1 22 24
M  V30 24 2 21 25
M  V30 25 1 25 26
M  V30 26 1 25 27
M  V30 27 1 13 7
M  V30 28 1 27 15
M  V30 29 2 27 19
M  V30 30 1 1 28
M  V30 31 1 1 29
M  V30 32 1 1 30
M  V30 33 1 3 31
M  V30 34 1 3 32
M  V30 35 1 4 33
M  V30 36 1 5 34
M  V30 37 1 5 35
M  V30 38 1 5 36
M  V30 39 1 8 37
M  V30 40 1 11 38
M  V30 41 1 12 39
M  V30 42 1 14 40
M  V30 43 1 17 41
M  V30 44 1 24 42
M  V30 45 1 26 43
M  V30 46 1 26 44
M  V30 47 1 26 45
M  V30 END BOND
M  V30 END CTAB
M  END
>  <Dataset>  (568) 
ChEMBL_Kinases

>  <Ligand_Instance>  (568) 
nan

>  <PDB_ID>  (568) 
nan

>  <Standardized_SMILES>  (568) 
COCC(C)Oc1cc(F)ccc1Nc1ncnc2sc(C(=O)O)c(C)c12

>  <Name>  (568) 
nan

>  <Pocket>  (568) 
nan

>  <ATP_Site>  (568) 
nan

>  <Peripheral>  (568) 
nan

>  <Num_H_Atoms_ProtBoundConf>  (568) 
nan

>  <Num_Resolved_Atoms>  (568) 
nan

>  <Num_Not_Resolved_Atoms>  (568) 
nan

$$$$
CHEMBL509101
     RDKit          3D

  0  0  0  0  0  0  0  0  0  0999 V3000
M  V30 BEGIN CTAB
M  V30 COUNTS 50 54 0 0 0
M  V30 BEGIN ATOM
M  V30 1 O -0.691183 -1.309844 2.831326 0
M  V30 2 C -1.356816 -1.487440 1.751635 0
M  V30 3 N -0.719726 -0.749959 0.718090 0
M  V30 4 C 0.451544 0.000153 1.023551 0
M  V30 5 C 0.365992 1.327426 1.438968 0
M  V30 6 C 1.563236 1.980861 1.715091 0
M  V30 7 C 2.797141 1.354195 1.587928 0
M  V30 8 O 4.003094 1.981156 1.856956 0
M  V30 9 C 4.960997 2.135639 0.867089 0
M  V30 10 C 4.954679 1.771391 -0.463556 0
M  V30 11 C 6.049722 2.038465 -1.257241 0
M  V30 12 N 7.143665 2.652333 -0.773339 0
M  V30 13 C 7.182463 3.019945 0.516029 0
M  V30 14 N 8.184257 3.638764 1.166727 0
M  V30 15 C 7.798193 3.815614 2.443302 0
M  V30 16 C 6.532219 3.291404 2.569065 0
M  V30 17 C 6.111480 2.773663 1.347623 0
M  V30 18 C 2.832434 0.019835 1.167599 0
M  V30 19 F 3.984221 -0.710719 1.010523 0
M  V30 20 C 1.654676 -0.665664 0.882302 0
M  V30 21 C -2.552047 -2.311586 1.653148 0
M  V30 22 C -2.922460 -2.907984 2.865435 0
M  V30 23 C -4.034560 -3.717253 2.929219 0
M  V30 24 C -4.836513 -3.990297 1.843665 0
M  V30 25 N -4.445313 -3.398898 0.703399 0
M  V30 26 C -5.162561 -3.575145 -0.515860 0
M  V30 27 C -5.389204 -4.776607 -1.160941 0
M  V30 28 C -6.102754 -4.800717 -2.339838 0
M  V30 29 C -6.623154 -3.651320 -2.935094 0
M  V30 30 F -7.316369 -3.701669 -4.086643 0
M  V30 31 C -6.386212 -2.477892 -2.279423 0
M  V30 32 C -5.673892 -2.425541 -1.096132 0
M  V30 33 C -3.373485 -2.604674 0.589923 0
M  V30 34 O -3.014494 -2.056435 -0.476527 0
M  V30 35 H -1.139406 -0.787181 -0.234569 0
M  V30 36 H -0.581216 1.823901 1.541593 0
M  V30 37 H 1.539778 3.008380 2.039262 0
M  V30 38 H 4.041867 1.293171 -0.759154 0
M  V30 39 H 5.881256 1.684900 -2.284237 0
M  V30 40 H 9.110944 3.943238 0.783008 0
M  V30 41 H 8.363612 4.281706 3.239974 0
M  V30 42 H 5.933711 3.272354 3.469250 0
M  V30 43 H 1.681377 -1.702884 0.555351 0
M  V30 44 H -2.362253 -2.762319 3.787970 0
M  V30 45 H -4.300476 -4.167733 3.881168 0
M  V30 46 H -5.701912 -4.617564 1.883982 0
M  V30 47 H -4.974811 -5.633803 -0.673841 0
M  V30 48 H -6.268068 -5.770505 -2.831494 0
M  V30 49 H -6.767015 -1.544509 -2.694043 0
M  V30 50 H -5.525136 -1.443785 -0.628951 0
M  V30 END ATOM
M  V30 BEGIN BOND
M  V30 1 2 1 2
M  V30 2 1 2 3
M  V30 3 1 3 4
M  V30 4 2 4 5
M  V30 5 1 5 6
M  V30 6 2 6 7
M  V30 7 1 7 8
M  V30 8 1 8 9
M  V30 9 2 9 10
M  V30 10 1 10 11
M  V30 11 2 11 12
M  V30 12 1 12 13
M  V30 13 1 13 14
M  V30 14 1 14 15
M  V30 15 2 15 16
M  V30 16 1 16 17
M  V30 17 1 7 18
M  V30 18 1 18 19
M  V30 19 2 18 20
M  V30 20 1 2 21
M  V30 21 2 21 22
M  V30 22 1 22 23
M  V30 23 2 23 24
M  V30 24 1 24 25
M  V30 25 1 25 26
M  V30 26 2 26 27
M  V30 27 1 27 28
M  V30 28 2 28 29
M  V30 29 1 29 30
M  V30 30 1 29 31
M  V30 31 2 31 32
M  V30 32 1 25 33
M  V30 33 2 33 34
M  V30 34 1 20 4
M  V30 35 1 33 21
M  V30 36 1 17 9
M  V30 37 1 32 26
M  V30 38 2 17 13
M  V30 39 1 3 35
M  V30 40 1 5 36
M  V30 41 1 6 37
M  V30 42 1 10 38
M  V30 43 1 11 39
M  V30 44 1 14 40
M  V30 45 1 15 41
M  V30 46 1 16 42
M  V30 47 1 20 43
M  V30 48 1 22 44
M  V30 49 1 23 45
M  V30 50 1 24 46
M  V30 51 1 27 47
M  V30 52 1 28 48
M  V30 53 1 31 49
M  V30 54 1 32 50
M  V30 END BOND
M  V30 END CTAB
M  END
>  <Dataset>  (569) 
ChEMBL_Kinases

>  <Ligand_Instance>  (569) 
nan

>  <PDB_ID>  (569) 
nan

>  <Standardized_SMILES>  (569) 
O=C(Nc1ccc(Oc2ccnc3[nH]ccc23)c(F)c1)c1cccn(-c2ccc(F)cc2)c1=O

>  <Name>  (569) 
nan

>  <Pocket>  (569) 
nan

>  <ATP_Site>  (569) 
nan

>  <Peripheral>  (569) 
nan

>  <Num_H_Atoms_ProtBoundConf>  (569) 
nan

>  <Num_Resolved_Atoms>  (569) 
nan

>  <Num_Not_Resolved_Atoms>  (569) 
nan

$$$$
CHEMBL583903
     RDKit          3D

  0  0  0  0  0  0  0  0  0  0999 V3000
M  V30 BEGIN CTAB
M  V30 COUNTS 59 63 0 0 0
M  V30 BEGIN ATOM
M  V30 1 C 5.176067 -1.981534 0.024631 0
M  V30 2 C 4.082777 -2.715340 0.677290 0
M  V30 3 C 3.360530 -2.069589 1.654895 0
M  V30 4 N 3.508672 -0.764439 2.137391 0
M  V30 5 C 3.552425 0.600018 1.827774 0
M  V30 6 C 4.824723 1.186039 1.816985 0
M  V30 7 C 6.028664 0.446274 2.150939 0
M  V30 8 N 6.990404 -0.164671 2.431909 0
M  V30 9 C 5.070549 2.509839 1.514036 0
M  V30 10 N 3.992777 3.240260 1.219111 0
M  V30 11 C 2.772904 2.732558 1.216959 0
M  V30 12 C 2.492797 1.418380 1.513665 0
M  V30 13 C 1.138069 0.903539 1.504262 0
M  V30 14 C 0.067990 1.699594 1.188331 0
M  V30 15 C -1.126665 1.023288 1.237022 0
M  V30 16 C -2.470677 1.250010 1.038516 0
M  V30 17 C -3.377433 0.224519 1.206844 0
M  V30 18 C -4.814631 0.461007 0.996152 0
M  V30 19 N -5.110477 0.186778 -0.417293 0
M  V30 20 C -6.512283 0.397036 -0.711119 0
M  V30 21 C -6.858959 0.130290 -2.135931 0
M  V30 22 C -6.106573 1.009291 -3.107373 0
M  V30 23 O -6.557534 0.619623 -4.389942 0
M  V30 24 C -2.934951 -1.048918 1.579673 0
M  V30 25 C -1.578315 -1.318074 1.790381 0
M  V30 26 C -0.715807 -0.240421 1.604055 0
M  V30 27 O 0.580061 -0.245735 1.740754 0
M  V30 28 C 2.333029 -2.829408 2.219139 0
M  V30 29 C 2.013949 -4.121265 1.874257 0
M  V30 30 C 2.815014 -4.644991 0.884920 0
M  V30 31 N 2.769997 -5.876295 0.319238 0
M  V30 32 C 3.721424 -6.023740 -0.622312 0
M  V30 33 C 4.410783 -4.826171 -0.661730 0
M  V30 34 C 3.850574 -3.991258 0.261292 0
M  V30 35 H 4.833450 -0.946599 -0.133042 0
M  V30 36 H 6.104279 -2.085034 0.607733 0
M  V30 37 H 5.387575 -2.401864 -0.985407 0
M  V30 38 H 3.650734 -0.758685 3.174351 0
M  V30 39 H 6.053360 2.956499 1.506558 0
M  V30 40 H 1.995933 3.439331 0.959929 0
M  V30 41 H 0.078946 2.751665 0.919633 0
M  V30 42 H -2.745494 2.239003 0.756145 0
M  V30 43 H -5.374187 -0.225055 1.675065 0
M  V30 44 H -5.142364 1.478957 1.269774 0
M  V30 45 H -4.817997 -0.806309 -0.583095 0
M  V30 46 H -7.060277 -0.374441 -0.106522 0
M  V30 47 H -6.823222 1.373278 -0.340159 0
M  V30 48 H -6.756624 -0.928845 -2.379057 0
M  V30 49 H -7.944219 0.389344 -2.249771 0
M  V30 50 H -5.022227 0.967625 -3.011692 0
M  V30 51 H -6.422140 2.069303 -3.021906 0
M  V30 52 H -5.909303 0.038518 -4.855405 0
M  V30 53 H -3.662129 -1.842383 1.707243 0
M  V30 54 H -1.224471 -2.297979 2.078679 0
M  V30 55 H 1.705692 -2.396416 3.008509 0
M  V30 56 H 1.204048 -4.652726 2.351984 0
M  V30 57 H 2.073596 -6.636354 0.580676 0
M  V30 58 H 3.857365 -6.933716 -1.194892 0
M  V30 59 H 5.238673 -4.608552 -1.310507 0
M  V30 END ATOM
M  V30 BEGIN BOND
M  V30 1 1 1 2
M  V30 2 2 2 3
M  V30 3 1 3 4
M  V30 4 1 4 5
M  V30 5 2 5 6
M  V30 6 1 6 7
M  V30 7 3 7 8
M  V30 8 1 6 9
M  V30 9 2 9 10
M  V30 10 1 10 11
M  V30 11 2 11 12
M  V30 12 1 12 13
M  V30 13 2 13 14
M  V30 14 1 14 15
M  V30 15 2 15 16
M  V30 16 1 16 17
M  V30 17 1 17 18
M  V30 18 1 18 19
M  V30 19 1 19 20
M  V30 20 1 20 21
M  V30 21 1 21 22
M  V30 22 1 22 23
M  V30 23 2 17 24
M  V30 24 1 24 25
M  V30 25 2 25 26
M  V30 26 1 26 27
M  V30 27 1 3 28
M  V30 28 2 28 29
M  V30 29 1 29 30
M  V30 30 1 30 31
M  V30 31 1 31 32
M  V30 32 2 32 33
M  V30 33 1 33 34
M  V30 34 1 34 2
M  V30 35 1 12 5
M  V30 36 1 27 13
M  V30 37 2 34 30
M  V30 38 1 26 15
M  V30 39 1 1 35
M  V30 40 1 1 36
M  V30 41 1 1 37
M  V30 42 1 4 38
M  V30 43 1 9 39
M  V30 44 1 11 40
M  V30 45 1 14 41
M  V30 46 1 16 42
M  V30 47 1 18 43
M  V30 48 1 18 44
M  V30 49 1 19 45
M  V30 50 1 20 46
M  V30 51 1 20 47
M  V30 52 1 21 48
M  V30 53 1 21 49
M  V30 54 1 22 50
M  V30 55 1 22 51
M  V30 56 1 23 52
M  V30 57 1 24 53
M  V30 58 1 25 54
M  V30 59 1 28 55
M  V30 60 1 29 56
M  V30 61 1 31 57
M  V30 62 1 32 58
M  V30 63 1 33 59
M  V30 END BOND
M  V30 END CTAB
M  END
>  <Dataset>  (570) 
ChEMBL_Kinases

>  <Ligand_Instance>  (570) 
nan

>  <PDB_ID>  (570) 
nan

>  <Standardized_SMILES>  (570) 
Cc1c(Nc2c(C#N)cncc2-c2cc3cc(CNCCCO)ccc3o2)ccc2[nH]ccc12

>  <Name>  (570) 
nan

>  <Pocket>  (570) 
nan

>  <ATP_Site>  (570) 
nan

>  <Peripheral>  (570) 
nan

>  <Num_H_Atoms_ProtBoundConf>  (570) 
nan

>  <Num_Resolved_Atoms>  (570) 
nan

>  <Num_Not_Resolved_Atoms>  (570) 
nan

$$$$
CHEMBL5090428
     RDKit          3D

  0  0  0  0  0  0  0  0  0  0999 V3000
M  V30 BEGIN CTAB
M  V30 COUNTS 59 63 0 0 0
M  V30 BEGIN ATOM
M  V30 1 C -0.552571 -3.130935 2.790258 0
M  V30 2 C 0.518589 -2.114582 2.892972 0
M  V30 3 C 1.408773 -2.118133 3.945877 0
M  V30 4 C 2.406564 -1.171235 4.042052 0
M  V30 5 C 2.509956 -0.204314 3.061574 0
M  V30 6 N 3.529606 0.806610 3.110473 0
M  V30 7 C 3.163376 1.973808 3.792801 0
M  V30 8 O 2.048125 2.183324 4.340857 0
M  V30 9 C 4.122191 3.068410 3.904602 0
M  V30 10 C 5.372919 3.127454 3.424447 0
M  V30 11 C 6.138384 4.249116 3.627003 0
M  V30 12 C 5.508824 5.273203 4.350564 0
M  V30 13 C 6.037724 6.598304 4.739856 0
M  V30 14 F 6.490304 6.531266 6.020768 0
M  V30 15 F 5.075395 7.585487 4.645695 0
M  V30 16 F 7.102437 6.830761 3.907882 0
M  V30 17 S 3.887707 4.581280 4.691549 0
M  V30 18 C 1.600041 -0.233563 2.022807 0
M  V30 19 C 0.587498 -1.166393 1.893209 0
M  V30 20 C -0.307062 -1.077941 0.737509 0
M  V30 21 C -0.775151 0.205019 0.443518 0
M  V30 22 C -1.631544 0.455731 -0.621753 0
M  V30 23 C -2.016392 -0.603916 -1.395381 0
M  V30 24 C -1.571575 -1.882928 -1.131059 0
M  V30 25 C -0.721451 -2.117418 -0.069958 0
M  V30 26 O -1.836239 -3.074343 -1.779431 0
M  V30 27 C -2.798000 -3.365031 -2.789810 0
M  V30 28 C -4.204482 -3.310323 -2.248438 0
M  V30 29 C -5.096740 -4.352729 -2.885306 0
M  V30 30 O -4.764038 -4.527041 -4.220198 0
M  V30 31 C -3.524609 -5.089386 -4.404132 0
M  V30 32 C -2.570573 -4.788494 -3.247604 0
M  V30 33 C -2.701708 -2.386119 -3.936279 0
M  V30 34 C -3.379892 -1.105299 -3.555420 0
M  V30 35 O -4.415401 -0.664547 -4.149344 0
M  V30 36 N -2.900933 -0.274630 -2.478006 0
M  V30 37 H -0.199685 -4.104701 2.364414 0
M  V30 38 H -1.461014 -2.764766 2.286462 0
M  V30 39 H -0.861932 -3.376307 3.827336 0
M  V30 40 H 1.311382 -2.883155 4.703243 0
M  V30 41 H 3.106690 -1.174297 4.870448 0
M  V30 42 H 4.489189 0.692235 2.669074 0
M  V30 43 H 5.802133 2.280169 2.862932 0
M  V30 44 H 7.152997 4.422808 3.295024 0
M  V30 45 H 1.703576 0.538946 1.264116 0
M  V30 46 H -0.511113 1.093398 1.014845 0
M  V30 47 H -1.998256 1.445185 -0.856036 0
M  V30 48 H -0.335162 -3.093071 0.193269 0
M  V30 49 H -4.235806 -3.430894 -1.145763 0
M  V30 50 H -4.611650 -2.305123 -2.476786 0
M  V30 51 H -6.142529 -4.019894 -2.785347 0
M  V30 52 H -4.989929 -5.275261 -2.281963 0
M  V30 53 H -3.053400 -4.800989 -5.369733 0
M  V30 54 H -3.633273 -6.192971 -4.435636 0
M  V30 55 H -1.546619 -5.012756 -3.547996 0
M  V30 56 H -2.885552 -5.468145 -2.431950 0
M  V30 57 H -3.286627 -2.807559 -4.779053 0
M  V30 58 H -1.651583 -2.203612 -4.242904 0
M  V30 59 H -3.233023 0.715349 -2.462603 0
M  V30 END ATOM
M  V30 BEGIN BOND
M  V30 1 1 1 2
M  V30 2 2 2 3
M  V30 3 1 3 4
M  V30 4 2 4 5
M  V30 5 1 5 6
M  V30 6 1 6 7
M  V30 7 2 7 8
M  V30 8 1 7 9
M  V30 9 2 9 10
M  V30 10 1 10 11
M  V30 11 2 11 12
M  V30 12 1 12 13
M  V30 13 1 13 14
M  V30 14 1 13 15
M  V30 15 1 13 16
M  V30 16 1 12 17
M  V30 17 1 5 18
M  V30 18 2 18 19
M  V30 19 1 19 20
M  V30 20 2 20 21
M  V30 21 1 21 22
M  V30 22 2 22 23
M  V30 23 1 23 24
M  V30 24 2 24 25
M  V30 25 1 24 26
M  V30 26 1 26 27
M  V30 27 1 27 28
M  V30 28 1 28 29
M  V30 29 1 29 30
M  V30 30 1 30 31
M  V30 31 1 31 32
M  V30 32 1 27 33
M  V30 33 1 33 34
M  V30 34 2 34 35
M  V30 35 1 34 36
M  V30 36 1 19 2
M  V30 37 1 25 20
M  V30 38 1 32 27
M  V30 39 1 17 9
M  V30 40 1 36 23
M  V30 41 1 1 37
M  V30 42 1 1 38
M  V30 43 1 1 39
M  V30 44 1 3 40
M  V30 45 1 4 41
M  V30 46 1 6 42
M  V30 47 1 10 43
M  V30 48 1 11 44
M  V30 49 1 18 45
M  V30 50 1 21 46
M  V30 51 1 22 47
M  V30 52 1 25 48
M  V30 53 1 28 49
M  V30 54 1 28 50
M  V30 55 1 29 51
M  V30 56 1 29 52
M  V30 57 1 31 53
M  V30 58 1 31 54
M  V30 59 1 32 55
M  V30 60 1 32 56
M  V30 61 1 33 57
M  V30 62 1 33 58
M  V30 63 1 36 59
M  V30 END BOND
M  V30 END CTAB
M  END
>  <Dataset>  (571) 
ChEMBL_Kinases

>  <Ligand_Instance>  (571) 
nan

>  <PDB_ID>  (571) 
nan

>  <Standardized_SMILES>  (571) 
Cc1ccc(NC(=O)c2ccc(C(F)(F)F)s2)cc1-c1ccc2c(c1)OC1(CCOCC1)CC(=O)N2

>  <Name>  (571) 
nan

>  <Pocket>  (571) 
nan

>  <ATP_Site>  (571) 
nan

>  <Peripheral>  (571) 
nan

>  <Num_H_Atoms_ProtBoundConf>  (571) 
nan

>  <Num_Resolved_Atoms>  (571) 
nan

>  <Num_Not_Resolved_Atoms>  (571) 
nan

$$$$
CHEMBL5090465
     RDKit          3D

  0  0  0  0  0  0  0  0  0  0999 V3000
M  V30 BEGIN CTAB
M  V30 COUNTS 56 60 0 0 0
M  V30 BEGIN ATOM
M  V30 1 C -0.570571 -0.197646 4.277956 0
M  V30 2 C 0.364016 0.853616 3.797530 0
M  V30 3 C 0.862600 1.779029 4.689593 0
M  V30 4 N 1.699199 2.739182 4.319723 0
M  V30 5 C 2.120507 2.879012 3.050911 0
M  V30 6 N 3.017378 3.917644 2.683597 0
M  V30 7 C 3.503391 4.128510 1.376390 0
M  V30 8 C 3.235303 3.417932 0.226746 0
M  V30 9 C 3.923473 3.968660 -0.830572 0
M  V30 10 N 4.595180 5.001470 -0.303491 0
M  V30 11 N 4.349944 5.096252 0.989490 0
M  V30 12 C 4.907249 6.101866 1.894769 0
M  V30 13 N 1.637944 1.983711 2.188702 0
M  V30 14 C 0.788881 0.986235 2.491549 0
M  V30 15 C 0.290652 0.031720 1.506091 0
M  V30 16 C 0.989859 -0.656076 0.510245 0
M  V30 17 C 0.090065 -1.461946 -0.192413 0
M  V30 18 N -1.128067 -1.280007 0.349885 0
M  V30 19 C -1.006983 -0.393391 1.357603 0
M  V30 20 C -2.003647 -2.118113 -0.398552 0
M  V30 21 O -3.221431 -2.168955 -0.129196 0
M  V30 22 N -1.289285 -2.816598 -1.412285 0
M  V30 23 C -1.827757 -3.757896 -2.378410 0 CFG=2
M  V30 24 C -2.789279 -3.075294 -3.320446 0
M  V30 25 N -3.919281 -2.475344 -2.685310 0
M  V30 26 C -2.407805 -4.908595 -1.687677 0
M  V30 27 C -1.694777 -5.475092 -0.658207 0
M  V30 28 C -2.196758 -6.575766 0.039006 0
M  V30 29 C -3.420705 -7.125258 -0.284900 0
M  V30 30 C -4.168702 -6.573014 -1.324999 0
M  V30 31 Cl -5.718922 -7.242925 -1.759972 0
M  V30 32 C -3.615242 -5.481813 -1.977689 0
M  V30 33 C 0.124926 -2.421929 -1.326513 0
M  V30 34 H -1.619703 0.149404 4.344258 0
M  V30 35 H -0.306137 -0.494872 5.328599 0
M  V30 36 H -0.419019 -1.087340 3.648934 0
M  V30 37 H 0.578934 1.744995 5.733226 0
M  V30 38 H 3.336029 4.572479 3.453014 0
M  V30 39 H 2.600340 2.562389 0.108703 0
M  V30 40 H 3.932238 3.649788 -1.869963 0
M  V30 41 H 5.709306 5.676441 2.524840 0
M  V30 42 H 4.063912 6.442789 2.530731 0
M  V30 43 H 5.320199 6.920549 1.290298 0
M  V30 44 H 2.068044 -0.558766 0.333316 0
M  V30 45 H -1.821361 -0.065334 1.962440 0
M  V30 46 H -0.995045 -4.135085 -3.037805 0
M  V30 47 H -3.116472 -3.873531 -4.048240 0
M  V30 48 H -2.222512 -2.359254 -3.950424 0
M  V30 49 H -4.791740 -2.772555 -3.215312 0
M  V30 50 H -3.929050 -1.427344 -2.731632 0
M  V30 51 H -0.725054 -5.148231 -0.298694 0
M  V30 52 H -1.716068 -7.091732 0.860163 0
M  V30 53 H -3.858774 -7.976549 0.219950 0
M  V30 54 H -4.207007 -5.062454 -2.783914 0
M  V30 55 H 0.432677 -1.868098 -2.242614 0
M  V30 56 H 0.788412 -3.282734 -1.116182 0
M  V30 END ATOM
M  V30 BEGIN BOND
M  V30 1 1 1 2
M  V30 2 2 2 3
M  V30 3 1 3 4
M  V30 4 2 4 5
M  V30 5 1 5 6
M  V30 6 1 6 7
M  V30 7 2 7 8
M  V30 8 1 8 9
M  V30 9 2 9 10
M  V30 10 1 10 11
M  V30 11 1 11 12
M  V30 12 1 5 13
M  V30 13 2 13 14
M  V30 14 1 14 15
M  V30 15 1 15 16
M  V30 16 2 16 17
M  V30 17 1 17 18
M  V30 18 1 18 19
M  V30 19 1 18 20
M  V30 20 2 20 21
M  V30 21 1 20 22
M  V30 22 1 22 23
M  V30 23 1 23 24
M  V30 24 1 24 25
M  V30 25 1 23 26
M  V30 26 2 26 27
M  V30 27 1 27 28
M  V30 28 2 28 29
M  V30 29 1 29 30
M  V30 30 1 30 31
M  V30 31 2 30 32
M  V30 32 1 22 33
M  V30 33 1 14 2
M  V30 34 2 19 15
M  V30 35 1 32 26
M  V30 36 1 11 7
M  V30 37 1 33 17
M  V30 38 1 1 34
M  V30 39 1 1 35
M  V30 40 1 1 36
M  V30 41 1 3 37
M  V30 42 1 6 38
M  V30 43 1 8 39
M  V30 44 1 9 40
M  V30 45 1 12 41
M  V30 46 1 12 42
M  V30 47 1 12 43
M  V30 48 1 16 44
M  V30 49 1 19 45
M  V30 50 1 23 46 CFG=3
M  V30 51 1 24 47
M  V30 52 1 24 48
M  V30 53 1 25 49
M  V30 54 1 25 50
M  V30 55 1 27 51
M  V30 56 1 28 52
M  V30 57 1 29 53
M  V30 58 1 32 54
M  V30 59 1 33 55
M  V30 60 1 33 56
M  V30 END BOND
M  V30 END CTAB
M  END
>  <Dataset>  (572) 
ChEMBL_Kinases

>  <Ligand_Instance>  (572) 
nan

>  <PDB_ID>  (572) 
nan

>  <Standardized_SMILES>  (572) 
Cc1cnc(Nc2ccnn2C)nc1-c1cc2n(c1)C(=O)N([C@H](CN)c1cccc(Cl)c1)C2

>  <Name>  (572) 
nan

>  <Pocket>  (572) 
nan

>  <ATP_Site>  (572) 
nan

>  <Peripheral>  (572) 
nan

>  <Num_H_Atoms_ProtBoundConf>  (572) 
nan

>  <Num_Resolved_Atoms>  (572) 
nan

>  <Num_Not_Resolved_Atoms>  (572) 
nan

$$$$
CHEMBL5090615
     RDKit          3D

  0  0  0  0  0  0  0  0  0  0999 V3000
M  V30 BEGIN CTAB
M  V30 COUNTS 58 61 0 0 0
M  V30 BEGIN ATOM
M  V30 1 O -0.771145 3.915594 4.272486 0
M  V30 2 C -0.295788 2.885044 3.729137 0
M  V30 3 N 0.772588 2.203477 4.368888 0
M  V30 4 C 1.289730 2.711657 5.632788 0
M  V30 5 C 2.431527 1.773258 6.077290 0
M  V30 6 O 1.984753 0.499568 6.245471 0
M  V30 7 C 2.903858 -0.389213 6.678504 0
M  V30 8 C 4.110479 -0.642963 5.855109 0
M  V30 9 O 4.900968 0.454725 5.642167 0
M  V30 10 C -0.884776 2.458532 2.463070 0
M  V30 11 C -1.918414 3.220715 1.958358 0
M  V30 12 C -2.522337 2.860259 0.748144 0
M  V30 13 C -2.118789 1.747363 0.019009 0
M  V30 14 C -1.078632 1.032834 0.586497 0
M  V30 15 C -0.446541 1.343053 1.777006 0
M  V30 16 C -0.424627 -0.192713 0.061405 0
M  V30 17 O 0.516613 -0.710832 0.717086 0
M  V30 18 C -0.786419 -0.872444 -1.186385 0
M  V30 19 C -0.316035 -2.175300 -1.187974 0
M  V30 20 C -0.542556 -3.005180 -2.269272 0
M  V30 21 C -1.252816 -2.441271 -3.309021 0
M  V30 22 N -1.526259 -3.230146 -4.459549 0
M  V30 23 C -1.127304 -4.570674 -4.714607 0
M  V30 24 C -2.059287 -5.578219 -4.926431 0
M  V30 25 C -1.613719 -6.871273 -5.173122 0
M  V30 26 C -0.247134 -7.117748 -5.200497 0
M  V30 27 F 0.204076 -8.385436 -5.442139 0
M  V30 28 C 0.704035 -6.130499 -4.992394 0
M  V30 29 C 0.231235 -4.840248 -4.746713 0
M  V30 30 F 1.215595 -3.929617 -4.554802 0
M  V30 31 C -1.732880 -1.148719 -3.334932 0
M  V30 32 C -1.498906 -0.327215 -2.244465 0
M  V30 33 C -2.053050 1.020845 -2.380954 0
M  V30 34 C -2.860663 1.520128 -1.222625 0
M  V30 35 H 1.160163 1.364951 3.927777 0
M  V30 36 H 0.531151 2.788963 6.410992 0
M  V30 37 H 1.756278 3.695314 5.418884 0
M  V30 38 H 3.190875 1.837534 5.255248 0
M  V30 39 H 2.912792 2.165033 6.985271 0
M  V30 40 H 2.381019 -1.395724 6.780735 0
M  V30 41 H 3.242809 -0.200918 7.740127 0
M  V30 42 H 3.812532 -1.080180 4.856035 0
M  V30 43 H 4.769685 -1.440504 6.310659 0
M  V30 44 H 5.184540 0.529912 4.675527 0
M  V30 45 H -2.342886 4.107868 2.403426 0
M  V30 46 H -3.344964 3.447747 0.324661 0
M  V30 47 H 0.353516 0.746942 2.160643 0
M  V30 48 H 0.241385 -2.556264 -0.326141 0
M  V30 49 H -0.170226 -4.005350 -2.245481 0
M  V30 50 H -2.073249 -2.903967 -5.283062 0
M  V30 51 H -3.114121 -5.378175 -4.903466 0
M  V30 52 H -2.270355 -7.711031 -5.347817 0
M  V30 53 H 1.753793 -6.402455 -5.029554 0
M  V30 54 H -2.289267 -0.771734 -4.197456 0
M  V30 55 H -2.771135 0.982025 -3.241166 0
M  V30 56 H -1.302380 1.790050 -2.671509 0
M  V30 57 H -3.334814 2.462062 -1.532049 0
M  V30 58 H -3.719914 0.802707 -1.071553 0
M  V30 END ATOM
M  V30 BEGIN BOND
M  V30 1 2 1 2
M  V30 2 1 2 3
M  V30 3 1 3 4
M  V30 4 1 4 5
M  V30 5 1 5 6
M  V30 6 1 6 7
M  V30 7 1 7 8
M  V30 8 1 8 9
M  V30 9 1 2 10
M  V30 10 2 10 11
M  V30 11 1 11 12
M  V30 12 2 12 13
M  V30 13 1 13 14
M  V30 14 2 14 15
M  V30 15 1 14 16
M  V30 16 2 16 17
M  V30 17 1 16 18
M  V30 18 2 18 19
M  V30 19 1 19 20
M  V30 20 2 20 21
M  V30 21 1 21 22
M  V30 22 1 22 23
M  V30 23 2 23 24
M  V30 24 1 24 25
M  V30 25 2 25 26
M  V30 26 1 26 27
M  V30 27 1 26 28
M  V30 28 2 28 29
M  V30 29 1 29 30
M  V30 30 1 21 31
M  V30 31 2 31 32
M  V30 32 1 32 33
M  V30 33 1 33 34
M  V30 34 1 15 10
M  V30 35 1 32 18
M  V30 36 1 34 13
M  V30 37 1 29 23
M  V30 38 1 3 35
M  V30 39 1 4 36
M  V30 40 1 4 37
M  V30 41 1 5 38
M  V30 42 1 5 39
M  V30 43 1 7 40
M  V30 44 1 7 41
M  V30 45 1 8 42
M  V30 46 1 8 43
M  V30 47 1 9 44
M  V30 48 1 11 45
M  V30 49 1 12 46
M  V30 50 1 15 47
M  V30 51 1 19 48
M  V30 52 1 20 49
M  V30 53 1 22 50
M  V30 54 1 24 51
M  V30 55 1 25 52
M  V30 56 1 28 53
M  V30 57 1 31 54
M  V30 58 1 33 55
M  V30 59 1 33 56
M  V30 60 1 34 57
M  V30 61 1 34 58
M  V30 END BOND
M  V30 END CTAB
M  END
>  <Dataset>  (573) 
ChEMBL_Kinases

>  <Ligand_Instance>  (573) 
nan

>  <PDB_ID>  (573) 
nan

>  <Standardized_SMILES>  (573) 
O=C(NCCOCCO)c1ccc2c(c1)C(=O)c1ccc(Nc3ccc(F)cc3F)cc1CC2

>  <Name>  (573) 
nan

>  <Pocket>  (573) 
nan

>  <ATP_Site>  (573) 
nan

>  <Peripheral>  (573) 
nan

>  <Num_H_Atoms_ProtBoundConf>  (573) 
nan

>  <Num_Resolved_Atoms>  (573) 
nan

>  <Num_Not_Resolved_Atoms>  (573) 
nan

$$$$
CHEMBL3702325
     RDKit          3D

  0  0  0  0  0  0  0  0  0  0999 V3000
M  V30 BEGIN CTAB
M  V30 COUNTS 41 43 0 0 0
M  V30 BEGIN ATOM
M  V30 1 C 3.633865 0.816470 1.400159 0
M  V30 2 C 3.152296 0.733950 -0.001603 0
M  V30 3 C 4.192315 0.740801 -0.914580 0
M  V30 4 C 5.596092 0.791860 -0.815868 0
M  V30 5 O 6.218685 0.848634 0.254137 0
M  V30 6 O 6.405573 0.781171 -1.935231 0
M  V30 7 S 3.363051 0.669288 -2.508822 0
M  V30 8 C 1.678129 0.635598 -1.840120 0
M  V30 9 N 0.481661 0.590052 -2.449021 0
M  V30 10 C -0.661256 0.583126 -1.741725 0
M  V30 11 N -0.436533 0.623720 -0.457545 0
M  V30 12 C 0.672874 0.669041 0.247676 0
M  V30 13 N 0.527798 0.683508 1.661506 0
M  V30 14 C 0.025132 -0.506121 2.336901 0
M  V30 15 C 0.999418 -1.096818 3.161476 0
M  V30 16 C 0.703938 -2.232330 3.899744 0
M  V30 17 C -0.541984 -2.822900 3.857162 0
M  V30 18 F -0.958486 -3.924288 4.519341 0
M  V30 19 C -1.439425 -2.190664 3.031765 0
M  V30 20 C -1.275323 -1.068667 2.253172 0
M  V30 21 O -1.976938 -0.322846 1.429891 0
M  V30 22 C -3.211258 -0.289351 0.909803 0
M  V30 23 C -3.727633 -1.305041 -0.043230 0
M  V30 24 C -3.799074 -2.723161 0.346918 0
M  V30 25 F -4.367319 -3.479040 -0.725787 0
M  V30 26 F -2.508170 -3.284538 0.393140 0
M  V30 27 F -4.559127 -3.036669 1.425759 0
M  V30 28 C 1.862407 0.680214 -0.437501 0
M  V30 29 H 4.388550 1.670063 1.511346 0
M  V30 30 H 4.255640 -0.083684 1.617045 0
M  V30 31 H 2.878081 0.973864 2.154957 0
M  V30 32 H 7.404043 0.641440 -1.904603 0
M  V30 33 H -1.622403 0.549270 -2.207779 0
M  V30 34 H 0.680836 1.406527 2.427220 0
M  V30 35 H 2.021822 -0.827085 3.358891 0
M  V30 36 H 1.400522 -2.762427 4.566871 0
M  V30 37 H -2.438906 -2.569138 2.945335 0
M  V30 38 H -4.034140 -0.265729 1.737893 0
M  V30 39 H -3.435495 0.766269 0.462122 0
M  V30 40 H -4.785545 -0.970341 -0.315719 0
M  V30 41 H -3.210879 -1.190081 -1.056016 0
M  V30 END ATOM
M  V30 BEGIN BOND
M  V30 1 1 1 2
M  V30 2 2 2 3
M  V30 3 1 3 4
M  V30 4 2 4 5
M  V30 5 1 4 6
M  V30 6 1 3 7
M  V30 7 1 7 8
M  V30 8 2 8 9
M  V30 9 1 9 10
M  V30 10 2 10 11
M  V30 11 1 11 12
M  V30 12 1 12 13
M  V30 13 1 13 14
M  V30 14 2 14 15
M  V30 15 1 15 16
M  V30 16 2 16 17
M  V30 17 1 17 18
M  V30 18 1 17 19
M  V30 19 2 19 20
M  V30 20 1 20 21
M  V30 21 1 21 22
M  V30 22 1 22 23
M  V30 23 1 23 24
M  V30 24 1 24 25
M  V30 25 1 24 26
M  V30 26 1 24 27
M  V30 27 2 12 28
M  V30 28 1 28 2
M  V30 29 1 28 8
M  V30 30 1 20 14
M  V30 31 1 1 29
M  V30 32 1 1 30
M  V30 33 1 1 31
M  V30 34 1 6 32
M  V30 35 1 10 33
M  V30 36 1 13 34
M  V30 37 1 15 35
M  V30 38 1 16 36
M  V30 39 1 19 37
M  V30 40 1 22 38
M  V30 41 1 22 39
M  V30 42 1 23 40
M  V30 43 1 23 41
M  V30 END BOND
M  V30 END CTAB
M  END
>  <Dataset>  (574) 
ChEMBL_Kinases

>  <Ligand_Instance>  (574) 
nan

>  <PDB_ID>  (574) 
nan

>  <Standardized_SMILES>  (574) 
Cc1c(C(=O)O)sc2ncnc(Nc3ccc(F)cc3OCCC(F)(F)F)c12

>  <Name>  (574) 
nan

>  <Pocket>  (574) 
nan

>  <ATP_Site>  (574) 
nan

>  <Peripheral>  (574) 
nan

>  <Num_H_Atoms_ProtBoundConf>  (574) 
nan

>  <Num_Resolved_Atoms>  (574) 
nan

>  <Num_Not_Resolved_Atoms>  (574) 
nan

$$$$
CHEMBL5090684
     RDKit          3D

  0  0  0  0  0  0  0  0  0  0999 V3000
M  V30 BEGIN CTAB
M  V30 COUNTS 53 57 0 0 0
M  V30 BEGIN ATOM
M  V30 1 O -1.409743 -1.691949 -1.816100 0
M  V30 2 S -2.843918 -1.241565 -2.009471 0
M  V30 3 O -3.486848 -2.541191 -2.557334 0
M  V30 4 N -3.056304 -0.163517 -3.261780 0
M  V30 5 C -2.629690 1.096661 -3.244142 0
M  V30 6 C -2.167672 2.467459 -3.230359 0
M  V30 7 N -1.709474 2.734635 -1.845567 0
M  V30 8 C -0.731510 2.193191 -1.022450 0
M  V30 9 N -0.910373 2.406521 0.306643 0
M  V30 10 C -0.041080 1.976536 1.238603 0
M  V30 11 C 1.081401 1.297311 0.811932 0
M  V30 12 C 1.282251 1.072529 -0.570335 0
M  V30 13 C 2.583695 0.432501 -0.636877 0
M  V30 14 C 2.865791 -0.903524 -0.809247 0
M  V30 15 C 2.120850 -2.122958 -0.985832 0
M  V30 16 C 1.145155 -2.712854 -0.143802 0
M  V30 17 C 0.585292 -3.894982 -0.527757 0
M  V30 18 C 0.884550 -4.584161 -1.683422 0
M  V30 19 C 1.816982 -4.066235 -2.544704 0
M  V30 20 C 2.400771 -2.856455 -2.163961 0
M  V30 21 N 4.204591 -1.050622 -0.802057 0
M  V30 22 C 4.774823 0.180394 -0.625187 0
M  V30 23 S 6.328281 1.096061 -0.464201 0
M  V30 24 C 5.435277 2.766777 -0.269044 0
M  V30 25 C 4.079386 2.386821 -0.348515 0
M  V30 26 N 3.765930 1.114849 -0.522058 0
M  V30 27 N 0.355057 1.531767 -1.423422 0
M  V30 28 C -3.502448 -0.996065 -0.453981 0
M  V30 29 C -3.845571 0.088284 0.307249 0
M  V30 30 C -4.269839 0.076175 1.630121 0
M  V30 31 C -4.356359 -1.163429 2.248543 0
M  V30 32 F -4.760441 -1.179847 3.527802 0
M  V30 33 C -4.038038 -2.287055 1.569337 0
M  V30 34 C -3.628320 -2.213278 0.265602 0
M  V30 35 H -3.815426 -0.465451 -3.954005 0
M  V30 36 H -3.662997 1.425976 -2.403701 0
M  V30 37 H -3.566929 1.439611 -4.135580 0
M  V30 38 H -1.276844 2.664164 -3.910364 0
M  V30 39 H -2.838695 3.290812 -3.482545 0
M  V30 40 H -2.279645 3.521047 -1.434692 0
M  V30 41 H -0.310721 2.219486 2.283741 0
M  V30 42 H 1.668953 1.032671 1.677231 0
M  V30 43 H 0.973790 -2.126257 0.741133 0
M  V30 44 H -0.153381 -4.318897 0.138723 0
M  V30 45 H 0.415490 -5.528281 -1.942333 0
M  V30 46 H 2.102495 -4.534139 -3.458284 0
M  V30 47 H 3.144418 -2.469223 -2.868500 0
M  V30 48 H 5.928249 3.726438 -0.123230 0
M  V30 49 H 3.501695 3.285041 -0.238692 0
M  V30 50 H -3.771411 1.009734 -0.190448 0
M  V30 51 H -4.506190 0.999909 2.090987 0
M  V30 52 H -4.126972 -3.215275 2.143428 0
M  V30 53 H -3.405562 -3.210694 -0.146689 0
M  V30 END ATOM
M  V30 BEGIN BOND
M  V30 1 2 1 2
M  V30 2 2 2 3
M  V30 3 1 2 4
M  V30 4 1 4 5
M  V30 5 1 5 6
M  V30 6 1 6 7
M  V30 7 1 7 8
M  V30 8 2 8 9
M  V30 9 1 9 10
M  V30 10 2 10 11
M  V30 11 1 11 12
M  V30 12 1 12 13
M  V30 13 2 13 14
M  V30 14 1 14 15
M  V30 15 2 15 16
M  V30 16 1 16 17
M  V30 17 2 17 18
M  V30 18 1 18 19
M  V30 19 2 19 20
M  V30 20 1 14 21
M  V30 21 2 21 22
M  V30 22 1 22 23
M  V30 23 1 23 24
M  V30 24 2 24 25
M  V30 25 1 25 26
M  V30 26 2 12 27
M  V30 27 1 2 28
M  V30 28 2 28 29
M  V30 29 1 29 30
M  V30 30 2 30 31
M  V30 31 1 31 32
M  V30 32 1 31 33
M  V30 33 2 33 34
M  V30 34 1 27 8
M  V30 35 1 34 28
M  V30 36 1 26 13
M  V30 37 1 20 15
M  V30 38 1 26 22
M  V30 39 1 4 35
M  V30 40 1 5 36
M  V30 41 1 5 37
M  V30 42 1 6 38
M  V30 43 1 6 39
M  V30 44 1 7 40
M  V30 45 1 10 41
M  V30 46 1 11 42
M  V30 47 1 16 43
M  V30 48 1 17 44
M  V30 49 1 18 45
M  V30 50 1 19 46
M  V30 51 1 20 47
M  V30 52 1 24 48
M  V30 53 1 25 49
M  V30 54 1 29 50
M  V30 55 1 30 51
M  V30 56 1 33 52
M  V30 57 1 34 53
M  V30 END BOND
M  V30 END CTAB
M  END
>  <Dataset>  (575) 
ChEMBL_Kinases

>  <Ligand_Instance>  (575) 
nan

>  <PDB_ID>  (575) 
nan

>  <Standardized_SMILES>  (575) 
O=S(=O)(NCCNc1nccc(-c2c(-c3ccccc3)nc3sccn23)n1)c1ccc(F)cc1

>  <Name>  (575) 
nan

>  <Pocket>  (575) 
nan

>  <ATP_Site>  (575) 
nan

>  <Peripheral>  (575) 
nan

>  <Num_H_Atoms_ProtBoundConf>  (575) 
nan

>  <Num_Resolved_Atoms>  (575) 
nan

>  <Num_Not_Resolved_Atoms>  (575) 
nan

$$$$
CHEMBL5090756
     RDKit          3D

  0  0  0  0  0  0  0  0  0  0999 V3000
M  V30 BEGIN CTAB
M  V30 COUNTS 93 97 0 0 0
M  V30 BEGIN ATOM
M  V30 1 C -1.630367 -5.702781 3.724280 0
M  V30 2 C -0.914761 -4.414874 3.867081 0
M  V30 3 N 0.522947 -4.687125 4.032898 0
M  V30 4 C 1.235129 -3.866431 4.936214 0
M  V30 5 O 0.670968 -2.938912 5.569443 0
M  V30 6 C 2.679691 -4.101881 5.140873 0
M  V30 7 C 3.437013 -3.230213 5.899462 0
M  V30 8 C 4.735434 -3.740190 5.895679 0
M  V30 9 C 5.843198 -3.118312 6.571404 0
M  V30 10 C 7.120153 -3.703466 6.511360 0
M  V30 11 C 8.192754 -3.113216 7.134744 0
M  V30 12 C 8.074893 -1.914860 7.853447 0
M  V30 13 C 6.816691 -1.384620 7.884725 0
M  V30 14 C 5.689963 -1.931354 7.275104 0
M  V30 15 N 4.675958 -4.860681 5.153445 0
M  V30 16 N 3.468070 -5.088458 4.699746 0
M  V30 17 C -1.029847 -3.604693 2.587711 0
M  V30 18 C -0.300750 -4.022398 1.480836 0
M  V30 19 C -0.394804 -3.252365 0.313666 0
M  V30 20 C -1.196165 -2.099058 0.261393 0
M  V30 21 C -1.128595 -1.420626 -1.026788 0
M  V30 22 O -0.381083 -1.833864 -1.933753 0
M  V30 23 N -1.964718 -0.260020 -1.175362 0
M  V30 24 C -1.875438 0.424939 -2.439703 0 CFG=1
M  V30 25 C -3.133141 0.095748 -3.259405 0
M  V30 26 C -3.155624 -1.403851 -3.466004 0
M  V30 27 C -4.353746 -1.856322 -4.258534 0
M  V30 28 C -4.441655 -1.267025 -5.629011 0
M  V30 29 C -4.157136 -2.285842 -6.714973 0
M  V30 30 C -2.930664 -3.073535 -6.349214 0
M  V30 31 C -3.105919 -3.825240 -5.060183 0
M  V30 32 C -4.342971 -3.372563 -4.316789 0
M  V30 33 C -1.736700 1.884475 -2.285077 0
M  V30 34 O -1.790061 2.409054 -1.138718 0
M  V30 35 N -1.537469 2.818653 -3.332781 0
M  V30 36 C -1.414139 4.246143 -3.111079 0 CFG=2
M  V30 37 C -2.259749 5.072245 -3.988065 0
M  V30 38 C -1.809733 6.514531 -3.941114 0
M  V30 39 C -1.021737 6.804843 -2.665169 0
M  V30 40 N 0.144211 5.994471 -2.616332 0
M  V30 41 S 1.027812 6.026463 -1.168853 0
M  V30 42 C 1.648105 7.665474 -0.820936 0
M  V30 43 O 0.198080 5.608723 0.027061 0
M  V30 44 O 2.170935 5.060674 -1.228142 0
M  V30 45 C 0.032748 4.690188 -3.201354 0
M  V30 46 C -1.898793 -1.725791 1.378381 0
M  V30 47 C -1.833604 -2.456476 2.547057 0
M  V30 48 H -2.218648 -5.915932 4.653996 0
M  V30 49 H -0.906261 -6.538806 3.654223 0
M  V30 50 H -2.279547 -5.756351 2.820703 0
M  V30 51 H -1.264304 -3.732600 4.649139 0
M  V30 52 H 0.957571 -5.459961 3.490648 0
M  V30 53 H 3.140222 -2.320329 6.417098 0
M  V30 54 H 7.176074 -4.632569 5.945762 0
M  V30 55 H 9.159527 -3.621672 7.048311 0
M  V30 56 H 8.935867 -1.473878 8.334050 0
M  V30 57 H 6.666535 -0.446688 8.435666 0
M  V30 58 H 4.742361 -1.450506 7.350383 0
M  V30 59 H 3.008484 -5.819557 4.106044 0
M  V30 60 H 0.317339 -4.914864 1.523757 0
M  V30 61 H 0.207039 -3.648039 -0.509523 0
M  V30 62 H -2.620963 0.135704 -0.472763 0
M  V30 63 H -1.046852 0.015919 -3.060091 0
M  V30 64 H -3.992409 0.424684 -2.680610 0
M  V30 65 H -3.019750 0.600259 -4.243585 0
M  V30 66 H -2.205941 -1.734285 -3.964508 0
M  V30 67 H -3.190451 -1.919891 -2.490617 0
M  V30 68 H -5.251013 -1.591985 -3.642529 0
M  V30 69 H -5.519812 -0.968037 -5.790013 0
M  V30 70 H -3.819158 -0.394478 -5.823717 0
M  V30 71 H -5.036033 -2.911854 -6.909144 0
M  V30 72 H -3.951551 -1.712582 -7.655715 0
M  V30 73 H -2.675453 -3.787251 -7.174050 0
M  V30 74 H -2.064628 -2.401161 -6.254350 0
M  V30 75 H -3.228307 -4.912130 -5.277417 0
M  V30 76 H -2.175115 -3.751470 -4.424596 0
M  V30 77 H -5.215416 -3.765372 -4.863518 0
M  V30 78 H -4.278980 -3.789300 -3.291816 0
M  V30 79 H -1.479293 2.429727 -4.316864 0
M  V30 80 H -1.697663 4.427040 -2.040508 0
M  V30 81 H -2.252032 4.783767 -5.060159 0
M  V30 82 H -3.312641 5.018077 -3.574229 0
M  V30 83 H -2.635229 7.244447 -4.046472 0
M  V30 84 H -1.062852 6.724568 -4.767662 0
M  V30 85 H -0.758620 7.879989 -2.693675 0
M  V30 86 H -1.720004 6.701436 -1.808119 0
M  V30 87 H 1.203534 8.402918 -1.520485 0
M  V30 88 H 2.759993 7.658143 -0.974186 0
M  V30 89 H 1.487854 7.971646 0.234458 0
M  V30 90 H 0.390736 4.657905 -4.253470 0
M  V30 91 H 0.692094 4.012758 -2.612089 0
M  V30 92 H -2.499326 -0.835922 1.291144 0
M  V30 93 H -2.393923 -2.140242 3.402241 0
M  V30 END ATOM
M  V30 BEGIN BOND
M  V30 1 1 1 2
M  V30 2 1 2 3
M  V30 3 1 3 4
M  V30 4 2 4 5
M  V30 5 1 4 6
M  V30 6 2 6 7
M  V30 7 1 7 8
M  V30 8 1 8 9
M  V30 9 2 9 10
M  V30 10 1 10 11
M  V30 11 2 11 12
M  V30 12 1 12 13
M  V30 13 2 13 14
M  V30 14 2 8 15
M  V30 15 1 15 16
M  V30 16 1 2 17
M  V30 17 2 17 18
M  V30 18 1 18 19
M  V30 19 2 19 20
M  V30 20 1 20 21
M  V30 21 2 21 22
M  V30 22 1 21 23
M  V30 23 1 23 24
M  V30 24 1 24 25
M  V30 25 1 25 26
M  V30 26 1 26 27
M  V30 27 1 27 28
M  V30 28 1 28 29
M  V30 29 1 29 30
M  V30 30 1 30 31
M  V30 31 1 31 32
M  V30 32 1 24 33
M  V30 33 2 33 34
M  V30 34 1 33 35
M  V30 35 1 35 36
M  V30 36 1 36 37
M  V30 37 1 37 38
M  V30 38 1 38 39
M  V30 39 1 39 40
M  V30 40 1 40 41
M  V30 41 1 41 42
M  V30 42 2 41 43
M  V30 43 2 41 44
M  V30 44 1 40 45
M  V30 45 1 20 46
M  V30 46 2 46 47
M  V30 47 1 16 6
M  V30 48 1 47 17
M  V30 49 1 14 9
M  V30 50 1 32 27
M  V30 51 1 45 36
M  V30 52 1 1 48
M  V30 53 1 1 49
M  V30 54 1 1 50
M  V30 55 1 2 51
M  V30 56 1 3 52
M  V30 57 1 7 53
M  V30 58 1 10 54
M  V30 59 1 11 55
M  V30 60 1 12 56
M  V30 61 1 13 57
M  V30 62 1 14 58
M  V30 63 1 16 59
M  V30 64 1 18 60
M  V30 65 1 19 61
M  V30 66 1 23 62
M  V30 67 1 24 63 CFG=3
M  V30 68 1 25 64
M  V30 69 1 25 65
M  V30 70 1 26 66
M  V30 71 1 26 67
M  V30 72 1 27 68
M  V30 73 1 28 69
M  V30 74 1 28 70
M  V30 75 1 29 71
M  V30 76 1 29 72
M  V30 77 1 30 73
M  V30 78 1 30 74
M  V30 79 1 31 75
M  V30 80 1 31 76
M  V30 81 1 32 77
M  V30 82 1 32 78
M  V30 83 1 35 79
M  V30 84 1 36 80 CFG=1
M  V30 85 1 37 81
M  V30 86 1 37 82
M  V30 87 1 38 83
M  V30 88 1 38 84
M  V30 89 1 39 85
M  V30 90 1 39 86
M  V30 91 1 42 87
M  V30 92 1 42 88
M  V30 93 1 42 89
M  V30 94 1 45 90
M  V30 95 1 45 91
M  V30 96 1 46 92
M  V30 97 1 47 93
M  V30 END BOND
M  V30 END CTAB
M  END
>  <Dataset>  (576) 
ChEMBL_Kinases

>  <Ligand_Instance>  (576) 
nan

>  <PDB_ID>  (576) 
nan

>  <Standardized_SMILES>  (576) 
CC(NC(=O)c1cc(-c2ccccc2)n[nH]1)c1ccc(C(=O)N[C@@H](CCC2CCCCC2)C(=O)N[C@@H]2CCCN(S(C)(=O)=O)C2)cc1

>  <Name>  (576) 
nan

>  <Pocket>  (576) 
nan

>  <ATP_Site>  (576) 
nan

>  <Peripheral>  (576) 
nan

>  <Num_H_Atoms_ProtBoundConf>  (576) 
nan

>  <Num_Resolved_Atoms>  (576) 
nan

>  <Num_Not_Resolved_Atoms>  (576) 
nan

$$$$
CHEMBL583879
     RDKit          3D

  0  0  0  0  0  0  0  0  0  0999 V3000
M  V30 BEGIN CTAB
M  V30 COUNTS 64 68 0 0 0
M  V30 BEGIN ATOM
M  V30 1 C 2.456766 1.906156 3.508703 0
M  V30 2 C 1.614247 0.718397 3.317659 0
M  V30 3 C 1.589973 0.084860 2.095345 0
M  V30 4 N 2.308219 0.439974 0.937497 0
M  V30 5 C 2.540180 1.500428 0.048986 0
M  V30 6 C 3.764393 2.171505 0.176621 0
M  V30 7 C 4.761923 1.725636 1.117016 0
M  V30 8 N 5.572079 1.344886 1.881606 0
M  V30 9 C 4.155112 3.266698 -0.566691 0
M  V30 10 N 3.232913 3.675175 -1.477638 0
M  V30 11 C 2.061160 3.057386 -1.624843 0
M  V30 12 C 1.659866 1.965496 -0.891542 0
M  V30 13 C 0.400743 1.294355 -1.131852 0
M  V30 14 C -0.523327 1.718447 -1.930112 0
M  V30 15 C -1.826791 1.252307 -2.340679 0
M  V30 16 C -2.599708 2.074548 -3.138673 0
M  V30 17 C -3.827326 1.777197 -3.633313 0
M  V30 18 C -4.383055 0.569972 -3.340347 0
M  V30 19 C -3.671905 -0.295704 -2.553845 0
M  V30 20 C -2.410440 0.060467 -2.070363 0
M  V30 21 O -1.714335 -0.851010 -1.273117 0
M  V30 22 C -2.357162 -2.099682 -1.020418 0
M  V30 23 C -1.524782 -2.988879 -0.164518 0
M  V30 24 N -2.199151 -4.267891 0.076759 0
M  V30 25 C -2.289439 -5.056194 -1.123520 0
M  V30 26 C -0.836576 -5.350651 -1.478368 0
M  V30 27 C -0.141947 -5.441351 -0.135396 0
M  V30 28 C -1.213488 -5.056655 0.834145 0
M  V30 29 C 0.776036 -1.001612 1.979369 0
M  V30 30 C 0.018895 -1.434289 3.046382 0
M  V30 31 C 0.066858 -0.778433 4.255240 0
M  V30 32 N -0.535439 -0.944865 5.463284 0
M  V30 33 C -0.151202 -0.017679 6.357539 0
M  V30 34 C 0.747554 0.794700 5.698649 0
M  V30 35 C 0.875930 0.321082 4.408491 0
M  V30 36 H 3.505246 1.628929 3.723835 0
M  V30 37 H 2.432699 2.614646 2.668844 0
M  V30 38 H 2.142020 2.502031 4.415905 0
M  V30 39 H 2.906952 -0.332777 0.554466 0
M  V30 40 H 5.107762 3.760906 -0.440407 0
M  V30 41 H 1.503046 3.537577 -2.388029 0
M  V30 42 H 0.116191 0.374381 -0.663987 0
M  V30 43 H -0.203651 2.667499 -2.391915 0
M  V30 44 H -2.260045 3.080063 -3.445418 0
M  V30 45 H -4.404476 2.443072 -4.253970 0
M  V30 46 H -5.338675 0.268015 -3.691272 0
M  V30 47 H -4.109110 -1.259615 -2.316085 0
M  V30 48 H -2.549398 -2.537678 -2.025584 0
M  V30 49 H -3.346862 -1.946719 -0.524208 0
M  V30 50 H -0.551559 -3.207757 -0.601133 0
M  V30 51 H -1.466601 -2.535020 0.863241 0
M  V30 52 H -2.840378 -4.531578 -1.898334 0
M  V30 53 H -2.728541 -6.041299 -0.857499 0
M  V30 54 H -0.750588 -6.336500 -1.976118 0
M  V30 55 H -0.396719 -4.580590 -2.123736 0
M  V30 56 H 0.252297 -6.464740 0.039863 0
M  V30 57 H 0.703220 -4.735463 -0.118782 0
M  V30 58 H -0.798875 -4.351836 1.588439 0
M  V30 59 H -1.694841 -5.919557 1.325948 0
M  V30 60 H 0.691652 -1.556097 1.077464 0
M  V30 61 H -0.663689 -2.287412 3.078622 0
M  V30 62 H -1.217408 -1.693981 5.693315 0
M  V30 63 H -0.480366 0.072512 7.383999 0
M  V30 64 H 1.254389 1.648835 6.128197 0
M  V30 END ATOM
M  V30 BEGIN BOND
M  V30 1 1 1 2
M  V30 2 2 2 3
M  V30 3 1 3 4
M  V30 4 1 4 5
M  V30 5 2 5 6
M  V30 6 1 6 7
M  V30 7 3 7 8
M  V30 8 1 6 9
M  V30 9 2 9 10
M  V30 10 1 10 11
M  V30 11 2 11 12
M  V30 12 1 12 13
M  V30 13 2 13 14
M  V30 14 1 14 15
M  V30 15 2 15 16
M  V30 16 1 16 17
M  V30 17 2 17 18
M  V30 18 1 18 19
M  V30 19 2 19 20
M  V30 20 1 20 21
M  V30 21 1 21 22
M  V30 22 1 22 23
M  V30 23 1 23 24
M  V30 24 1 24 25
M  V30 25 1 25 26
M  V30 26 1 26 27
M  V30 27 1 27 28
M  V30 28 1 3 29
M  V30 29 2 29 30
M  V30 30 1 30 31
M  V30 31 1 31 32
M  V30 32 1 32 33
M  V30 33 2 33 34
M  V30 34 1 34 35
M  V30 35 1 35 2
M  V30 36 1 12 5
M  V30 37 1 20 15
M  V30 38 1 28 24
M  V30 39 2 35 31
M  V30 40 1 1 36
M  V30 41 1 1 37
M  V30 42 1 1 38
M  V30 43 1 4 39
M  V30 44 1 9 40
M  V30 45 1 11 41
M  V30 46 1 13 42
M  V30 47 1 14 43
M  V30 48 1 16 44
M  V30 49 1 17 45
M  V30 50 1 18 46
M  V30 51 1 19 47
M  V30 52 1 22 48
M  V30 53 1 22 49
M  V30 54 1 23 50
M  V30 55 1 23 51
M  V30 56 1 25 52
M  V30 57 1 25 53
M  V30 58 1 26 54
M  V30 59 1 26 55
M  V30 60 1 27 56
M  V30 61 1 27 57
M  V30 62 1 28 58
M  V30 63 1 28 59
M  V30 64 1 29 60
M  V30 65 1 30 61
M  V30 66 1 32 62
M  V30 67 1 33 63
M  V30 68 1 34 64
M  V30 END BOND
M  V30 END CTAB
M  END
>  <Dataset>  (577) 
ChEMBL_Kinases

>  <Ligand_Instance>  (577) 
nan

>  <PDB_ID>  (577) 
nan

>  <Standardized_SMILES>  (577) 
Cc1c(Nc2c(C#N)cncc2/C=C/c2ccccc2OCCN2CCCC2)ccc2[nH]ccc12

>  <Name>  (577) 
nan

>  <Pocket>  (577) 
nan

>  <ATP_Site>  (577) 
nan

>  <Peripheral>  (577) 
nan

>  <Num_H_Atoms_ProtBoundConf>  (577) 
nan

>  <Num_Resolved_Atoms>  (577) 
nan

>  <Num_Not_Resolved_Atoms>  (577) 
nan

$$$$
CHEMBL5090765
     RDKit          3D

  0  0  0  0  0  0  0  0  0  0999 V3000
M  V30 BEGIN CTAB
M  V30 COUNTS 59 64 0 0 0
M  V30 BEGIN ATOM
M  V30 1 N 3.177610 -4.656560 2.034697 0
M  V30 2 C 2.291633 -3.971243 1.776555 0
M  V30 3 C 1.165762 -3.111359 1.428613 0
M  V30 4 N 1.542209 -1.784361 1.103382 0
M  V30 5 C 2.034263 -1.087195 2.231649 0
M  V30 6 C 2.550035 0.279330 2.022724 0
M  V30 7 C 3.004025 0.614793 0.636725 0
M  V30 8 N 3.014918 2.000747 0.266332 0
M  V30 9 C 4.145206 2.785966 0.167466 0
M  V30 10 N 3.904048 4.068606 -0.199157 0
M  V30 11 C 2.575194 4.163962 -0.355130 0
M  V30 12 C 1.815359 5.240347 -0.716422 0
M  V30 13 N 0.480146 5.097877 -0.808251 0
M  V30 14 C -0.053973 3.876072 -0.534056 0
M  V30 15 C -1.420375 3.801781 -0.646841 0
M  V30 16 C -1.998653 2.579272 -0.376967 0
M  V30 17 F -3.350174 2.520664 -0.494360 0
M  V30 18 C -1.242354 1.458731 -0.004611 0
M  V30 19 C -2.036980 0.258313 0.237857 0
M  V30 20 C -2.620383 -0.206317 1.382108 0
M  V30 21 C -3.334348 -1.374924 1.383967 0
M  V30 22 C -3.466893 -2.094959 0.212076 0
M  V30 23 O -4.191661 -3.285435 0.204641 0
M  V30 24 C -3.561577 -4.505825 0.458117 0
M  V30 25 C -4.407367 -5.619533 0.418469 0
M  V30 26 C -3.745395 -6.823734 0.675684 0
M  V30 27 C -2.410534 -6.938300 0.942570 0
M  V30 28 C -1.659877 -5.779372 0.959164 0
M  V30 29 N -2.245264 -4.597389 0.718748 0
M  V30 30 C -2.900139 -1.670591 -0.962644 0
M  V30 31 C -2.175346 -0.475945 -0.945536 0
M  V30 32 Cl -1.492947 -0.031315 -2.516595 0
M  V30 33 C 0.125873 1.628357 0.083239 0
M  V30 34 C 0.731914 2.825536 -0.177301 0
M  V30 35 C 2.085712 2.886316 -0.061655 0
M  V30 36 C 2.810247 -0.370071 -0.467935 0
M  V30 37 C 2.284603 -1.695836 -0.095444 0
M  V30 38 H 0.578027 -3.567664 0.604566 0
M  V30 39 H 0.460582 -3.053504 2.300341 0
M  V30 40 H 1.214038 -1.037415 2.979989 0
M  V30 41 H 2.783687 -1.780826 2.717249 0
M  V30 42 H 1.805229 1.066197 2.356577 0
M  V30 43 H 3.313150 0.411982 2.823915 0
M  V30 44 H 4.137529 0.433012 0.805504 0
M  V30 45 H 5.188277 2.529680 0.338384 0
M  V30 46 H 2.288164 6.192167 -0.924522 0
M  V30 47 H -2.014384 4.654762 -0.932695 0
M  V30 48 H -2.440645 0.452041 2.231720 0
M  V30 49 H -3.769090 -1.685923 2.318706 0
M  V30 50 H -5.463210 -5.560181 0.211443 0
M  V30 51 H -4.368218 -7.713856 0.653326 0
M  V30 52 H -1.979134 -7.912084 1.131077 0
M  V30 53 H -0.599199 -5.862827 1.169263 0
M  V30 54 H -3.034191 -2.270955 -1.847286 0
M  V30 55 H 0.519043 0.706875 0.366390 0
M  V30 56 H 3.717696 -0.599147 -1.075596 0
M  V30 57 H 2.185289 0.139529 -1.263648 0
M  V30 58 H 1.636125 -2.071720 -0.919120 0
M  V30 59 H 3.085588 -2.491484 -0.017913 0
M  V30 END ATOM
M  V30 BEGIN BOND
M  V30 1 3 1 2
M  V30 2 1 2 3
M  V30 3 1 3 4
M  V30 4 1 4 5
M  V30 5 1 5 6
M  V30 6 1 6 7
M  V30 7 1 7 8
M  V30 8 1 8 9
M  V30 9 2 9 10
M  V30 10 1 10 11
M  V30 11 2 11 12
M  V30 12 1 12 13
M  V30 13 2 13 14
M  V30 14 1 14 15
M  V30 15 2 15 16
M  V30 16 1 16 17
M  V30 17 1 16 18
M  V30 18 1 18 19
M  V30 19 2 19 20
M  V30 20 1 20 21
M  V30 21 2 21 22
M  V30 22 1 22 23
M  V30 23 1 23 24
M  V30 24 2 24 25
M  V30 25 1 25 26
M  V30 26 2 26 27
M  V30 27 1 27 28
M  V30 28 2 28 29
M  V30 29 1 22 30
M  V30 30 2 30 31
M  V30 31 1 31 32
M  V30 32 2 18 33
M  V30 33 1 33 34
M  V30 34 2 34 35
M  V30 35 1 7 36
M  V30 36 1 36 37
M  V30 37 1 37 4
M  V30 38 1 35 8
M  V30 39 1 35 11
M  V30 40 1 34 14
M  V30 41 1 31 19
M  V30 42 1 29 24
M  V30 43 1 3 38
M  V30 44 1 3 39
M  V30 45 1 5 40
M  V30 46 1 5 41
M  V30 47 1 6 42
M  V30 48 1 6 43
M  V30 49 1 7 44
M  V30 50 1 9 45
M  V30 51 1 12 46
M  V30 52 1 15 47
M  V30 53 1 20 48
M  V30 54 1 21 49
M  V30 55 1 25 50
M  V30 56 1 26 51
M  V30 57 1 27 52
M  V30 58 1 28 53
M  V30 59 1 30 54
M  V30 60 1 33 55
M  V30 61 1 36 56
M  V30 62 1 36 57
M  V30 63 1 37 58
M  V30 64 1 37 59
M  V30 END BOND
M  V30 END CTAB
M  END
>  <Dataset>  (578) 
ChEMBL_Kinases

>  <Ligand_Instance>  (578) 
nan

>  <PDB_ID>  (578) 
nan

>  <Standardized_SMILES>  (578) 
N#CCN1CCC(n2cnc3cnc4cc(F)c(-c5ccc(Oc6ccccn6)cc5Cl)cc4c32)CC1

>  <Name>  (578) 
nan

>  <Pocket>  (578) 
nan

>  <ATP_Site>  (578) 
nan

>  <Peripheral>  (578) 
nan

>  <Num_H_Atoms_ProtBoundConf>  (578) 
nan

>  <Num_Resolved_Atoms>  (578) 
nan

>  <Num_Not_Resolved_Atoms>  (578) 
nan

$$$$
CHEMBL583788
     RDKit          3D

  0  0  0  0  0  0  0  0  0  0999 V3000
M  V30 BEGIN CTAB
M  V30 COUNTS 31 34 0 0 0
M  V30 BEGIN ATOM
M  V30 1 O -1.555178 -5.471364 2.325147 0
M  V30 2 C -1.694308 -4.456195 1.554967 0
M  V30 3 C -0.699584 -3.413790 1.718032 0
M  V30 4 C 0.349416 -3.470964 2.636753 0
M  V30 5 N 1.080374 -2.353068 2.530248 0
M  V30 6 C 0.599418 -1.537322 1.599803 0
M  V30 7 C -0.502758 -2.198227 1.099490 0
M  V30 8 C -1.192767 -1.568264 0.112887 0
M  V30 9 C -0.827297 -0.341123 -0.371505 0
M  V30 10 C 0.272919 0.322893 0.125187 0
M  V30 11 C 0.864158 1.531593 -0.157465 0
M  V30 12 C 0.523565 2.516618 -1.079308 0
M  V30 13 C 1.329556 3.646220 -1.130360 0
M  V30 14 C 2.419549 3.769462 -0.293391 0
M  V30 15 C 2.728261 2.769851 0.611054 0
M  V30 16 C 1.958994 1.634961 0.696396 0
M  V30 17 N 2.017243 0.527908 1.459569 0
M  V30 18 C 0.986680 -0.300421 1.127444 0
M  V30 19 C -2.858833 -4.597547 0.669519 0
M  V30 20 F -2.543197 -4.572725 -0.680830 0
M  V30 21 F -3.788793 -3.573875 0.891850 0
M  V30 22 F -3.518487 -5.799864 0.930438 0
M  V30 23 H 0.596278 -4.265292 3.356584 0
M  V30 24 H 1.923777 -2.147463 3.106669 0
M  V30 25 H -2.052265 -2.025591 -0.315030 0
M  V30 26 H -1.403193 0.141690 -1.167224 0
M  V30 27 H -0.325692 2.418041 -1.729776 0
M  V30 28 H 1.128778 4.464684 -1.827190 0
M  V30 29 H 3.030861 4.659496 -0.353590 0
M  V30 30 H 3.570618 2.844584 1.271106 0
M  V30 31 H 2.736547 0.320782 2.197990 0
M  V30 END ATOM
M  V30 BEGIN BOND
M  V30 1 2 1 2
M  V30 2 1 2 3
M  V30 3 2 3 4
M  V30 4 1 4 5
M  V30 5 1 5 6
M  V30 6 2 6 7
M  V30 7 1 7 8
M  V30 8 2 8 9
M  V30 9 1 9 10
M  V30 10 1 10 11
M  V30 11 2 11 12
M  V30 12 1 12 13
M  V30 13 2 13 14
M  V30 14 1 14 15
M  V30 15 2 15 16
M  V30 16 1 16 17
M  V30 17 1 17 18
M  V30 18 1 2 19
M  V30 19 1 19 20
M  V30 20 1 19 21
M  V30 21 1 19 22
M  V30 22 1 7 3
M  V30 23 2 18 10
M  V30 24 1 18 6
M  V30 25 1 16 11
M  V30 26 1 4 23
M  V30 27 1 5 24
M  V30 28 1 8 25
M  V30 29 1 9 26
M  V30 30 1 12 27
M  V30 31 1 13 28
M  V30 32 1 14 29
M  V30 33 1 15 30
M  V30 34 1 17 31
M  V30 END BOND
M  V30 END CTAB
M  END
>  <Dataset>  (579) 
ChEMBL_Kinases

>  <Ligand_Instance>  (579) 
nan

>  <PDB_ID>  (579) 
nan

>  <Standardized_SMILES>  (579) 
O=C(c1c[nH]c2c1ccc1c3ccccc3[nH]c12)C(F)(F)F

>  <Name>  (579) 
nan

>  <Pocket>  (579) 
nan

>  <ATP_Site>  (579) 
nan

>  <Peripheral>  (579) 
nan

>  <Num_H_Atoms_ProtBoundConf>  (579) 
nan

>  <Num_Resolved_Atoms>  (579) 
nan

>  <Num_Not_Resolved_Atoms>  (579) 
nan

$$$$
CHEMBL5090953
     RDKit          3D

  0  0  0  0  0  0  0  0  0  0999 V3000
M  V30 BEGIN CTAB
M  V30 COUNTS 36 38 0 0 0
M  V30 BEGIN ATOM
M  V30 1 C -1.426433 -1.989366 1.655892 0
M  V30 2 C -0.504473 -2.666836 0.663835 0 CFG=2
M  V30 3 C -0.076545 -4.037759 1.117322 0
M  V30 4 C 1.360639 -4.118593 0.735385 0
M  V30 5 C 1.863033 -2.707760 0.900481 0
M  V30 6 N 0.736020 -1.870721 0.642378 0
M  V30 7 C 0.536770 -0.482846 0.386375 0
M  V30 8 C -0.165391 0.107399 -0.650576 0
M  V30 9 C -0.843765 -0.583212 -1.711221 0
M  V30 10 N -1.382980 -1.121437 -2.563627 0
M  V30 11 C -0.099169 1.496280 -0.488607 0
M  V30 12 C -0.654011 2.475760 -1.280604 0
M  V30 13 N -1.410619 2.148641 -2.439116 0
M  V30 14 N -0.430156 3.744067 -0.880202 0
M  V30 15 C 0.291881 4.020129 0.224401 0
M  V30 16 C 0.852855 3.024328 1.024516 0
M  V30 17 C 0.648038 1.690922 0.651152 0
M  V30 18 N 1.027198 0.496567 1.172629 0
M  V30 19 C 1.810947 0.317534 2.356586 0
M  V30 20 H -2.180204 -1.373886 1.112994 0
M  V30 21 H -0.862238 -1.281720 2.328266 0
M  V30 22 H -1.959894 -2.684214 2.323208 0
M  V30 23 H -0.978264 -2.734409 -0.313523 0
M  V30 24 H -0.178993 -4.062482 2.221240 0
M  V30 25 H -0.705638 -4.838655 0.634084 0
M  V30 26 H 1.458519 -4.383246 -0.352313 0
M  V30 27 H 1.924266 -4.841320 1.366575 0
M  V30 28 H 2.742450 -2.501527 0.246352 0
M  V30 29 H 2.166665 -2.629586 1.986088 0
M  V30 30 H -0.898324 1.982605 -3.356391 0
M  V30 31 H -2.452528 2.063156 -2.437438 0
M  V30 32 H 0.437614 5.071004 0.492649 0
M  V30 33 H 1.428515 3.246605 1.902289 0
M  V30 34 H 1.232066 -0.105037 3.204519 0
M  V30 35 H 2.198181 1.308378 2.713497 0
M  V30 36 H 2.707636 -0.305634 2.205889 0
M  V30 END ATOM
M  V30 BEGIN BOND
M  V30 1 1 1 2
M  V30 2 1 2 3
M  V30 3 1 3 4
M  V30 4 1 4 5
M  V30 5 1 5 6
M  V30 6 1 6 7
M  V30 7 2 7 8
M  V30 8 1 8 9
M  V30 9 3 9 10
M  V30 10 1 8 11
M  V30 11 2 11 12
M  V30 12 1 12 13
M  V30 13 1 12 14
M  V30 14 2 14 15
M  V30 15 1 15 16
M  V30 16 2 16 17
M  V30 17 1 17 18
M  V30 18 1 18 19
M  V30 19 1 6 2
M  V30 20 1 18 7
M  V30 21 1 17 11
M  V30 22 1 1 20
M  V30 23 1 1 21
M  V30 24 1 1 22
M  V30 25 1 2 23 CFG=3
M  V30 26 1 3 24
M  V30 27 1 3 25
M  V30 28 1 4 26
M  V30 29 1 4 27
M  V30 30 1 5 28
M  V30 31 1 5 29
M  V30 32 1 13 30
M  V30 33 1 13 31
M  V30 34 1 15 32
M  V30 35 1 16 33
M  V30 36 1 19 34
M  V30 37 1 19 35
M  V30 38 1 19 36
M  V30 END BOND
M  V30 END CTAB
M  END
>  <Dataset>  (580) 
ChEMBL_Kinases

>  <Ligand_Instance>  (580) 
nan

>  <PDB_ID>  (580) 
nan

>  <Standardized_SMILES>  (580) 
C[C@@H]1CCCN1c1c(C#N)c2c(N)nccc2n1C

>  <Name>  (580) 
nan

>  <Pocket>  (580) 
nan

>  <ATP_Site>  (580) 
nan

>  <Peripheral>  (580) 
nan

>  <Num_H_Atoms_ProtBoundConf>  (580) 
nan

>  <Num_Resolved_Atoms>  (580) 
nan

>  <Num_Not_Resolved_Atoms>  (580) 
nan

$$$$
CHEMBL5090400
     RDKit          3D

  0  0  0  0  0  0  0  0  0  0999 V3000
M  V30 BEGIN CTAB
M  V30 COUNTS 30 32 0 0 0
M  V30 BEGIN ATOM
M  V30 1 C -0.998703 -1.165520 3.576667 0
M  V30 2 O -0.494036 -0.797587 2.317316 0
M  V30 3 C 0.076621 -1.671214 1.434986 0
M  V30 4 N 0.176012 -2.981199 1.769960 0
M  V30 5 C 0.748799 -3.846046 0.882147 0
M  V30 6 C 0.840516 -5.281105 1.286580 0
M  V30 7 N 1.233209 -3.482301 -0.330252 0
M  V30 8 C 1.147858 -2.184211 -0.691065 0
M  V30 9 N 1.505313 -1.464995 -1.767224 0
M  V30 10 C 1.166682 -0.178825 -1.565148 0
M  V30 11 C 0.561398 -0.031953 -0.310412 0
M  V30 12 C 0.097255 1.282772 0.110833 0
M  V30 13 C 1.030576 2.320292 -0.002781 0
M  V30 14 C 0.793317 3.634000 0.330469 0
M  V30 15 N -0.442223 3.921096 0.801277 0
M  V30 16 C -1.384270 2.970554 0.934421 0
M  V30 17 F -2.638077 3.234187 1.406858 0
M  V30 18 C -1.136063 1.657019 0.597332 0
M  V30 19 C 0.569518 -1.307918 0.203353 0
M  V30 20 H -1.548545 -2.126175 3.515985 0
M  V30 21 H -0.144430 -1.276975 4.285934 0
M  V30 22 H -1.671035 -0.391496 3.984506 0
M  V30 23 H 0.797323 -5.953672 0.427069 0
M  V30 24 H 1.812530 -5.435581 1.837289 0
M  V30 25 H 0.013316 -5.548913 1.972925 0
M  V30 26 H 1.971821 -1.867921 -2.614348 0
M  V30 27 H 1.373266 0.578322 -2.328542 0
M  V30 28 H 2.039735 2.115418 -0.381627 0
M  V30 29 H 1.555447 4.387484 0.219611 0
M  V30 30 H -1.850255 0.875322 0.678785 0
M  V30 END ATOM
M  V30 BEGIN BOND
M  V30 1 1 1 2
M  V30 2 1 2 3
M  V30 3 2 3 4
M  V30 4 1 4 5
M  V30 5 1 5 6
M  V30 6 2 5 7
M  V30 7 1 7 8
M  V30 8 1 8 9
M  V30 9 1 9 10
M  V30 10 2 10 11
M  V30 11 1 11 12
M  V30 12 2 12 13
M  V30 13 1 13 14
M  V30 14 2 14 15
M  V30 15 1 15 16
M  V30 16 1 16 17
M  V30 17 2 16 18
M  V30 18 1 11 19
M  V30 19 1 19 3
M  V30 20 2 19 8
M  V30 21 1 18 12
M  V30 22 1 1 20
M  V30 23 1 1 21
M  V30 24 1 1 22
M  V30 25 1 6 23
M  V30 26 1 6 24
M  V30 27 1 6 25
M  V30 28 1 9 26
M  V30 29 1 10 27
M  V30 30 1 13 28
M  V30 31 1 14 29
M  V30 32 1 18 30
M  V30 END BOND
M  V30 END CTAB
M  END
>  <Dataset>  (581) 
ChEMBL_Kinases

>  <Ligand_Instance>  (581) 
nan

>  <PDB_ID>  (581) 
nan

>  <Standardized_SMILES>  (581) 
COc1nc(C)nc2[nH]cc(-c3ccnc(F)c3)c12

>  <Name>  (581) 
nan

>  <Pocket>  (581) 
nan

>  <ATP_Site>  (581) 
nan

>  <Peripheral>  (581) 
nan

>  <Num_H_Atoms_ProtBoundConf>  (581) 
nan

>  <Num_Resolved_Atoms>  (581) 
nan

>  <Num_Not_Resolved_Atoms>  (581) 
nan

$$$$
CHEMBL4749216
     RDKit          3D

  0  0  0  0  0  0  0  0  0  0999 V3000
M  V30 BEGIN CTAB
M  V30 COUNTS 46 49 0 0 0
M  V30 BEGIN ATOM
M  V30 1 O -2.376276 -0.164420 3.864505 0
M  V30 2 C -2.310742 -1.380086 3.545007 0
M  V30 3 N -1.396239 -1.864621 2.605363 0
M  V30 4 C -0.429064 -0.982314 1.909626 0
M  V30 5 N -0.548652 -0.384867 0.880230 0
M  V30 6 C 0.376322 0.385649 0.329421 0
M  V30 7 C 0.068129 1.042540 -0.937549 0
M  V30 8 C -0.487299 0.340035 -2.018184 0
M  V30 9 C -0.825775 0.861343 -3.230708 0
M  V30 10 N -0.617053 2.156587 -3.426427 0
M  V30 11 C -0.089531 2.919740 -2.455906 0
M  V30 12 C 0.243448 2.370785 -1.241536 0
M  V30 13 C 1.562128 0.523973 0.963043 0
M  V30 14 C 2.831304 1.203695 0.763957 0
M  V30 15 N 3.723932 0.616739 -0.160300 0
M  V30 16 C 4.129979 -0.730991 0.109960 0
M  V30 17 C 3.311313 -1.747315 -0.649344 0
M  V30 18 O 2.583436 -1.110221 -1.666028 0
M  V30 19 C 3.336925 -0.211044 -2.372416 0
M  V30 20 C 3.666565 0.997889 -1.514750 0
M  V30 21 S 1.250430 -0.546041 2.429520 0
M  V30 22 C -3.247473 -2.278612 4.209599 0
M  V30 23 C -4.143860 -1.756205 5.134381 0
M  V30 24 C -5.007429 -2.654350 5.732725 0
M  V30 25 C -5.066470 -4.015406 5.502367 0
M  V30 26 N -4.166243 -4.475455 4.587175 0
M  V30 27 C -3.304315 -3.637063 3.977808 0
M  V30 28 H -1.313388 -2.841432 2.320751 0
M  V30 29 H -0.672277 -0.734400 -1.887832 0
M  V30 30 H -1.250043 0.235653 -4.004001 0
M  V30 31 H 0.076828 3.987465 -2.632369 0
M  V30 32 H 0.659012 3.009881 -0.481368 0
M  V30 33 H 3.371968 1.229625 1.761336 0
M  V30 34 H 2.648224 2.247551 0.532865 0
M  V30 35 H 4.110310 -0.904526 1.186814 0
M  V30 36 H 5.179750 -0.823329 -0.232850 0
M  V30 37 H 3.990972 -2.501908 -1.085417 0
M  V30 38 H 2.573125 -2.278405 -0.036210 0
M  V30 39 H 4.274354 -0.717581 -2.684064 0
M  V30 40 H 2.775331 0.057511 -3.289766 0
M  V30 41 H 3.011628 1.826890 -1.764016 0
M  V30 42 H 4.695553 1.330871 -1.838485 0
M  V30 43 H -4.193469 -0.701328 5.399739 0
M  V30 44 H -5.705231 -2.246401 6.452839 0
M  V30 45 H -5.788501 -4.621807 6.032809 0
M  V30 46 H -2.623341 -4.080764 3.265589 0
M  V30 END ATOM
M  V30 BEGIN BOND
M  V30 1 2 1 2
M  V30 2 1 2 3
M  V30 3 1 3 4
M  V30 4 2 4 5
M  V30 5 1 5 6
M  V30 6 1 6 7
M  V30 7 2 7 8
M  V30 8 1 8 9
M  V30 9 2 9 10
M  V30 10 1 10 11
M  V30 11 2 11 12
M  V30 12 2 6 13
M  V30 13 1 13 14
M  V30 14 1 14 15
M  V30 15 1 15 16
M  V30 16 1 16 17
M  V30 17 1 17 18
M  V30 18 1 18 19
M  V30 19 1 19 20
M  V30 20 1 13 21
M  V30 21 1 2 22
M  V30 22 2 22 23
M  V30 23 1 23 24
M  V30 24 2 24 25
M  V30 25 1 25 26
M  V30 26 2 26 27
M  V30 27 1 21 4
M  V30 28 1 27 22
M  V30 29 1 12 7
M  V30 30 1 20 15
M  V30 31 1 3 28
M  V30 32 1 8 29
M  V30 33 1 9 30
M  V30 34 1 11 31
M  V30 35 1 12 32
M  V30 36 1 14 33
M  V30 37 1 14 34
M  V30 38 1 16 35
M  V30 39 1 16 36
M  V30 40 1 17 37
M  V30 41 1 17 38
M  V30 42 1 19 39
M  V30 43 1 19 40
M  V30 44 1 20 41
M  V30 45 1 20 42
M  V30 46 1 23 43
M  V30 47 1 24 44
M  V30 48 1 25 45
M  V30 49 1 27 46
M  V30 END BOND
M  V30 END CTAB
M  END
>  <Dataset>  (582) 
ChEMBL_Kinases

>  <Ligand_Instance>  (582) 
nan

>  <PDB_ID>  (582) 
nan

>  <Standardized_SMILES>  (582) 
O=C(Nc1nc(-c2ccncc2)c(CN2CCOCC2)s1)c1cccnc1

>  <Name>  (582) 
nan

>  <Pocket>  (582) 
nan

>  <ATP_Site>  (582) 
nan

>  <Peripheral>  (582) 
nan

>  <Num_H_Atoms_ProtBoundConf>  (582) 
nan

>  <Num_Resolved_Atoms>  (582) 
nan

>  <Num_Not_Resolved_Atoms>  (582) 
nan

$$$$
CHEMBL4450447
     RDKit          3D

  0  0  0  0  0  0  0  0  0  0999 V3000
M  V30 BEGIN CTAB
M  V30 COUNTS 39 42 0 0 0
M  V30 BEGIN ATOM
M  V30 1 C 1.315858 -3.859079 2.003617 0
M  V30 2 C 1.825757 -2.422385 2.076616 0
M  V30 3 C 1.165628 -1.696155 3.235972 0
M  V30 4 N -0.263980 -1.699000 3.011987 0
M  V30 5 C -0.836306 -1.011462 1.918782 0
M  V30 6 N -0.056159 -0.318817 1.073384 0
M  V30 7 C -0.534200 0.365956 0.021412 0
M  V30 8 C 0.292024 1.131936 -0.905291 0
M  V30 9 C -0.133436 1.831795 -2.021435 0
M  V30 10 N 0.921877 2.412346 -2.618922 0
M  V30 11 C 2.057399 2.135765 -1.952038 0
M  V30 12 N 3.341637 2.484711 -2.157138 0
M  V30 13 C 4.291990 2.052870 -1.304884 0
M  V30 14 C 3.978873 1.256982 -0.220568 0
M  V30 15 C 2.650488 0.923594 -0.048593 0
M  V30 16 C 1.654997 1.344445 -0.895866 0
M  V30 17 N -1.868287 0.351662 -0.189593 0
M  V30 18 C -2.730540 -0.299834 0.583398 0
M  V30 19 C -4.088902 -0.317071 0.372470 0
M  V30 20 N -4.916724 -1.005813 1.204110 0
M  V30 21 C -4.428305 -1.693257 2.261941 0
M  V30 22 C -3.065307 -1.669812 2.464881 0
M  V30 23 C -2.188646 -0.986000 1.648698 0
M  V30 24 H 0.751896 -4.048720 1.055275 0
M  V30 25 H 2.145746 -4.594978 2.039020 0
M  V30 26 H 0.585096 -4.071884 2.827925 0
M  V30 27 H 1.654297 -1.936220 1.102186 0
M  V30 28 H 2.921199 -2.453642 2.285673 0
M  V30 29 H 1.559741 -0.638190 3.255626 0
M  V30 30 H 1.470448 -2.180528 4.182247 0
M  V30 31 H -0.789051 -2.239245 3.715418 0
M  V30 32 H -1.147989 1.914176 -2.377711 0
M  V30 33 H 0.862991 3.001224 -3.488466 0
M  V30 34 H 5.350637 2.295258 -1.408179 0
M  V30 35 H 4.734588 0.906897 0.467006 0
M  V30 36 H 2.405478 0.304306 0.799203 0
M  V30 37 H -4.448434 0.245104 -0.485699 0
M  V30 38 H -5.123270 -2.225399 2.894896 0
M  V30 39 H -2.732146 -2.232342 3.318754 0
M  V30 END ATOM
M  V30 BEGIN BOND
M  V30 1 1 1 2
M  V30 2 1 2 3
M  V30 3 1 3 4
M  V30 4 1 4 5
M  V30 5 2 5 6
M  V30 6 1 6 7
M  V30 7 1 7 8
M  V30 8 2 8 9
M  V30 9 1 9 10
M  V30 10 1 10 11
M  V30 11 2 11 12
M  V30 12 1 12 13
M  V30 13 2 13 14
M  V30 14 1 14 15
M  V30 15 2 15 16
M  V30 16 2 7 17
M  V30 17 1 17 18
M  V30 18 2 18 19
M  V30 19 1 19 20
M  V30 20 2 20 21
M  V30 21 1 21 22
M  V30 22 2 22 23
M  V30 23 1 23 5
M  V30 24 1 16 8
M  V30 25 1 23 18
M  V30 26 1 16 11
M  V30 27 1 1 24
M  V30 28 1 1 25
M  V30 29 1 1 26
M  V30 30 1 2 27
M  V30 31 1 2 28
M  V30 32 1 3 29
M  V30 33 1 3 30
M  V30 34 1 4 31
M  V30 35 1 9 32
M  V30 36 1 10 33
M  V30 37 1 13 34
M  V30 38 1 14 35
M  V30 39 1 15 36
M  V30 40 1 19 37
M  V30 41 1 21 38
M  V30 42 1 22 39
M  V30 END BOND
M  V30 END CTAB
M  END
>  <Dataset>  (583) 
ChEMBL_Kinases

>  <Ligand_Instance>  (583) 
nan

>  <PDB_ID>  (583) 
nan

>  <Standardized_SMILES>  (583) 
CCCNc1nc(-c2c[nH]c3ncccc23)nc2cnccc12

>  <Name>  (583) 
nan

>  <Pocket>  (583) 
nan

>  <ATP_Site>  (583) 
nan

>  <Peripheral>  (583) 
nan

>  <Num_H_Atoms_ProtBoundConf>  (583) 
nan

>  <Num_Resolved_Atoms>  (583) 
nan

>  <Num_Not_Resolved_Atoms>  (583) 
nan

$$$$
CHEMBL4450446
     RDKit          3D

  0  0  0  0  0  0  0  0  0  0999 V3000
M  V30 BEGIN CTAB
M  V30 COUNTS 51 55 0 0 0
M  V30 BEGIN ATOM
M  V30 1 C 1.523854 -5.378295 0.870156 0
M  V30 2 O 1.938403 -4.050447 0.775001 0
M  V30 3 C 1.939345 -3.214197 1.867540 0
M  V30 4 C 1.581922 -3.420704 3.180763 0
M  V30 5 C 1.649750 -2.449998 4.154214 0
M  V30 6 F 1.268868 -2.786722 5.400131 0
M  V30 7 C 2.093283 -1.179775 3.855629 0
M  V30 8 C 2.461941 -0.930642 2.547785 0
M  V30 9 C 2.387088 -1.915973 1.585746 0
M  V30 10 N 2.795751 -1.538162 0.273989 0
M  V30 11 C 3.242967 -0.210242 0.034016 0
M  V30 12 N 4.545041 0.026813 0.212981 0
M  V30 13 C 5.166425 1.179783 0.047573 0
M  V30 14 N 4.423029 2.223074 -0.338921 0
M  V30 15 C 3.082947 2.037296 -0.537196 0
M  V30 16 S 1.768976 3.175130 -1.050517 0
M  V30 17 C 0.465137 1.991935 -1.001989 0
M  V30 18 C 1.081885 0.803972 -0.603255 0
M  V30 19 C 2.421669 0.818726 -0.363252 0
M  V30 20 C 0.076303 -0.288320 -0.524607 0
M  V30 21 C -0.725035 -0.178585 -1.814901 0
M  V30 22 N -1.557735 0.957774 -1.866135 0
M  V30 23 S -3.199589 0.791257 -1.522973 0
M  V30 24 O -3.844462 2.153260 -1.767426 0
M  V30 25 O -3.904680 -0.118454 -2.526542 0
M  V30 26 C -3.629105 0.247738 0.049283 0
M  V30 27 C -4.358323 1.095652 0.900155 0
M  V30 28 C -4.778444 0.836160 2.186780 0
M  V30 29 C -4.439045 -0.400091 2.686703 0
M  V30 30 F -4.809127 -0.743398 3.942692 0
M  V30 31 C -3.725380 -1.315025 1.943672 0
M  V30 32 C -3.359608 -0.945464 0.670138 0
M  V30 33 F -2.671464 -1.853140 -0.056796 0
M  V30 34 C -0.961948 2.149979 -1.299389 0
M  V30 35 H 1.333674 -5.729478 1.897042 0
M  V30 36 H 0.640620 -5.567700 0.201253 0
M  V30 37 H 2.303710 -6.096143 0.476335 0
M  V30 38 H 1.236512 -4.419703 3.396901 0
M  V30 39 H 2.150423 -0.417004 4.605271 0
M  V30 40 H 2.803256 0.070378 2.348058 0
M  V30 41 H 2.840651 -2.060786 -0.606718 0
M  V30 42 H 6.207841 1.365515 0.191642 0
M  V30 43 H -0.594530 -0.191577 0.323256 0
M  V30 44 H 0.542245 -1.297901 -0.557369 0
M  V30 45 H -1.230456 -1.086412 -2.119119 0
M  V30 46 H 0.073067 -0.019242 -2.615323 0
M  V30 47 H -4.638246 2.087896 0.517078 0
M  V30 48 H -5.328114 1.552422 2.746322 0
M  V30 49 H -3.459048 -2.279797 2.330377 0
M  V30 50 H -1.501281 2.366730 -0.354204 0
M  V30 51 H -1.083260 3.025179 -1.967191 0
M  V30 END ATOM
M  V30 BEGIN BOND
M  V30 1 1 1 2
M  V30 2 1 2 3
M  V30 3 2 3 4
M  V30 4 1 4 5
M  V30 5 1 5 6
M  V30 6 2 5 7
M  V30 7 1 7 8
M  V30 8 2 8 9
M  V30 9 1 9 10
M  V30 10 1 10 11
M  V30 11 2 11 12
M  V30 12 1 12 13
M  V30 13 2 13 14
M  V30 14 1 14 15
M  V30 15 1 15 16
M  V30 16 1 16 17
M  V30 17 2 17 18
M  V30 18 1 18 19
M  V30 19 1 18 20
M  V30 20 1 20 21
M  V30 21 1 21 22
M  V30 22 1 22 23
M  V30 23 2 23 24
M  V30 24 2 23 25
M  V30 25 1 23 26
M  V30 26 2 26 27
M  V30 27 1 27 28
M  V30 28 2 28 29
M  V30 29 1 29 30
M  V30 30 1 29 31
M  V30 31 2 31 32
M  V30 32 1 32 33
M  V30 33 1 22 34
M  V30 34 1 9 3
M  V30 35 1 19 11
M  V30 36 1 32 26
M  V30 37 2 19 15
M  V30 38 1 34 17
M  V30 39 1 1 35
M  V30 40 1 1 36
M  V30 41 1 1 37
M  V30 42 1 4 38
M  V30 43 1 7 39
M  V30 44 1 8 40
M  V30 45 1 10 41
M  V30 46 1 13 42
M  V30 47 1 20 43
M  V30 48 1 20 44
M  V30 49 1 21 45
M  V30 50 1 21 46
M  V30 51 1 27 47
M  V30 52 1 28 48
M  V30 53 1 31 49
M  V30 54 1 34 50
M  V30 55 1 34 51
M  V30 END BOND
M  V30 END CTAB
M  END
>  <Dataset>  (584) 
ChEMBL_Kinases

>  <Ligand_Instance>  (584) 
nan

>  <PDB_ID>  (584) 
nan

>  <Standardized_SMILES>  (584) 
COc1cc(F)ccc1Nc1ncnc2sc3c(c12)CCN(S(=O)(=O)c1ccc(F)cc1F)C3

>  <Name>  (584) 
nan

>  <Pocket>  (584) 
nan

>  <ATP_Site>  (584) 
nan

>  <Peripheral>  (584) 
nan

>  <Num_H_Atoms_ProtBoundConf>  (584) 
nan

>  <Num_Resolved_Atoms>  (584) 
nan

>  <Num_Not_Resolved_Atoms>  (584) 
nan

$$$$
CHEMBL4450439
     RDKit          3D

  0  0  0  0  0  0  0  0  0  0999 V3000
M  V30 BEGIN CTAB
M  V30 COUNTS 36 39 0 0 0
M  V30 BEGIN ATOM
M  V30 1 C -0.173499 -3.013643 1.979646 0
M  V30 2 C -0.799270 -1.797576 2.640845 0
M  V30 3 N -1.575742 -0.942482 1.781255 0
M  V30 4 C -0.948963 -0.327111 0.664218 0
M  V30 5 N 0.356874 -0.591551 0.482230 0
M  V30 6 C 0.993998 -0.026885 -0.568857 0
M  V30 7 C 2.411479 -0.305817 -0.777684 0
M  V30 8 C 3.098006 -1.135459 0.084743 0
M  V30 9 C 4.455313 -1.400292 -0.118362 0
M  V30 10 N 5.111531 -0.851311 -1.155814 0
M  V30 11 C 4.485396 -0.035802 -2.024019 0
M  V30 12 C 3.146704 0.222031 -1.819028 0
M  V30 13 N 0.383932 0.802779 -1.463373 0
M  V30 14 C -0.919827 1.057485 -1.268753 0
M  V30 15 C -1.682174 1.873108 -2.079790 0
M  V30 16 Cl -0.906008 2.632322 -3.459183 0
M  V30 17 N -2.973151 2.146386 -1.916307 0
M  V30 18 C -3.655286 1.599607 -0.871118 0
M  V30 19 C -2.948653 0.773359 -0.021927 0
M  V30 20 C -1.612669 0.505665 -0.212072 0
M  V30 21 C -1.014694 -1.823628 4.105251 0
M  V30 22 C 0.149349 -1.058522 3.617262 0
M  V30 23 H -0.198175 -2.869244 0.889766 0
M  V30 24 H -0.819520 -3.902592 2.199419 0
M  V30 25 H 0.842957 -3.211412 2.376080 0
M  V30 26 H -2.544711 -0.894728 2.122099 0
M  V30 27 H 2.588460 -1.576275 0.910478 0
M  V30 28 H 5.028521 -2.051538 0.544207 0
M  V30 29 H 4.963339 0.444612 -2.891423 0
M  V30 30 H 2.623741 0.876215 -2.506789 0
M  V30 31 H -4.707167 1.815272 -0.728194 0
M  V30 32 H -3.485878 0.338874 0.806582 0
M  V30 33 H -1.890021 -1.220485 4.469827 0
M  V30 34 H -0.853319 -2.739101 4.691188 0
M  V30 35 H 0.098186 0.039225 3.591626 0
M  V30 36 H 1.184606 -1.478355 3.720956 0
M  V30 END ATOM
M  V30 BEGIN BOND
M  V30 1 1 1 2
M  V30 2 1 2 3
M  V30 3 1 3 4
M  V30 4 2 4 5
M  V30 5 1 5 6
M  V30 6 1 6 7
M  V30 7 2 7 8
M  V30 8 1 8 9
M  V30 9 2 9 10
M  V30 10 1 10 11
M  V30 11 2 11 12
M  V30 12 2 6 13
M  V30 13 1 13 14
M  V30 14 2 14 15
M  V30 15 1 15 16
M  V30 16 1 15 17
M  V30 17 2 17 18
M  V30 18 1 18 19
M  V30 19 2 19 20
M  V30 20 1 2 21
M  V30 21 1 21 22
M  V30 22 1 22 2
M  V30 23 1 20 4
M  V30 24 1 12 7
M  V30 25 1 20 14
M  V30 26 1 1 23
M  V30 27 1 1 24
M  V30 28 1 1 25
M  V30 29 1 3 26
M  V30 30 1 8 27
M  V30 31 1 9 28
M  V30 32 1 11 29
M  V30 33 1 12 30
M  V30 34 1 18 31
M  V30 35 1 19 32
M  V30 36 1 21 33
M  V30 37 1 21 34
M  V30 38 1 22 35
M  V30 39 1 22 36
M  V30 END BOND
M  V30 END CTAB
M  END
>  <Dataset>  (585) 
ChEMBL_Kinases

>  <Ligand_Instance>  (585) 
nan

>  <PDB_ID>  (585) 
nan

>  <Standardized_SMILES>  (585) 
CC1(Nc2nc(-c3ccncc3)nc3c(Cl)nccc23)CC1

>  <Name>  (585) 
nan

>  <Pocket>  (585) 
nan

>  <ATP_Site>  (585) 
nan

>  <Peripheral>  (585) 
nan

>  <Num_H_Atoms_ProtBoundConf>  (585) 
nan

>  <Num_Resolved_Atoms>  (585) 
nan

>  <Num_Not_Resolved_Atoms>  (585) 
nan

$$$$
CHEMBL4450403
     RDKit          3D

  0  0  0  0  0  0  0  0  0  0999 V3000
M  V30 BEGIN CTAB
M  V30 COUNTS 67 71 0 0 0
M  V30 BEGIN ATOM
M  V30 1 C -2.318440 2.832516 7.463947 0
M  V30 2 N -1.784741 3.889565 6.637370 0
M  V30 3 N -1.658491 5.129022 7.111414 0
M  V30 4 C -1.145403 5.908833 6.136844 0
M  V30 5 C -0.982454 5.045853 5.070632 0
M  V30 6 Cl -0.308189 5.933686 3.697573 0
M  V30 7 C -1.385151 3.769904 5.383516 0
M  V30 8 C -1.288033 2.747020 4.393810 0
M  V30 9 C -0.816898 2.934900 3.113320 0
M  V30 10 C -0.825340 1.775685 2.364257 0
M  V30 11 C -0.421171 1.523197 0.989120 0
M  V30 12 O 0.018140 2.448002 0.271314 0
M  V30 13 N -0.515575 0.232423 0.436765 0
M  V30 14 C -0.166105 -0.173309 -0.873291 0 CFG=2
M  V30 15 C -1.426442 -0.671004 -1.530362 0
M  V30 16 N -1.196653 -1.804972 -2.390587 0
M  V30 17 C -0.057222 -1.532828 -3.242022 0 CFG=2
M  V30 18 C -0.091492 -2.662638 -4.281979 0
M  V30 19 C -1.432548 -2.498005 -4.965429 0
M  V30 20 N -1.650409 -3.489032 -5.993709 0
M  V30 21 C -2.970402 -3.210117 -6.558115 0
M  V30 22 C -2.958270 -1.950400 -7.399703 0
M  V30 23 O -1.905392 -1.896780 -8.287021 0
M  V30 24 C -0.661854 -2.072390 -7.703793 0
M  V30 25 C -0.643380 -3.423990 -7.035178 0
M  V30 26 C 1.172251 -1.559287 -2.421278 0
M  V30 27 C 0.891480 -1.207716 -0.991466 0 CFG=1
M  V30 28 C 2.192985 -0.792072 -0.411636 0
M  V30 29 C 2.912019 -1.411487 0.592417 0
M  V30 30 C 4.124027 -0.864873 1.002301 0
M  V30 31 C 4.603730 0.296124 0.402820 0
M  V30 32 Cl 6.147978 0.944297 0.963071 0
M  V30 33 C 3.889282 0.937764 -0.615870 0
M  V30 34 Cl 4.537333 2.392523 -1.333881 0
M  V30 35 C 2.684524 0.355992 -0.992247 0
M  V30 36 O -1.307691 0.852952 3.187314 0
M  V30 37 C -1.568842 1.412904 4.341008 0
M  V30 38 Cl -2.207663 0.344964 5.536903 0
M  V30 39 H -1.560160 2.068234 7.638802 0
M  V30 40 H -3.253510 2.384587 7.085021 0
M  V30 41 H -2.646708 3.260261 8.459310 0
M  V30 42 H -1.011257 6.931521 6.441000 0
M  V30 43 H -0.441072 3.787136 2.559890 0
M  V30 44 H -0.889764 -0.525616 1.066925 0
M  V30 45 H 0.193917 0.764394 -1.384874 0
M  V30 46 H -1.779188 0.150142 -2.221919 0
M  V30 47 H -2.206043 -0.834596 -0.787881 0
M  V30 48 H -0.941068 -2.610777 -1.779080 0
M  V30 49 H -0.194375 -0.618464 -3.852714 0
M  V30 50 H -0.040202 -3.647008 -3.781305 0
M  V30 51 H 0.732192 -2.474366 -4.983162 0
M  V30 52 H -1.554135 -1.468332 -5.311586 0
M  V30 53 H -2.210713 -2.706322 -4.183705 0
M  V30 54 H -3.651387 -3.015808 -5.704192 0
M  V30 55 H -3.372958 -4.043171 -7.144688 0
M  V30 56 H -3.025941 -1.028336 -6.783460 0
M  V30 57 H -3.893894 -1.979571 -8.001797 0
M  V30 58 H 0.068083 -2.110755 -8.545758 0
M  V30 59 H -0.430897 -1.239664 -7.005139 0
M  V30 60 H -0.936885 -4.168051 -7.806448 0
M  V30 61 H 0.323535 -3.708896 -6.604237 0
M  V30 62 H 1.628476 -2.571654 -2.535536 0
M  V30 63 H 1.913231 -0.873004 -2.896920 0
M  V30 64 H 0.551885 -2.133648 -0.482568 0
M  V30 65 H 2.455459 -2.297037 0.986132 0
M  V30 66 H 4.655627 -1.364288 1.777432 0
M  V30 67 H 2.205129 0.919388 -1.782986 0
M  V30 END ATOM
M  V30 BEGIN BOND
M  V30 1 1 1 2
M  V30 2 1 2 3
M  V30 3 2 3 4
M  V30 4 1 4 5
M  V30 5 1 5 6
M  V30 6 2 5 7
M  V30 7 1 7 8
M  V30 8 1 8 9
M  V30 9 2 9 10
M  V30 10 1 10 11
M  V30 11 2 11 12
M  V30 12 1 11 13
M  V30 13 1 13 14
M  V30 14 1 14 15
M  V30 15 1 15 16
M  V30 16 1 16 17
M  V30 17 1 17 18
M  V30 18 1 18 19
M  V30 19 1 19 20
M  V30 20 1 20 21
M  V30 21 1 21 22
M  V30 22 1 22 23
M  V30 23 1 23 24
M  V30 24 1 24 25
M  V30 25 1 17 26
M  V30 26 1 26 27
M  V30 27 1 27 28
M  V30 28 2 28 29
M  V30 29 1 29 30
M  V30 30 2 30 31
M  V30 31 1 31 32
M  V30 32 1 31 33
M  V30 33 1 33 34
M  V30 34 2 33 35
M  V30 35 1 10 36
M  V30 36 1 36 37
M  V30 37 1 37 38
M  V30 38 1 7 2
M  V30 39 2 37 8
M  V30 40 1 27 14
M  V30 41 1 35 28
M  V30 42 1 25 20
M  V30 43 1 1 39
M  V30 44 1 1 40
M  V30 45 1 1 41
M  V30 46 1 4 42
M  V30 47 1 9 43
M  V30 48 1 13 44
M  V30 49 1 14 45 CFG=3
M  V30 50 1 15 46
M  V30 51 1 15 47
M  V30 52 1 16 48
M  V30 53 1 17 49 CFG=3
M  V30 54 1 18 50
M  V30 55 1 18 51
M  V30 56 1 19 52
M  V30 57 1 19 53
M  V30 58 1 21 54
M  V30 59 1 21 55
M  V30 60 1 22 56
M  V30 61 1 22 57
M  V30 62 1 24 58
M  V30 63 1 24 59
M  V30 64 1 25 60
M  V30 65 1 25 61
M  V30 66 1 26 62
M  V30 67 1 26 63
M  V30 68 1 27 64 CFG=1
M  V30 69 1 29 65
M  V30 70 1 30 66
M  V30 71 1 35 67
M  V30 END BOND
M  V30 END CTAB
M  END
>  <Dataset>  (586) 
ChEMBL_Kinases

>  <Ligand_Instance>  (586) 
nan

>  <PDB_ID>  (586) 
nan

>  <Standardized_SMILES>  (586) 
Cn1ncc(Cl)c1-c1cc(C(=O)N[C@@H]2CN[C@H](CCN3CCOCC3)C[C@H]2c2ccc(Cl)c(Cl)c2)oc1Cl

>  <Name>  (586) 
nan

>  <Pocket>  (586) 
nan

>  <ATP_Site>  (586) 
nan

>  <Peripheral>  (586) 
nan

>  <Num_H_Atoms_ProtBoundConf>  (586) 
nan

>  <Num_Resolved_Atoms>  (586) 
nan

>  <Num_Not_Resolved_Atoms>  (586) 
nan

$$$$
CHEMBL4450377
     RDKit          3D

  0  0  0  0  0  0  0  0  0  0999 V3000
M  V30 BEGIN CTAB
M  V30 COUNTS 37 40 0 0 0
M  V30 BEGIN ATOM
M  V30 1 C -0.566065 -2.980462 1.772815 0
M  V30 2 C -0.827074 -1.757430 2.626663 0
M  V30 3 N -1.466938 -0.677448 1.932617 0
M  V30 4 C -0.805901 -0.109867 0.809826 0
M  V30 5 N 0.372739 -0.616708 0.467441 0
M  V30 6 C 1.094932 -0.150173 -0.591110 0
M  V30 7 C 2.386444 -0.744123 -0.924105 0
M  V30 8 C 2.891721 -1.784204 -0.171942 0
M  V30 9 C 4.119989 -2.274240 -0.570365 0
M  V30 10 N 4.837570 -1.813010 -1.619805 0
M  V30 11 C 4.342894 -0.790389 -2.360948 0
M  V30 12 C 3.115846 -0.270911 -1.995620 0
M  V30 13 N 0.619506 0.862636 -1.335921 0
M  V30 14 C -0.568759 1.411156 -1.031741 0
M  V30 15 C -1.115886 2.459374 -1.760723 0
M  V30 16 N -2.311791 2.963093 -1.401807 0
M  V30 17 C -3.032785 2.511682 -0.360683 0
M  V30 18 C -2.508821 1.468784 0.380095 0
M  V30 19 C -1.287048 0.927823 0.042190 0
M  V30 20 C -1.284696 -2.068621 4.010731 0
M  V30 21 O 0.032497 -2.347897 4.357243 0
M  V30 22 C 0.407973 -1.376796 3.411687 0
M  V30 23 H 0.505278 -3.232802 1.776297 0
M  V30 24 H -1.088039 -3.854826 2.221719 0
M  V30 25 H -0.885776 -2.841407 0.714048 0
M  V30 26 H -2.384672 -0.423574 2.352419 0
M  V30 27 H 2.371998 -2.199957 0.677418 0
M  V30 28 H 4.606946 -3.091466 -0.047751 0
M  V30 29 H 4.834756 -0.334659 -3.232770 0
M  V30 30 H 2.691003 0.556333 -2.576408 0
M  V30 31 H -0.539219 2.821789 -2.594930 0
M  V30 32 H -3.981142 2.992209 -0.164598 0
M  V30 33 H -3.082633 1.100911 1.218089 0
M  V30 34 H -1.904815 -3.001141 4.090994 0
M  V30 35 H -1.746855 -1.193616 4.503286 0
M  V30 36 H 0.396554 -0.391186 3.880442 0
M  V30 37 H 1.357918 -1.705302 2.938178 0
M  V30 END ATOM
M  V30 BEGIN BOND
M  V30 1 1 1 2
M  V30 2 1 2 3
M  V30 3 1 3 4
M  V30 4 2 4 5
M  V30 5 1 5 6
M  V30 6 1 6 7
M  V30 7 2 7 8
M  V30 8 1 8 9
M  V30 9 2 9 10
M  V30 10 1 10 11
M  V30 11 2 11 12
M  V30 12 2 6 13
M  V30 13 1 13 14
M  V30 14 2 14 15
M  V30 15 1 15 16
M  V30 16 2 16 17
M  V30 17 1 17 18
M  V30 18 2 18 19
M  V30 19 1 2 20
M  V30 20 1 20 21
M  V30 21 1 21 22
M  V30 22 1 22 2
M  V30 23 1 19 4
M  V30 24 1 12 7
M  V30 25 1 19 14
M  V30 26 1 1 23
M  V30 27 1 1 24
M  V30 28 1 1 25
M  V30 29 1 3 26
M  V30 30 1 8 27
M  V30 31 1 9 28
M  V30 32 1 11 29
M  V30 33 1 12 30
M  V30 34 1 15 31
M  V30 35 1 17 32
M  V30 36 1 18 33
M  V30 37 1 20 34
M  V30 38 1 20 35
M  V30 39 1 22 36
M  V30 40 1 22 37
M  V30 END BOND
M  V30 END CTAB
M  END
>  <Dataset>  (587) 
ChEMBL_Kinases

>  <Ligand_Instance>  (587) 
nan

>  <PDB_ID>  (587) 
nan

>  <Standardized_SMILES>  (587) 
CC1(Nc2nc(-c3ccncc3)nc3cnccc23)COC1

>  <Name>  (587) 
nan

>  <Pocket>  (587) 
nan

>  <ATP_Site>  (587) 
nan

>  <Peripheral>  (587) 
nan

>  <Num_H_Atoms_ProtBoundConf>  (587) 
nan

>  <Num_Resolved_Atoms>  (587) 
nan

>  <Num_Not_Resolved_Atoms>  (587) 
nan

$$$$
CHEMBL4749291
     RDKit          3D

  0  0  0  0  0  0  0  0  0  0999 V3000
M  V30 BEGIN CTAB
M  V30 COUNTS 64 68 0 0 0
M  V30 BEGIN ATOM
M  V30 1 C 1.008759 0.024777 7.767360 0
M  V30 2 N 1.660398 -0.375851 6.557103 0
M  V30 3 C 0.798697 -1.064341 5.625626 0
M  V30 4 C -0.033444 -0.109835 4.796474 0
M  V30 5 N 0.317306 1.229794 5.155331 0
M  V30 6 C -0.529081 2.225288 4.531981 0
M  V30 7 C -0.462522 2.160980 3.049311 0
M  V30 8 C 0.484993 2.914040 2.357796 0
M  V30 9 C 0.521223 2.831985 0.976361 0
M  V30 10 C -0.342339 2.034914 0.251849 0
M  V30 11 C -0.324651 1.930319 -1.205510 0
M  V30 12 C 0.020650 2.917845 -2.105892 0
M  V30 13 N -0.009678 2.676277 -3.429552 0
M  V30 14 C -0.370000 1.484886 -3.948548 0
M  V30 15 N -0.482644 0.990514 -5.198921 0
M  V30 16 C -0.896743 -0.307374 -5.143592 0
M  V30 17 C -1.064467 -0.688257 -3.824417 0
M  V30 18 C -1.497340 -1.991915 -3.329301 0
M  V30 19 C -2.447020 -2.166439 -2.335896 0
M  V30 20 C -2.854511 -3.384688 -1.868498 0
M  V30 21 C -3.831940 -3.480571 -0.849095 0
M  V30 22 N -4.621753 -3.559326 -0.001196 0
M  V30 23 C -2.257226 -4.495333 -2.449400 0
M  V30 24 C -1.291604 -4.394294 -3.456746 0
M  V30 25 N -0.788912 -5.627160 -3.934784 0
M  V30 26 S 0.892815 -5.904419 -4.190336 0
M  V30 27 C 1.587845 -4.817857 -5.404961 0
M  V30 28 O 1.103844 -7.326675 -4.617341 0
M  V30 29 O 1.574079 -5.730912 -2.861414 0
M  V30 30 C -0.951289 -3.119187 -3.856376 0
M  V30 31 C -0.729377 0.446046 -3.114427 0
M  V30 32 C -0.694051 0.706756 -1.757757 0
M  V30 33 C -1.272659 1.297827 0.958885 0
M  V30 34 C -1.345115 1.349890 2.352670 0
M  V30 35 C 1.711616 1.510145 4.998536 0
M  V30 36 C 2.494767 0.625389 5.958339 0
M  V30 37 H 0.149159 -0.678560 7.936827 0
M  V30 38 H 0.662726 1.098183 7.755773 0
M  V30 39 H 1.751324 -0.069090 8.602565 0
M  V30 40 H 0.101165 -1.675302 6.262075 0
M  V30 41 H 1.432688 -1.741630 5.000070 0
M  V30 42 H 0.196832 -0.347890 3.730490 0
M  V30 43 H -1.106970 -0.279908 4.966749 0
M  V30 44 H -0.232168 3.221949 4.890492 0
M  V30 45 H -1.560667 2.047418 4.838961 0
M  V30 46 H 1.175625 3.548505 2.899515 0
M  V30 47 H 1.263187 3.422065 0.439056 0
M  V30 48 H 0.305377 3.861797 -1.668416 0
M  V30 49 H -0.271370 1.559518 -6.061665 0
M  V30 50 H -1.058974 -0.916783 -6.019393 0
M  V30 51 H -2.902094 -1.287216 -1.895538 0
M  V30 52 H -2.582067 -5.468207 -2.076714 0
M  V30 53 H -1.490726 -6.399427 -4.138286 0
M  V30 54 H 2.440065 -5.305993 -5.944612 0
M  V30 55 H 2.017244 -3.946598 -4.864305 0
M  V30 56 H 0.868457 -4.537553 -6.201371 0
M  V30 57 H -0.206084 -3.074891 -4.632507 0
M  V30 58 H -0.976291 -0.109221 -1.088723 0
M  V30 59 H -2.002127 0.637762 0.509415 0
M  V30 60 H -2.062390 0.782616 2.910319 0
M  V30 61 H 1.850427 2.593943 5.284881 0
M  V30 62 H 2.110901 1.312510 3.988324 0
M  V30 63 H 3.344844 0.115987 5.468548 0
M  V30 64 H 2.913746 1.237397 6.787523 0
M  V30 END ATOM
M  V30 BEGIN BOND
M  V30 1 1 1 2
M  V30 2 1 2 3
M  V30 3 1 3 4
M  V30 4 1 4 5
M  V30 5 1 5 6
M  V30 6 1 6 7
M  V30 7 2 7 8
M  V30 8 1 8 9
M  V30 9 2 9 10
M  V30 10 1 10 11
M  V30 11 2 11 12
M  V30 12 1 12 13
M  V30 13 2 13 14
M  V30 14 1 14 15
M  V30 15 1 15 16
M  V30 16 2 16 17
M  V30 17 1 17 18
M  V30 18 2 18 19
M  V30 19 1 19 20
M  V30 20 1 20 21
M  V30 21 3 21 22
M  V30 22 2 20 23
M  V30 23 1 23 24
M  V30 24 1 24 25
M  V30 25 1 25 26
M  V30 26 1 26 27
M  V30 27 2 26 28
M  V30 28 2 26 29
M  V30 29 2 24 30
M  V30 30 1 17 31
M  V30 31 2 31 32
M  V30 32 1 10 33
M  V30 33 2 33 34
M  V30 34 1 5 35
M  V30 35 1 35 36
M  V30 36 1 36 2
M  V30 37 1 34 7
M  V30 38 1 32 11
M  V30 39 1 31 14
M  V30 40 1 30 18
M  V30 41 1 1 37
M  V30 42 1 1 38
M  V30 43 1 1 39
M  V30 44 1 3 40
M  V30 45 1 3 41
M  V30 46 1 4 42
M  V30 47 1 4 43
M  V30 48 1 6 44
M  V30 49 1 6 45
M  V30 50 1 8 46
M  V30 51 1 9 47
M  V30 52 1 12 48
M  V30 53 1 15 49
M  V30 54 1 16 50
M  V30 55 1 19 51
M  V30 56 1 23 52
M  V30 57 1 25 53
M  V30 58 1 27 54
M  V30 59 1 27 55
M  V30 60 1 27 56
M  V30 61 1 30 57
M  V30 62 1 32 58
M  V30 63 1 33 59
M  V30 64 1 34 60
M  V30 65 1 35 61
M  V30 66 1 35 62
M  V30 67 1 36 63
M  V30 68 1 36 64
M  V30 END BOND
M  V30 END CTAB
M  END
>  <Dataset>  (588) 
ChEMBL_Kinases

>  <Ligand_Instance>  (588) 
nan

>  <PDB_ID>  (588) 
nan

>  <Standardized_SMILES>  (588) 
CN1CCN(Cc2ccc(-c3cnc4[nH]cc(-c5cc(C#N)cc(NS(C)(=O)=O)c5)c4c3)cc2)CC1

>  <Name>  (588) 
nan

>  <Pocket>  (588) 
nan

>  <ATP_Site>  (588) 
nan

>  <Peripheral>  (588) 
nan

>  <Num_H_Atoms_ProtBoundConf>  (588) 
nan

>  <Num_Resolved_Atoms>  (588) 
nan

>  <Num_Not_Resolved_Atoms>  (588) 
nan

$$$$
CHEMBL4749327
     RDKit          3D

  0  0  0  0  0  0  0  0  0  0999 V3000
M  V30 BEGIN CTAB
M  V30 COUNTS 70 74 0 0 0
M  V30 BEGIN ATOM
M  V30 1 C 10.420924 2.030461 5.522141 0
M  V30 2 N 9.091860 2.214113 4.928145 0
M  V30 3 C 8.819868 1.329414 3.878268 0
M  V30 4 O 9.634716 0.464967 3.485600 0
M  V30 5 C 7.504851 1.382963 3.161981 0
M  V30 6 S 7.208607 0.242459 1.839525 0
M  V30 7 C 5.469042 0.928179 1.515643 0
M  V30 8 C 4.713405 0.230378 0.377800 0
M  V30 9 C 5.210779 -0.797104 -0.350774 0
M  V30 10 C 4.420897 -1.336769 -1.345926 0
M  V30 11 N 3.176541 -0.812902 -1.551641 0
M  V30 12 C 2.734875 0.217856 -0.787550 0
M  V30 13 N 1.403463 0.645692 -1.130288 0
M  V30 14 C 0.527342 -0.094654 -0.303608 0
M  V30 15 O 1.020091 -0.929374 0.523219 0
M  V30 16 C -0.964836 -0.080887 -0.211683 0
M  V30 17 N -1.577764 0.809792 -1.111383 0
M  V30 18 C -2.985508 0.910625 -0.953834 0
M  V30 19 C -3.841226 -0.250617 -1.294176 0
M  V30 20 N -3.660497 -1.448827 -0.521760 0
M  V30 21 C -4.600684 -2.416826 -1.037192 0
M  V30 22 C -5.889799 -2.542107 -0.538818 0
M  V30 23 C -6.840358 -3.441908 -0.989256 0
M  V30 24 N -6.478316 -4.260529 -1.993882 0
M  V30 25 C -5.252465 -4.217356 -2.543837 0
M  V30 26 C -4.881646 -5.060775 -3.575040 0
M  V30 27 C -3.612020 -5.020399 -4.146163 0
M  V30 28 C -2.679786 -4.103173 -3.669568 0
M  V30 29 C -3.028386 -3.239774 -2.629504 0
M  V30 30 C -4.306495 -3.302297 -2.075757 0
M  V30 31 C -8.190731 -3.477678 -0.371001 0
M  V30 32 C -8.703169 -2.148684 0.068146 0
M  V30 33 C -7.660431 -1.067105 0.118793 0
M  V30 34 C -6.331575 -1.648417 0.584368 0
M  V30 35 C 3.474467 0.813806 0.233820 0
M  V30 36 N 5.459613 1.724152 2.312310 0
M  V30 37 C 6.361342 2.073019 3.190540 0
M  V30 38 O 6.269053 3.087323 4.158652 0
M  V30 39 C 5.134985 3.906589 4.324557 0
M  V30 40 H 10.740263 0.961046 5.493690 0
M  V30 41 H 11.124425 2.599730 4.894301 0
M  V30 42 H 10.445429 2.401973 6.560283 0
M  V30 43 H 8.414243 2.914187 5.236150 0
M  V30 44 H 6.196302 -1.151607 -0.126430 0
M  V30 45 H 4.854162 -2.155588 -1.904630 0
M  V30 46 H 0.891653 1.294541 -1.764379 0
M  V30 47 H -1.237129 0.186630 0.823732 0
M  V30 48 H -1.370690 -1.097353 -0.398764 0
M  V30 49 H -1.155860 1.734263 -1.247446 0
M  V30 50 H -3.198891 1.292290 0.089221 0
M  V30 51 H -3.298662 1.811540 -1.583285 0
M  V30 52 H -3.771525 -0.489950 -2.402327 0
M  V30 53 H -4.911282 0.112978 -1.208803 0
M  V30 54 H -3.339219 -2.160977 0.164460 0
M  V30 55 H -5.636811 -5.770806 -3.928243 0
M  V30 56 H -3.343075 -5.696025 -4.959983 0
M  V30 57 H -1.688220 -4.022562 -4.063878 0
M  V30 58 H -2.325710 -2.512778 -2.235633 0
M  V30 59 H -8.232191 -4.230094 0.468748 0
M  V30 60 H -8.883832 -3.884123 -1.145987 0
M  V30 61 H -9.537161 -1.783721 -0.569814 0
M  V30 62 H -9.090206 -2.247545 1.113170 0
M  V30 63 H -7.974288 -0.290073 0.842888 0
M  V30 64 H -7.457031 -0.596833 -0.858759 0
M  V30 65 H -6.516561 -2.327111 1.469366 0
M  V30 66 H -5.611595 -0.879583 0.846600 0
M  V30 67 H 3.071791 1.614125 0.791332 0
M  V30 68 H 4.194620 3.319136 4.379241 0
M  V30 69 H 5.288652 4.468482 5.258257 0
M  V30 70 H 5.069140 4.637864 3.494558 0
M  V30 END ATOM
M  V30 BEGIN BOND
M  V30 1 1 1 2
M  V30 2 1 2 3
M  V30 3 2 3 4
M  V30 4 1 3 5
M  V30 5 1 5 6
M  V30 6 1 6 7
M  V30 7 1 7 8
M  V30 8 2 8 9
M  V30 9 1 9 10
M  V30 10 2 10 11
M  V30 11 1 11 12
M  V30 12 1 12 13
M  V30 13 1 13 14
M  V30 14 2 14 15
M  V30 15 1 14 16
M  V30 16 1 16 17
M  V30 17 1 17 18
M  V30 18 1 18 19
M  V30 19 1 19 20
M  V30 20 1 20 21
M  V30 21 2 21 22
M  V30 22 1 22 23
M  V30 23 2 23 24
M  V30 24 1 24 25
M  V30 25 2 25 26
M  V30 26 1 26 27
M  V30 27 2 27 28
M  V30 28 1 28 29
M  V30 29 2 29 30
M  V30 30 1 23 31
M  V30 31 1 31 32
M  V30 32 1 32 33
M  V30 33 1 33 34
M  V30 34 2 12 35
M  V30 35 2 7 36
M  V30 36 1 36 37
M  V30 37 1 37 38
M  V30 38 1 38 39
M  V30 39 2 37 5
M  V30 40 1 35 8
M  V30 41 1 30 21
M  V30 42 1 34 22
M  V30 43 1 30 25
M  V30 44 1 1 40
M  V30 45 1 1 41
M  V30 46 1 1 42
M  V30 47 1 2 43
M  V30 48 1 9 44
M  V30 49 1 10 45
M  V30 50 1 13 46
M  V30 51 1 16 47
M  V30 52 1 16 48
M  V30 53 1 17 49
M  V30 54 1 18 50
M  V30 55 1 18 51
M  V30 56 1 19 52
M  V30 57 1 19 53
M  V30 58 1 20 54
M  V30 59 1 26 55
M  V30 60 1 27 56
M  V30 61 1 28 57
M  V30 62 1 29 58
M  V30 63 1 31 59
M  V30 64 1 31 60
M  V30 65 1 32 61
M  V30 66 1 32 62
M  V30 67 1 33 63
M  V30 68 1 33 64
M  V30 69 1 34 65
M  V30 70 1 34 66
M  V30 71 1 35 67
M  V30 72 1 39 68
M  V30 73 1 39 69
M  V30 74 1 39 70
M  V30 END BOND
M  V30 END CTAB
M  END
>  <Dataset>  (589) 
ChEMBL_Kinases

>  <Ligand_Instance>  (589) 
nan

>  <PDB_ID>  (589) 
nan

>  <Standardized_SMILES>  (589) 
CNC(=O)c1sc(-c2ccnc(NC(=O)CNCCNc3c4c(nc5ccccc35)CCCC4)c2)nc1OC

>  <Name>  (589) 
nan

>  <Pocket>  (589) 
nan

>  <ATP_Site>  (589) 
nan

>  <Peripheral>  (589) 
nan

>  <Num_H_Atoms_ProtBoundConf>  (589) 
nan

>  <Num_Resolved_Atoms>  (589) 
nan

>  <Num_Not_Resolved_Atoms>  (589) 
nan

$$$$
CHEMBL4450261
     RDKit          3D

  0  0  0  0  0  0  0  0  0  0999 V3000
M  V30 BEGIN CTAB
M  V30 COUNTS 42 45 0 0 0
M  V30 BEGIN ATOM
M  V30 1 C 0.980637 -6.493044 2.857609 0
M  V30 2 O 2.010022 -6.355104 1.876120 0
M  V30 3 C 1.977421 -5.169211 1.154308 0
M  V30 4 C 1.005152 -4.216660 1.396405 0
M  V30 5 C 1.011554 -3.052895 0.654988 0
M  V30 6 C 1.953131 -2.770852 -0.341082 0
M  V30 7 C 1.865568 -1.506659 -1.065829 0
M  V30 8 C 2.269818 -1.396195 -2.374409 0
M  V30 9 N 2.180415 -0.223126 -3.024419 0
M  V30 10 C 1.700634 0.899586 -2.454960 0
M  V30 11 N 1.506883 2.181674 -2.875456 0
M  V30 12 C 0.985602 2.905944 -1.868267 0
M  V30 13 C 0.818282 2.112866 -0.740140 0
M  V30 14 N 0.304946 2.453619 0.544531 0
M  V30 15 C -1.073909 2.346478 0.862499 0
M  V30 16 O -1.796190 1.925790 -0.086309 0
M  V30 17 C -1.686045 2.671873 2.144790 0
M  V30 18 C -3.063233 2.474835 2.208073 0
M  V30 19 C -3.693833 2.775039 3.418614 0
M  V30 20 C -2.915245 3.241328 4.457034 0
M  V30 21 N -1.602217 3.411778 4.344807 0
M  V30 22 C -0.923132 3.138501 3.192626 0
M  V30 23 C 1.269121 0.866312 -1.124767 0
M  V30 24 C 1.375710 -0.352220 -0.490653 0
M  V30 25 C 2.919584 -3.723963 -0.577679 0
M  V30 26 C 2.917240 -4.884587 0.158267 0
M  V30 27 H 1.120667 -5.672553 3.602230 0
M  V30 28 H 1.047338 -7.447690 3.409322 0
M  V30 29 H -0.025278 -6.365056 2.427254 0
M  V30 30 H 0.237960 -4.353818 2.148997 0
M  V30 31 H 0.248299 -2.286899 0.834075 0
M  V30 32 H 2.667607 -2.240811 -2.913814 0
M  V30 33 H 1.744841 2.503023 -3.847293 0
M  V30 34 H 0.722059 3.964841 -1.902757 0
M  V30 35 H 0.940333 2.799484 1.306102 0
M  V30 36 H -3.665495 2.112505 1.399183 0
M  V30 37 H -4.755208 2.668434 3.603019 0
M  V30 38 H -3.250523 3.512760 5.438107 0
M  V30 39 H 0.144090 3.282371 3.117900 0
M  V30 40 H 1.035227 -0.358373 0.544365 0
M  V30 41 H 3.661202 -3.533554 -1.342222 0
M  V30 42 H 3.693857 -5.638321 -0.039460 0
M  V30 END ATOM
M  V30 BEGIN BOND
M  V30 1 1 1 2
M  V30 2 1 2 3
M  V30 3 2 3 4
M  V30 4 1 4 5
M  V30 5 2 5 6
M  V30 6 1 6 7
M  V30 7 2 7 8
M  V30 8 1 8 9
M  V30 9 2 9 10
M  V30 10 1 10 11
M  V30 11 1 11 12
M  V30 12 2 12 13
M  V30 13 1 13 14
M  V30 14 1 14 15
M  V30 15 2 15 16
M  V30 16 1 15 17
M  V30 17 2 17 18
M  V30 18 1 18 19
M  V30 19 2 19 20
M  V30 20 1 20 21
M  V30 21 2 21 22
M  V30 22 1 13 23
M  V30 23 2 23 24
M  V30 24 1 6 25
M  V30 25 2 25 26
M  V30 26 1 26 3
M  V30 27 1 24 7
M  V30 28 1 23 10
M  V30 29 1 22 17
M  V30 30 1 1 27
M  V30 31 1 1 28
M  V30 32 1 1 29
M  V30 33 1 4 30
M  V30 34 1 5 31
M  V30 35 1 8 32
M  V30 36 1 11 33
M  V30 37 1 12 34
M  V30 38 1 14 35
M  V30 39 1 18 36
M  V30 40 1 19 37
M  V30 41 1 20 38
M  V30 42 1 22 39
M  V30 43 1 24 40
M  V30 44 1 25 41
M  V30 45 1 26 42
M  V30 END BOND
M  V30 END CTAB
M  END
>  <Dataset>  (590) 
ChEMBL_Kinases

>  <Ligand_Instance>  (590) 
nan

>  <PDB_ID>  (590) 
nan

>  <Standardized_SMILES>  (590) 
COc1ccc(-c2cnc3[nH]cc(NC(=O)c4cccnc4)c3c2)cc1

>  <Name>  (590) 
nan

>  <Pocket>  (590) 
nan

>  <ATP_Site>  (590) 
nan

>  <Peripheral>  (590) 
nan

>  <Num_H_Atoms_ProtBoundConf>  (590) 
nan

>  <Num_Resolved_Atoms>  (590) 
nan

>  <Num_Not_Resolved_Atoms>  (590) 
nan

$$$$
CHEMBL4450254
     RDKit          3D

  0  0  0  0  0  0  0  0  0  0999 V3000
M  V30 BEGIN CTAB
M  V30 COUNTS 47 50 0 0 0
M  V30 BEGIN ATOM
M  V30 1 O 3.092737 0.150354 0.467107 0
M  V30 2 C 2.039753 -0.482584 0.189054 0
M  V30 3 N 2.437895 -1.766641 -0.243691 0
M  V30 4 C 3.838935 -1.978466 -0.245960 0
M  V30 5 C 4.336676 -2.476751 0.926139 0
M  V30 6 C 5.708931 -2.715957 1.011861 0
M  V30 7 N 6.528928 -2.466902 -0.023752 0
M  V30 8 N 6.035093 -1.984118 -1.154511 0
M  V30 9 C 4.719311 -1.738852 -1.280829 0
M  V30 10 C 0.691730 0.063981 0.312165 0
M  V30 11 C 0.716783 1.387985 0.781020 0
M  V30 12 C -0.429599 2.118711 0.979614 0
M  V30 13 N -0.378582 3.457594 1.455210 0
M  V30 14 C 0.687552 4.376401 1.835442 0
M  V30 15 C -0.311328 5.282187 2.507902 0
M  V30 16 F -0.222222 6.607689 2.131536 0
M  V30 17 F -0.314817 5.074581 3.866279 0
M  V30 18 C -1.343206 4.491340 1.769924 0
M  V30 19 C -1.662150 1.562836 0.719242 0
M  V30 20 C -1.644564 0.277189 0.266008 0
M  V30 21 C -0.549820 -0.522753 0.040591 0
M  V30 22 O -0.452702 -1.789571 -0.402461 0
M  V30 23 C -1.395657 -2.699439 -0.766238 0
M  V30 24 C -2.380582 -3.144338 0.220531 0
M  V30 25 C -3.672446 -2.782739 0.537313 0
M  V30 26 C -4.381184 -3.373545 1.558211 0
M  V30 27 C -3.843369 -4.369591 2.333114 0
M  V30 28 C -2.554132 -4.767703 2.056149 0
M  V30 29 C -1.852740 -4.167059 1.029089 0
M  V30 30 H 1.678689 -2.426061 -0.515784 0
M  V30 31 H 3.790561 -2.718549 1.826456 0
M  V30 32 H 6.162746 -3.115107 1.927513 0
M  V30 33 H 4.256439 -1.342213 -2.185740 0
M  V30 34 H 1.639595 1.939591 1.023684 0
M  V30 35 H 1.401798 3.899104 2.548409 0
M  V30 36 H 1.193112 4.896364 1.015325 0
M  V30 37 H -2.143798 4.075718 2.419039 0
M  V30 38 H -1.741450 5.017375 0.874759 0
M  V30 39 H -2.594611 2.092795 0.858007 0
M  V30 40 H -2.599892 -0.169997 0.050641 0
M  V30 41 H -0.929349 -3.597385 -1.245632 0
M  V30 42 H -2.019459 -2.267289 -1.621531 0
M  V30 43 H -4.028257 -2.012771 -0.110362 0
M  V30 44 H -5.379521 -2.965356 1.665461 0
M  V30 45 H -4.522625 -4.726293 3.086699 0
M  V30 46 H -2.173219 -5.549076 2.686116 0
M  V30 47 H -0.845894 -4.598956 0.942476 0
M  V30 END ATOM
M  V30 BEGIN BOND
M  V30 1 2 1 2
M  V30 2 1 2 3
M  V30 3 1 3 4
M  V30 4 2 4 5
M  V30 5 1 5 6
M  V30 6 2 6 7
M  V30 7 1 7 8
M  V30 8 2 8 9
M  V30 9 1 2 10
M  V30 10 2 10 11
M  V30 11 1 11 12
M  V30 12 1 12 13
M  V30 13 1 13 14
M  V30 14 1 14 15
M  V30 15 1 15 16
M  V30 16 1 15 17
M  V30 17 1 15 18
M  V30 18 2 12 19
M  V30 19 1 19 20
M  V30 20 2 20 21
M  V30 21 1 21 22
M  V30 22 1 22 23
M  V30 23 1 23 24
M  V30 24 2 24 25
M  V30 25 1 25 26
M  V30 26 2 26 27
M  V30 27 1 27 28
M  V30 28 2 28 29
M  V30 29 1 9 4
M  V30 30 1 21 10
M  V30 31 1 29 24
M  V30 32 1 18 13
M  V30 33 1 3 30
M  V30 34 1 5 31
M  V30 35 1 6 32
M  V30 36 1 9 33
M  V30 37 1 11 34
M  V30 38 1 14 35
M  V30 39 1 14 36
M  V30 40 1 18 37
M  V30 41 1 18 38
M  V30 42 1 19 39
M  V30 43 1 20 40
M  V30 44 1 23 41
M  V30 45 1 23 42
M  V30 46 1 25 43
M  V30 47 1 26 44
M  V30 48 1 27 45
M  V30 49 1 28 46
M  V30 50 1 29 47
M  V30 END BOND
M  V30 END CTAB
M  END
>  <Dataset>  (591) 
ChEMBL_Kinases

>  <Ligand_Instance>  (591) 
nan

>  <PDB_ID>  (591) 
nan

>  <Standardized_SMILES>  (591) 
O=C(Nc1ccnnc1)c1cc(N2CC(F)(F)C2)ccc1OCc1ccccc1

>  <Name>  (591) 
nan

>  <Pocket>  (591) 
nan

>  <ATP_Site>  (591) 
nan

>  <Peripheral>  (591) 
nan

>  <Num_H_Atoms_ProtBoundConf>  (591) 
nan

>  <Num_Resolved_Atoms>  (591) 
nan

>  <Num_Not_Resolved_Atoms>  (591) 
nan

$$$$
CHEMBL4450247
     RDKit          3D

  0  0  0  0  0  0  0  0  0  0999 V3000
M  V30 BEGIN CTAB
M  V30 COUNTS 44 47 0 0 0
M  V30 BEGIN ATOM
M  V30 1 O 0.440933 1.270636 1.048496 0
M  V30 2 C 0.543355 0.021419 1.198503 0
M  V30 3 N 1.555008 -0.463591 2.072164 0
M  V30 4 C 2.340080 0.608681 2.671885 0
M  V30 5 N 2.323213 1.290857 3.619034 0
M  V30 6 C 3.179135 2.236292 3.965992 0
M  V30 7 C 3.152208 3.040391 5.088551 0
M  V30 8 C 4.135490 3.975733 5.280383 0
M  V30 9 C 5.195421 4.204926 4.428427 0
M  V30 10 C 6.288773 5.197021 4.573650 0
M  V30 11 F 6.597517 5.482202 5.885022 0
M  V30 12 F 6.036023 6.374374 3.889337 0
M  V30 13 F 7.464165 4.675023 4.013098 0
M  V30 14 C 5.254561 3.419943 3.296857 0
M  V30 15 C 4.246693 2.472282 3.115004 0
M  V30 16 S 3.928441 1.244641 1.793654 0
M  V30 17 C -0.352720 -0.892631 0.493085 0
M  V30 18 C -0.298798 -2.266545 0.591356 0
M  V30 19 C -1.149288 -3.120051 -0.082870 0
M  V30 20 C -2.120392 -2.597847 -0.911212 0
M  V30 21 N -3.050435 -3.382143 -1.659668 0
M  V30 22 C -4.136673 -2.885701 -2.489996 0
M  V30 23 C -3.630604 -3.062469 -3.916685 0
M  V30 24 O -2.710645 -4.109873 -3.991228 0
M  V30 25 C -3.062695 -5.176524 -3.185800 0
M  V30 26 C -3.032066 -4.833842 -1.696538 0
M  V30 27 C -2.204342 -1.227714 -1.034317 0
M  V30 28 C -1.329565 -0.378602 -0.339409 0
M  V30 29 H 1.698248 -1.474431 2.247023 0
M  V30 30 H 2.404807 3.011496 5.869084 0
M  V30 31 H 4.149941 4.637790 6.163821 0
M  V30 32 H 6.011949 3.453074 2.510608 0
M  V30 33 H 0.443341 -2.709412 1.226266 0
M  V30 34 H -1.064870 -4.169398 0.028664 0
M  V30 35 H -4.412770 -1.834995 -2.275660 0
M  V30 36 H -5.054152 -3.502423 -2.395561 0
M  V30 37 H -4.440901 -3.167982 -4.648666 0
M  V30 38 H -3.067445 -2.126586 -4.134640 0
M  V30 39 H -4.048941 -5.529252 -3.521357 0
M  V30 40 H -2.296160 -5.968070 -3.387216 0
M  V30 41 H -4.040474 -5.147711 -1.295864 0
M  V30 42 H -2.215925 -5.308611 -1.172801 0
M  V30 43 H -2.897776 -0.667330 -1.634322 0
M  V30 44 H -1.373778 0.716134 -0.418565 0
M  V30 END ATOM
M  V30 BEGIN BOND
M  V30 1 2 1 2
M  V30 2 1 2 3
M  V30 3 1 3 4
M  V30 4 2 4 5
M  V30 5 1 5 6
M  V30 6 2 6 7
M  V30 7 1 7 8
M  V30 8 2 8 9
M  V30 9 1 9 10
M  V30 10 1 10 11
M  V30 11 1 10 12
M  V30 12 1 10 13
M  V30 13 1 9 14
M  V30 14 2 14 15
M  V30 15 1 15 16
M  V30 16 1 2 17
M  V30 17 2 17 18
M  V30 18 1 18 19
M  V30 19 2 19 20
M  V30 20 1 20 21
M  V30 21 1 21 22
M  V30 22 1 22 23
M  V30 23 1 23 24
M  V30 24 1 24 25
M  V30 25 1 25 26
M  V30 26 1 20 27
M  V30 27 2 27 28
M  V30 28 1 16 4
M  V30 29 1 28 17
M  V30 30 1 15 6
M  V30 31 1 26 21
M  V30 32 1 3 29
M  V30 33 1 7 30
M  V30 34 1 8 31
M  V30 35 1 14 32
M  V30 36 1 18 33
M  V30 37 1 19 34
M  V30 38 1 22 35
M  V30 39 1 22 36
M  V30 40 1 23 37
M  V30 41 1 23 38
M  V30 42 1 25 39
M  V30 43 1 25 40
M  V30 44 1 26 41
M  V30 45 1 26 42
M  V30 46 1 27 43
M  V30 47 1 28 44
M  V30 END BOND
M  V30 END CTAB
M  END
>  <Dataset>  (592) 
ChEMBL_Kinases

>  <Ligand_Instance>  (592) 
nan

>  <PDB_ID>  (592) 
nan

>  <Standardized_SMILES>  (592) 
O=C(Nc1nc2ccc(C(F)(F)F)cc2s1)c1ccc(N2CCOCC2)cc1

>  <Name>  (592) 
nan

>  <Pocket>  (592) 
nan

>  <ATP_Site>  (592) 
nan

>  <Peripheral>  (592) 
nan

>  <Num_H_Atoms_ProtBoundConf>  (592) 
nan

>  <Num_Resolved_Atoms>  (592) 
nan

>  <Num_Not_Resolved_Atoms>  (592) 
nan

$$$$
CHEMBL4855483
     RDKit          3D

  0  0  0  0  0  0  0  0  0  0999 V3000
M  V30 BEGIN CTAB
M  V30 COUNTS 49 53 0 0 0
M  V30 BEGIN ATOM
M  V30 1 C 0.639131 0.634710 -0.583078 0
M  V30 2 C 0.848239 1.120925 0.829869 0
M  V30 3 C 1.893741 1.778524 1.513751 0
M  V30 4 C 2.964399 1.978752 0.547899 0
M  V30 5 O 3.331210 3.077341 0.013499 0
M  V30 6 N 3.714813 0.826513 0.117206 0
M  V30 7 C 4.768523 0.919135 -0.892933 0
M  V30 8 C 4.399034 -0.066468 -1.994573 0
M  V30 9 N 4.483667 -1.380392 -1.447197 0
M  V30 10 C 3.565485 -1.567404 -0.364569 0
M  V30 11 C 3.516490 -0.492520 0.659151 0
M  V30 12 O 1.468112 1.944552 2.760834 0
M  V30 13 C 0.270871 1.456739 2.902302 0
M  V30 14 C -0.549361 1.408050 4.009021 0
M  V30 15 C -1.810272 0.846510 4.008586 0
M  V30 16 C -2.237532 0.313247 2.808065 0
M  V30 17 N -3.494203 -0.315116 2.588326 0
M  V30 18 C -4.105801 -0.965926 1.474434 0
M  V30 19 N -4.976363 -0.350629 0.662467 0
M  V30 20 C -5.555122 -0.999690 -0.395160 0
M  V30 21 N -5.226654 -2.285700 -0.605329 0
M  V30 22 C -4.358873 -2.978602 0.167053 0
M  V30 23 C -4.119442 -4.302957 -0.188909 0
M  V30 24 C -3.228019 -4.974092 0.611022 0
M  V30 25 C -2.649841 -4.290562 1.684678 0
M  V30 26 Cl -1.519531 -5.242523 2.626071 0
M  V30 27 N -2.920076 -3.003008 1.980173 0
M  V30 28 C -3.797308 -2.310260 1.211881 0
M  V30 29 C -1.477480 0.323230 1.653633 0
M  V30 30 C -0.210011 0.910847 1.731180 0
M  V30 31 H 0.615321 -0.457075 -0.548438 0
M  V30 32 H 1.407285 1.048565 -1.266964 0
M  V30 33 H -0.339672 1.001051 -0.937381 0
M  V30 34 H 4.883563 1.937054 -1.272944 0
M  V30 35 H 5.683289 0.532191 -0.418284 0
M  V30 36 H 5.084701 0.091238 -2.834169 0
M  V30 37 H 3.357777 0.102771 -2.362923 0
M  V30 38 H 5.433286 -1.701538 -1.247584 0
M  V30 39 H 2.573124 -1.811315 -0.820083 0
M  V30 40 H 3.867143 -2.516613 0.172171 0
M  V30 41 H 2.556514 -0.600830 1.228743 0
M  V30 42 H 4.388740 -0.657582 1.351134 0
M  V30 43 H -0.184828 1.837543 4.927147 0
M  V30 44 H -2.459756 0.791183 4.841223 0
M  V30 45 H -4.251208 -0.398974 3.307580 0
M  V30 46 H -6.251736 -0.436753 -1.011344 0
M  V30 47 H -4.606519 -4.767557 -1.040002 0
M  V30 48 H -3.005643 -6.025064 0.382822 0
M  V30 49 H -1.786309 -0.088971 0.705541 0
M  V30 END ATOM
M  V30 BEGIN BOND
M  V30 1 1 1 2
M  V30 2 2 2 3
M  V30 3 1 3 4
M  V30 4 2 4 5
M  V30 5 1 4 6
M  V30 6 1 6 7
M  V30 7 1 7 8
M  V30 8 1 8 9
M  V30 9 1 9 10
M  V30 10 1 10 11
M  V30 11 1 3 12
M  V30 12 1 12 13
M  V30 13 2 13 14
M  V30 14 1 14 15
M  V30 15 2 15 16
M  V30 16 1 16 17
M  V30 17 1 17 18
M  V30 18 2 18 19
M  V30 19 1 19 20
M  V30 20 2 20 21
M  V30 21 1 21 22
M  V30 22 2 22 23
M  V30 23 1 23 24
M  V30 24 2 24 25
M  V30 25 1 25 26
M  V30 26 1 25 27
M  V30 27 2 27 28
M  V30 28 1 16 29
M  V30 29 2 29 30
M  V30 30 1 30 2
M  V30 31 1 11 6
M  V30 32 1 30 13
M  V30 33 1 28 18
M  V30 34 1 28 22
M  V30 35 1 1 31
M  V30 36 1 1 32
M  V30 37 1 1 33
M  V30 38 1 7 34
M  V30 39 1 7 35
M  V30 40 1 8 36
M  V30 41 1 8 37
M  V30 42 1 9 38
M  V30 43 1 10 39
M  V30 44 1 10 40
M  V30 45 1 11 41
M  V30 46 1 11 42
M  V30 47 1 14 43
M  V30 48 1 15 44
M  V30 49 1 17 45
M  V30 50 1 20 46
M  V30 51 1 23 47
M  V30 52 1 24 48
M  V30 53 1 29 49
M  V30 END BOND
M  V30 END CTAB
M  END
>  <Dataset>  (593) 
ChEMBL_Kinases

>  <Ligand_Instance>  (593) 
nan

>  <PDB_ID>  (593) 
nan

>  <Standardized_SMILES>  (593) 
Cc1c(C(=O)N2CCNCC2)oc2ccc(Nc3ncnc4ccc(Cl)nc34)cc12

>  <Name>  (593) 
nan

>  <Pocket>  (593) 
nan

>  <ATP_Site>  (593) 
nan

>  <Peripheral>  (593) 
nan

>  <Num_H_Atoms_ProtBoundConf>  (593) 
nan

>  <Num_Resolved_Atoms>  (593) 
nan

>  <Num_Not_Resolved_Atoms>  (593) 
nan

$$$$
CHEMBL4450216
     RDKit          3D

  0  0  0  0  0  0  0  0  0  0999 V3000
M  V30 BEGIN CTAB
M  V30 COUNTS 32 33 0 0 0
M  V30 BEGIN ATOM
M  V30 1 C -2.200376 -3.546042 1.428212 0
M  V30 2 O -1.885647 -2.739135 2.484769 0
M  V30 3 C -0.935341 -3.147033 3.339143 0
M  V30 4 C 0.498206 -3.195279 2.933797 0
M  V30 5 S 1.295103 -1.679934 2.559280 0
M  V30 6 C 0.944134 -0.802458 1.112265 0
M  V30 7 C 0.605395 -1.021077 -0.128869 0
M  V30 8 C 0.400429 -2.384813 -0.706902 0
M  V30 9 C 0.433356 -0.006166 -1.146736 0
M  V30 10 O 0.103849 -0.245265 -2.331650 0
M  V30 11 C 0.643218 1.397953 -0.832146 0
M  V30 12 C 0.480382 2.379726 -1.799562 0
M  V30 13 C 0.667095 3.712946 -1.546623 0
M  V30 14 C 1.031672 4.048151 -0.263581 0
M  V30 15 C 1.197702 3.090014 0.708107 0
M  V30 16 C 1.008859 1.751980 0.448955 0
M  V30 17 C 1.156068 0.637752 1.413786 0
M  V30 18 O 1.496446 1.139010 2.545928 0
M  V30 19 H -1.432042 -3.837036 0.736670 0
M  V30 20 H -2.950102 -2.952651 0.813582 0
M  V30 21 H -2.784326 -4.451105 1.720090 0
M  V30 22 H -1.052445 -2.524013 4.287812 0
M  V30 23 H -1.182793 -4.202310 3.679755 0
M  V30 24 H 1.035566 -3.632048 3.845704 0
M  V30 25 H 0.563657 -4.005382 2.146451 0
M  V30 26 H 0.710031 -3.174724 -0.020562 0
M  V30 27 H 1.088518 -2.470673 -1.600997 0
M  V30 28 H -0.647970 -2.450048 -1.038899 0
M  V30 29 H 0.195370 2.093287 -2.794627 0
M  V30 30 H 0.531269 4.450694 -2.324811 0
M  V30 31 H 1.199028 5.079734 0.021004 0
M  V30 32 H 1.483575 3.341646 1.718028 0
M  V30 END ATOM
M  V30 BEGIN BOND
M  V30 1 1 1 2
M  V30 2 1 2 3
M  V30 3 1 3 4
M  V30 4 1 4 5
M  V30 5 1 5 6
M  V30 6 2 6 7
M  V30 7 1 7 8
M  V30 8 1 7 9
M  V30 9 2 9 10
M  V30 10 1 9 11
M  V30 11 2 11 12
M  V30 12 1 12 13
M  V30 13 2 13 14
M  V30 14 1 14 15
M  V30 15 2 15 16
M  V30 16 1 16 17
M  V30 17 2 17 18
M  V30 18 1 17 6
M  V30 19 1 16 11
M  V30 20 1 1 19
M  V30 21 1 1 20
M  V30 22 1 1 21
M  V30 23 1 3 22
M  V30 24 1 3 23
M  V30 25 1 4 24
M  V30 26 1 4 25
M  V30 27 1 8 26
M  V30 28 1 8 27
M  V30 29 1 8 28
M  V30 30 1 12 29
M  V30 31 1 13 30
M  V30 32 1 14 31
M  V30 33 1 15 32
M  V30 END BOND
M  V30 END CTAB
M  END
>  <Dataset>  (594) 
ChEMBL_Kinases

>  <Ligand_Instance>  (594) 
nan

>  <PDB_ID>  (594) 
nan

>  <Standardized_SMILES>  (594) 
COCCSC1=C(C)C(=O)c2ccccc2C1=O

>  <Name>  (594) 
nan

>  <Pocket>  (594) 
nan

>  <ATP_Site>  (594) 
nan

>  <Peripheral>  (594) 
nan

>  <Num_H_Atoms_ProtBoundConf>  (594) 
nan

>  <Num_Resolved_Atoms>  (594) 
nan

>  <Num_Not_Resolved_Atoms>  (594) 
nan

$$$$
CHEMBL4749390
     RDKit          3D

  0  0  0  0  0  0  0  0  0  0999 V3000
M  V30 BEGIN CTAB
M  V30 COUNTS 63 67 0 0 0
M  V30 BEGIN ATOM
M  V30 1 C 3.150629 -0.510215 6.880210 0
M  V30 2 N 2.602332 0.474142 5.969333 0
M  V30 3 C 2.182490 -0.086798 4.725393 0
M  V30 4 C 3.347035 -0.341662 3.763900 0
M  V30 5 N 4.003087 0.879753 3.460410 0
M  V30 6 C 4.306996 1.146992 2.103082 0
M  V30 7 C 3.193960 1.208886 1.162785 0
M  V30 8 C 2.665577 0.193785 0.391262 0
M  V30 9 C 1.597850 0.364718 -0.465163 0
M  V30 10 C 1.003742 1.606068 -0.579631 0
M  V30 11 C -0.127279 1.804071 -1.480173 0
M  V30 12 C -0.381724 3.015414 -2.133291 0
M  V30 13 N -1.454764 3.095309 -2.945427 0
M  V30 14 C -2.285435 2.054241 -3.148139 0
M  V30 15 N -3.392342 1.936139 -3.908309 0
M  V30 16 C -3.862986 0.663570 -3.759390 0
M  V30 17 C -3.066234 -0.062421 -2.899003 0
M  V30 18 C -3.233800 -1.450039 -2.485069 0
M  V30 19 C -3.531446 -2.399432 -3.439619 0
M  V30 20 C -3.703094 -3.726584 -3.122118 0
M  V30 21 C -3.581379 -4.158797 -1.818465 0
M  V30 22 N -3.712704 -5.457339 -1.262995 0
M  V30 23 S -4.972525 -6.579235 -1.618168 0
M  V30 24 C -4.909540 -6.975763 -3.336555 0
M  V30 25 O -4.905663 -7.785274 -0.746758 0
M  V30 26 O -6.334772 -5.950713 -1.347726 0
M  V30 27 C -3.278764 -3.176610 -0.867150 0
M  V30 28 C -3.104375 -1.844904 -1.170996 0
M  V30 29 C -2.081865 0.843776 -2.532406 0
M  V30 30 C -0.993036 0.725468 -1.693935 0
M  V30 31 C 1.476771 2.670397 0.159777 0
M  V30 32 C 2.546964 2.441549 1.000228 0
M  V30 33 C 3.577023 1.974935 4.262527 0
M  V30 34 C 3.505003 1.551048 5.714440 0
M  V30 35 H 3.226812 -1.508310 6.428495 0
M  V30 36 H 4.136836 -0.208525 7.278648 0
M  V30 37 H 2.453913 -0.544615 7.759565 0
M  V30 38 H 1.490045 0.619813 4.230570 0
M  V30 39 H 1.595148 -1.016784 4.871485 0
M  V30 40 H 4.012964 -1.063315 4.313572 0
M  V30 41 H 2.945216 -0.805595 2.845315 0
M  V30 42 H 4.831314 2.148024 2.084285 0
M  V30 43 H 5.024817 0.366538 1.751446 0
M  V30 44 H 3.135532 -0.766057 0.482260 0
M  V30 45 H 1.235610 -0.476583 -1.039733 0
M  V30 46 H 0.333552 3.775669 -1.906118 0
M  V30 47 H -3.830477 2.680503 -4.514800 0
M  V30 48 H -4.742783 0.262119 -4.244807 0
M  V30 49 H -3.650964 -2.169213 -4.503847 0
M  V30 50 H -3.936037 -4.526712 -3.808987 0
M  V30 51 H -2.976821 -5.781201 -0.565672 0
M  V30 52 H -3.892650 -6.917853 -3.779748 0
M  V30 53 H -5.556726 -6.283556 -3.902704 0
M  V30 54 H -5.359307 -7.993035 -3.525065 0
M  V30 55 H -3.157712 -3.400596 0.200883 0
M  V30 56 H -2.871069 -1.102221 -0.420526 0
M  V30 57 H -0.791531 -0.188072 -1.194351 0
M  V30 58 H 1.033331 3.646584 0.089965 0
M  V30 59 H 2.893573 3.295991 1.565653 0
M  V30 60 H 4.320251 2.802355 4.242461 0
M  V30 61 H 2.562695 2.327356 3.975933 0
M  V30 62 H 4.502029 1.327850 6.144352 0
M  V30 63 H 3.131242 2.422397 6.328903 0
M  V30 END ATOM
M  V30 BEGIN BOND
M  V30 1 1 1 2
M  V30 2 1 2 3
M  V30 3 1 3 4
M  V30 4 1 4 5
M  V30 5 1 5 6
M  V30 6 1 6 7
M  V30 7 2 7 8
M  V30 8 1 8 9
M  V30 9 2 9 10
M  V30 10 1 10 11
M  V30 11 2 11 12
M  V30 12 1 12 13
M  V30 13 2 13 14
M  V30 14 1 14 15
M  V30 15 1 15 16
M  V30 16 2 16 17
M  V30 17 1 17 18
M  V30 18 2 18 19
M  V30 19 1 19 20
M  V30 20 2 20 21
M  V30 21 1 21 22
M  V30 22 1 22 23
M  V30 23 1 23 24
M  V30 24 2 23 25
M  V30 25 2 23 26
M  V30 26 1 21 27
M  V30 27 2 27 28
M  V30 28 1 17 29
M  V30 29 2 29 30
M  V30 30 1 10 31
M  V30 31 2 31 32
M  V30 32 1 5 33
M  V30 33 1 33 34
M  V30 34 1 34 2
M  V30 35 1 32 7
M  V30 36 1 30 11
M  V30 37 1 29 14
M  V30 38 1 28 18
M  V30 39 1 1 35
M  V30 40 1 1 36
M  V30 41 1 1 37
M  V30 42 1 3 38
M  V30 43 1 3 39
M  V30 44 1 4 40
M  V30 45 1 4 41
M  V30 46 1 6 42
M  V30 47 1 6 43
M  V30 48 1 8 44
M  V30 49 1 9 45
M  V30 50 1 12 46
M  V30 51 1 15 47
M  V30 52 1 16 48
M  V30 53 1 19 49
M  V30 54 1 20 50
M  V30 55 1 22 51
M  V30 56 1 24 52
M  V30 57 1 24 53
M  V30 58 1 24 54
M  V30 59 1 27 55
M  V30 60 1 28 56
M  V30 61 1 30 57
M  V30 62 1 31 58
M  V30 63 1 32 59
M  V30 64 1 33 60
M  V30 65 1 33 61
M  V30 66 1 34 62
M  V30 67 1 34 63
M  V30 END BOND
M  V30 END CTAB
M  END
>  <Dataset>  (595) 
ChEMBL_Kinases

>  <Ligand_Instance>  (595) 
nan

>  <PDB_ID>  (595) 
nan

>  <Standardized_SMILES>  (595) 
CN1CCN(Cc2ccc(-c3cnc4[nH]cc(-c5ccc(NS(C)(=O)=O)cc5)c4c3)cc2)CC1

>  <Name>  (595) 
nan

>  <Pocket>  (595) 
nan

>  <ATP_Site>  (595) 
nan

>  <Peripheral>  (595) 
nan

>  <Num_H_Atoms_ProtBoundConf>  (595) 
nan

>  <Num_Resolved_Atoms>  (595) 
nan

>  <Num_Not_Resolved_Atoms>  (595) 
nan

$$$$
CHEMBL4450200
     RDKit          3D

  0  0  0  0  0  0  0  0  0  0999 V3000
M  V30 BEGIN CTAB
M  V30 COUNTS 25 26 0 0 0
M  V30 BEGIN ATOM
M  V30 1 N 0.365224 -1.351930 4.045655 0
M  V30 2 C 0.180080 -2.271099 2.982116 0
M  V30 3 N 0.024684 -3.584572 3.325313 0
M  V30 4 C -0.155949 -4.500500 2.331234 0
M  V30 5 C -0.189230 -4.162034 0.991405 0
M  V30 6 N -0.030377 -2.840034 0.687795 0
M  V30 7 C 0.150254 -1.910696 1.651225 0
M  V30 8 C 0.319568 -0.498358 1.319874 0
M  V30 9 O 0.481315 0.290482 2.282027 0
M  V30 10 N 0.310650 0.013270 0.000137 0
M  V30 11 C 0.462417 1.345248 -0.447538 0
M  V30 12 C 0.656537 2.467429 0.306692 0
M  V30 13 C 0.800789 3.749016 -0.154427 0
M  V30 14 N 0.744695 3.921970 -1.506925 0
M  V30 15 C 0.555091 2.853578 -2.306737 0
M  V30 16 C 0.414899 1.583019 -1.801498 0
M  V30 17 H 1.278831 -1.302142 4.551916 0
M  V30 18 H -0.261265 -0.655911 4.470310 0
M  V30 19 H -0.282378 -5.550850 2.568756 0
M  V30 20 H -0.334596 -4.914549 0.226578 0
M  V30 21 H 0.167818 -0.751392 -0.694068 0
M  V30 22 H 0.705587 2.366616 1.374420 0
M  V30 23 H 0.950727 4.585585 0.497023 0
M  V30 24 H 0.507287 2.965059 -3.377371 0
M  V30 25 H 0.262789 0.748158 -2.493949 0
M  V30 END ATOM
M  V30 BEGIN BOND
M  V30 1 1 1 2
M  V30 2 2 2 3
M  V30 3 1 3 4
M  V30 4 2 4 5
M  V30 5 1 5 6
M  V30 6 2 6 7
M  V30 7 1 7 8
M  V30 8 2 8 9
M  V30 9 1 8 10
M  V30 10 1 10 11
M  V30 11 2 11 12
M  V30 12 1 12 13
M  V30 13 2 13 14
M  V30 14 1 14 15
M  V30 15 2 15 16
M  V30 16 1 7 2
M  V30 17 1 16 11
M  V30 18 1 1 17
M  V30 19 1 1 18
M  V30 20 1 4 19
M  V30 21 1 5 20
M  V30 22 1 10 21
M  V30 23 1 12 22
M  V30 24 1 13 23
M  V30 25 1 15 24
M  V30 26 1 16 25
M  V30 END BOND
M  V30 END CTAB
M  END
>  <Dataset>  (596) 
ChEMBL_Kinases

>  <Ligand_Instance>  (596) 
nan

>  <PDB_ID>  (596) 
nan

>  <Standardized_SMILES>  (596) 
Nc1nccnc1C(=O)Nc1ccncc1

>  <Name>  (596) 
nan

>  <Pocket>  (596) 
nan

>  <ATP_Site>  (596) 
nan

>  <Peripheral>  (596) 
nan

>  <Num_H_Atoms_ProtBoundConf>  (596) 
nan

>  <Num_Resolved_Atoms>  (596) 
nan

>  <Num_Not_Resolved_Atoms>  (596) 
nan

$$$$
CHEMBL4450194
     RDKit          3D

  0  0  0  0  0  0  0  0  0  0999 V3000
M  V30 BEGIN CTAB
M  V30 COUNTS 48 52 0 0 0
M  V30 BEGIN ATOM
M  V30 1 C 2.655439 1.188833 4.349480 0
M  V30 2 O 2.173660 1.255077 3.029140 0
M  V30 3 C 2.751065 0.586295 1.981719 0
M  V30 4 C 3.873552 -0.181297 2.326751 0
M  V30 5 C 4.496430 -0.875498 1.317926 0
M  V30 6 F 5.582413 -1.627631 1.612189 0
M  V30 7 C 4.092370 -0.864481 0.004301 0
M  V30 8 C 2.992972 -0.112089 -0.332445 0
M  V30 9 C 2.313601 0.617505 0.648971 0
M  V30 10 N 1.180990 1.463962 0.577279 0
M  V30 11 C -0.145681 1.788036 0.895272 0
M  V30 12 N -0.340608 3.106242 0.819087 0
M  V30 13 C -1.455702 3.783710 1.040136 0
M  V30 14 N -2.472053 2.990842 1.376253 0
M  V30 15 C -2.336339 1.649565 1.468474 0
M  V30 16 S -3.600097 0.469080 1.877638 0
M  V30 17 C -2.400491 -0.988095 1.695786 0
M  V30 18 C -1.235793 -0.402462 1.360214 0
M  V30 19 C -1.181621 0.960076 1.238118 0
M  V30 20 C -0.171241 -1.414950 1.159226 0
M  V30 21 C -0.569388 -2.810501 1.309653 0
M  V30 22 N -1.915147 -3.209275 1.174196 0
M  V30 23 S -2.436077 -3.721986 -0.349236 0
M  V30 24 O -1.631768 -4.932166 -0.745610 0
M  V30 25 O -3.866889 -4.220454 -0.190807 0
M  V30 26 C -2.331227 -2.556676 -1.565327 0
M  V30 27 C -1.650548 -2.469347 -2.785549 0
M  V30 28 C -1.751582 -1.385973 -3.584281 0
M  V30 29 C -2.637976 -0.308770 -3.059773 0
M  V30 30 S -3.225371 -1.012990 -1.444713 0
M  V30 31 C -2.833529 -2.357322 1.894988 0
M  V30 32 H 2.041527 1.815230 5.040694 0
M  V30 33 H 2.657289 0.123047 4.713286 0
M  V30 34 H 3.710308 1.579545 4.331895 0
M  V30 35 H 4.274179 -0.259221 3.323470 0
M  V30 36 H 4.531984 -1.382423 -0.831102 0
M  V30 37 H 2.504688 0.042110 -1.289408 0
M  V30 38 H 1.747227 2.116880 -0.048384 0
M  V30 39 H -1.710446 4.816422 1.006684 0
M  V30 40 H 0.639824 -1.248295 1.933397 0
M  V30 41 H 0.331663 -1.287795 0.170215 0
M  V30 42 H -0.203998 -3.258215 2.293068 0
M  V30 43 H 0.012642 -3.440118 0.562749 0
M  V30 44 H -1.057057 -3.340816 -3.002326 0
M  V30 45 H -1.234690 -1.306394 -4.523068 0
M  V30 46 H -2.726659 0.616587 -3.738136 0
M  V30 47 H -2.862962 -2.586195 2.974949 0
M  V30 48 H -3.834860 -2.574823 1.477690 0
M  V30 END ATOM
M  V30 BEGIN BOND
M  V30 1 1 1 2
M  V30 2 1 2 3
M  V30 3 2 3 4
M  V30 4 1 4 5
M  V30 5 1 5 6
M  V30 6 2 5 7
M  V30 7 1 7 8
M  V30 8 2 8 9
M  V30 9 1 9 10
M  V30 10 1 10 11
M  V30 11 2 11 12
M  V30 12 1 12 13
M  V30 13 2 13 14
M  V30 14 1 14 15
M  V30 15 1 15 16
M  V30 16 1 16 17
M  V30 17 2 17 18
M  V30 18 1 18 19
M  V30 19 1 18 20
M  V30 20 1 20 21
M  V30 21 1 21 22
M  V30 22 1 22 23
M  V30 23 2 23 24
M  V30 24 2 23 25
M  V30 25 1 23 26
M  V30 26 2 26 27
M  V30 27 1 27 28
M  V30 28 2 28 29
M  V30 29 1 29 30
M  V30 30 1 22 31
M  V30 31 1 9 3
M  V30 32 1 19 11
M  V30 33 1 30 26
M  V30 34 2 19 15
M  V30 35 1 31 17
M  V30 36 1 1 32
M  V30 37 1 1 33
M  V30 38 1 1 34
M  V30 39 1 4 35
M  V30 40 1 7 36
M  V30 41 1 8 37
M  V30 42 1 10 38
M  V30 43 1 13 39
M  V30 44 1 20 40
M  V30 45 1 20 41
M  V30 46 1 21 42
M  V30 47 1 21 43
M  V30 48 1 27 44
M  V30 49 1 28 45
M  V30 50 1 29 46
M  V30 51 1 31 47
M  V30 52 1 31 48
M  V30 END BOND
M  V30 END CTAB
M  END
>  <Dataset>  (597) 
ChEMBL_Kinases

>  <Ligand_Instance>  (597) 
nan

>  <PDB_ID>  (597) 
nan

>  <Standardized_SMILES>  (597) 
COc1cc(F)ccc1Nc1ncnc2sc3c(c12)CCN(S(=O)(=O)c1cccs1)C3

>  <Name>  (597) 
nan

>  <Pocket>  (597) 
nan

>  <ATP_Site>  (597) 
nan

>  <Peripheral>  (597) 
nan

>  <Num_H_Atoms_ProtBoundConf>  (597) 
nan

>  <Num_Resolved_Atoms>  (597) 
nan

>  <Num_Not_Resolved_Atoms>  (597) 
nan

$$$$
CHEMBL4450181
     RDKit          3D

  0  0  0  0  0  0  0  0  0  0999 V3000
M  V30 BEGIN CTAB
M  V30 COUNTS 54 57 0 0 0
M  V30 BEGIN ATOM
M  V30 1 C 4.688182 -3.585289 4.464516 0
M  V30 2 C 4.402326 -3.611266 3.161311 0
M  V30 3 C 4.145283 -2.465906 2.277906 0
M  V30 4 O 3.867276 -2.352981 1.050360 0
M  V30 5 N 4.194006 -1.133173 2.817117 0
M  V30 6 C 3.911870 -0.188182 1.766541 0
M  V30 7 C 4.796584 0.411062 0.904528 0
M  V30 8 C 4.316318 1.292372 -0.037708 0
M  V30 9 C 2.986640 1.622020 -0.179860 0
M  V30 10 O 2.492764 2.508092 -1.124126 0
M  V30 11 C 3.426936 3.104170 -2.004705 0
M  V30 12 C 2.132681 0.994610 0.709618 0
M  V30 13 N 0.743833 1.298959 0.621364 0
M  V30 14 C -0.440177 0.862303 1.296723 0
M  V30 15 N -0.958727 -0.147219 0.632273 0
M  V30 16 C -2.057707 -0.853816 0.888993 0
M  V30 17 N -2.744555 -1.953578 0.306028 0
M  V30 18 C -3.608908 -2.193832 -0.776463 0
M  V30 19 C -4.877148 -2.637684 -0.385795 0
M  V30 20 C -5.846586 -2.906954 -1.334553 0
M  V30 21 C -5.577551 -2.741029 -2.692646 0
M  V30 22 C -4.331252 -2.303873 -3.108809 0
M  V30 23 C -3.410135 -2.054172 -2.123698 0
M  V30 24 C -2.103168 -1.661314 -2.556682 0
M  V30 25 N -1.584241 -1.356233 -3.824187 0
M  V30 26 O -0.954739 -1.425918 -2.108759 0
M  V30 27 C -2.716169 -0.425651 2.033567 0
M  V30 28 C -3.837322 -0.756457 2.762611 0
M  V30 29 C -4.009447 0.043868 3.870085 0
M  V30 30 N -2.965214 0.925981 3.862959 0
M  V30 31 C -2.226648 0.633469 2.785017 0
M  V30 32 N -1.083926 1.271208 2.405420 0
M  V30 33 C 2.550246 0.101973 1.675615 0
M  V30 34 H 4.836496 -4.561187 4.897107 0
M  V30 35 H 4.735993 -2.609784 4.925499 0
M  V30 36 H 4.315018 -4.495841 2.547790 0
M  V30 37 H 4.410274 -0.924245 3.841390 0
M  V30 38 H 5.813345 0.134704 1.039073 0
M  V30 39 H 5.031498 1.732512 -0.686016 0
M  V30 40 H 2.929066 3.536657 -2.900582 0
M  V30 41 H 4.077137 3.857285 -1.501351 0
M  V30 42 H 4.109685 2.316999 -2.409413 0
M  V30 43 H 0.382885 1.999185 -0.062342 0
M  V30 44 H -2.561258 -2.818372 0.842057 0
M  V30 45 H -5.254984 -2.823906 0.608814 0
M  V30 46 H -6.857458 -3.254392 -1.173545 0
M  V30 47 H -6.309198 -2.940077 -3.478559 0
M  V30 48 H -4.094119 -2.164866 -4.152947 0
M  V30 49 H -1.308516 -0.520232 -4.411523 0
M  V30 50 H -1.328889 -2.071937 -4.572687 0
M  V30 51 H -4.514359 -1.559478 2.496832 0
M  V30 52 H -4.798671 0.006148 4.609837 0
M  V30 53 H -2.823786 1.663062 4.583856 0
M  V30 54 H 1.779475 -0.341245 2.330846 0
M  V30 END ATOM
M  V30 BEGIN BOND
M  V30 1 2 1 2
M  V30 2 1 2 3
M  V30 3 2 3 4
M  V30 4 1 3 5
M  V30 5 1 5 6
M  V30 6 2 6 7
M  V30 7 1 7 8
M  V30 8 2 8 9
M  V30 9 1 9 10
M  V30 10 1 10 11
M  V30 11 1 9 12
M  V30 12 1 12 13
M  V30 13 1 13 14
M  V30 14 2 14 15
M  V30 15 1 15 16
M  V30 16 1 16 17
M  V30 17 1 17 18
M  V30 18 2 18 19
M  V30 19 1 19 20
M  V30 20 2 20 21
M  V30 21 1 21 22
M  V30 22 2 22 23
M  V30 23 1 23 24
M  V30 24 1 24 25
M  V30 25 2 24 26
M  V30 26 2 16 27
M  V30 27 1 27 28
M  V30 28 2 28 29
M  V30 29 1 29 30
M  V30 30 1 30 31
M  V30 31 2 31 32
M  V30 32 2 12 33
M  V30 33 1 33 6
M  V30 34 1 32 14
M  V30 35 1 23 18
M  V30 36 1 31 27
M  V30 37 1 1 34
M  V30 38 1 1 35
M  V30 39 1 2 36
M  V30 40 1 5 37
M  V30 41 1 7 38
M  V30 42 1 8 39
M  V30 43 1 11 40
M  V30 44 1 11 41
M  V30 45 1 11 42
M  V30 46 1 13 43
M  V30 47 1 17 44
M  V30 48 1 19 45
M  V30 49 1 20 46
M  V30 50 1 21 47
M  V30 51 1 22 48
M  V30 52 1 25 49
M  V30 53 1 25 50
M  V30 54 1 28 51
M  V30 55 1 29 52
M  V30 56 1 30 53
M  V30 57 1 33 54
M  V30 END BOND
M  V30 END CTAB
M  END
>  <Dataset>  (598) 
ChEMBL_Kinases

>  <Ligand_Instance>  (598) 
nan

>  <PDB_ID>  (598) 
nan

>  <Standardized_SMILES>  (598) 
C=CC(=O)Nc1ccc(OC)c(Nc2nc(Nc3ccccc3C(N)=O)c3cc[nH]c3n2)c1

>  <Name>  (598) 
nan

>  <Pocket>  (598) 
nan

>  <ATP_Site>  (598) 
nan

>  <Peripheral>  (598) 
nan

>  <Num_H_Atoms_ProtBoundConf>  (598) 
nan

>  <Num_Resolved_Atoms>  (598) 
nan

>  <Num_Not_Resolved_Atoms>  (598) 
nan

$$$$
CHEMBL4450141
     RDKit          3D

  0  0  0  0  0  0  0  0  0  0999 V3000
M  V30 BEGIN CTAB
M  V30 COUNTS 48 51 0 0 0
M  V30 BEGIN ATOM
M  V30 1 C 1.951807 -3.764939 1.996906 0
M  V30 2 N 2.454306 -4.611628 0.915457 0
M  V30 3 N 2.882386 -5.856651 1.073175 0
M  V30 4 C 3.279597 -6.370880 -0.101081 0
M  V30 5 C 3.065516 -5.348845 -1.002784 0
M  V30 6 Cl 3.410166 -5.458506 -2.714924 0
M  V30 7 C 2.546451 -4.237562 -0.373335 0
M  V30 8 C 2.165733 -2.936533 -0.912791 0
M  V30 9 C 2.248290 -2.524476 -2.226382 0
M  V30 10 C 1.784607 -1.209038 -2.328838 0
M  V30 11 C 1.441039 -0.909360 -1.013690 0
M  V30 12 C 0.895258 0.382872 -0.606480 0
M  V30 13 O 0.714656 1.288388 -1.456828 0
M  V30 14 N 0.566621 0.617495 0.758978 0
M  V30 15 C 0.022362 1.832165 1.317478 0 CFG=2
M  V30 16 C 0.888218 2.396383 2.413917 0
M  V30 17 N 0.262725 2.419866 3.700948 0
M  V30 18 C -0.982562 3.134524 3.730882 0
M  V30 19 C -1.895923 2.773705 2.583021 0
M  V30 20 C -1.340971 1.544694 1.925528 0 CFG=1
M  V30 21 C -2.272306 0.920099 0.952486 0
M  V30 22 C -2.701604 -0.367124 1.216582 0
M  V30 23 C -3.566226 -0.970882 0.330283 0
M  V30 24 C -3.972832 -0.287544 -0.776276 0
M  V30 25 Cl -5.080404 -1.049663 -1.919663 0
M  V30 26 C -3.527133 1.007156 -1.020725 0
M  V30 27 C -2.661548 1.646181 -0.158115 0
M  V30 28 O 1.673961 -1.928686 -0.223334 0
M  V30 29 H 2.722404 -3.093533 2.405501 0
M  V30 30 H 1.562814 -4.437197 2.802679 0
M  V30 31 H 1.054458 -3.174631 1.654722 0
M  V30 32 H 3.679807 -7.343705 -0.347423 0
M  V30 33 H 2.602660 -3.074239 -3.086912 0
M  V30 34 H 1.719849 -0.599491 -3.220708 0
M  V30 35 H 0.731971 -0.167728 1.447190 0
M  V30 36 H -0.114002 2.590331 0.522128 0
M  V30 37 H 1.799643 1.739627 2.529259 0
M  V30 38 H 1.232823 3.412564 2.132590 0
M  V30 39 H 0.283610 1.532042 4.221762 0
M  V30 40 H -1.491380 2.847869 4.683113 0
M  V30 41 H -0.817097 4.224796 3.770385 0
M  V30 42 H -1.925231 3.628729 1.874869 0
M  V30 43 H -2.918500 2.568550 2.900398 0
M  V30 44 H -1.140766 0.809229 2.754738 0
M  V30 45 H -2.369912 -0.908243 2.107631 0
M  V30 46 H -3.888094 -1.983437 0.562139 0
M  V30 47 H -3.901512 1.488272 -1.934005 0
M  V30 48 H -2.331712 2.641771 -0.365727 0
M  V30 END ATOM
M  V30 BEGIN BOND
M  V30 1 1 1 2
M  V30 2 1 2 3
M  V30 3 2 3 4
M  V30 4 1 4 5
M  V30 5 1 5 6
M  V30 6 2 5 7
M  V30 7 1 7 8
M  V30 8 2 8 9
M  V30 9 1 9 10
M  V30 10 2 10 11
M  V30 11 1 11 12
M  V30 12 2 12 13
M  V30 13 1 12 14
M  V30 14 1 14 15
M  V30 15 1 15 16
M  V30 16 1 16 17
M  V30 17 1 17 18
M  V30 18 1 18 19
M  V30 19 1 19 20
M  V30 20 1 20 21
M  V30 21 2 21 22
M  V30 22 1 22 23
M  V30 23 2 23 24
M  V30 24 1 24 25
M  V30 25 1 24 26
M  V30 26 2 26 27
M  V30 27 1 11 28
M  V30 28 1 7 2
M  V30 29 1 28 8
M  V30 30 1 20 15
M  V30 31 1 27 21
M  V30 32 1 1 29
M  V30 33 1 1 30
M  V30 34 1 1 31
M  V30 35 1 4 32
M  V30 36 1 9 33
M  V30 37 1 10 34
M  V30 38 1 14 35
M  V30 39 1 15 36 CFG=3
M  V30 40 1 16 37
M  V30 41 1 16 38
M  V30 42 1 17 39
M  V30 43 1 18 40
M  V30 44 1 18 41
M  V30 45 1 19 42
M  V30 46 1 19 43
M  V30 47 1 20 44 CFG=1
M  V30 48 1 22 45
M  V30 49 1 23 46
M  V30 50 1 26 47
M  V30 51 1 27 48
M  V30 END BOND
M  V30 END CTAB
M  END
>  <Dataset>  (599) 
ChEMBL_Kinases

>  <Ligand_Instance>  (599) 
nan

>  <PDB_ID>  (599) 
nan

>  <Standardized_SMILES>  (599) 
Cn1ncc(Cl)c1-c1ccc(C(=O)N[C@@H]2CNCC[C@H]2c2ccc(Cl)cc2)o1

>  <Name>  (599) 
nan

>  <Pocket>  (599) 
nan

>  <ATP_Site>  (599) 
nan

>  <Peripheral>  (599) 
nan

>  <Num_H_Atoms_ProtBoundConf>  (599) 
nan

>  <Num_Resolved_Atoms>  (599) 
nan

>  <Num_Not_Resolved_Atoms>  (599) 
nan

$$$$
CHEMBL4450084
     RDKit          3D

  0  0  0  0  0  0  0  0  0  0999 V3000
M  V30 BEGIN CTAB
M  V30 COUNTS 32 33 0 0 0
M  V30 BEGIN ATOM
M  V30 1 C -1.691744 -3.523817 1.149615 0
M  V30 2 C -0.530398 -3.603163 2.112370 0
M  V30 3 C -0.789447 -2.663933 3.258227 0
M  V30 4 N 0.749717 -3.412314 1.500798 0
M  V30 5 C 0.703314 -2.183990 0.758030 0
M  V30 6 S 0.788901 -0.453834 1.199532 0
M  V30 7 C 0.664742 0.172627 -0.440121 0
M  V30 8 C 0.677959 1.550603 -0.812060 0
M  V30 9 O 0.633908 2.008427 -1.968076 0
M  V30 10 C 0.752433 2.555825 0.287410 0
M  V30 11 C 0.831006 3.943960 0.193082 0
M  V30 12 C 0.873381 4.558527 1.405445 0
M  V30 13 C 0.840818 3.864069 2.598705 0
M  V30 14 I 0.892347 4.685184 4.509764 0
M  V30 15 S 0.738159 2.137634 2.055689 0
M  V30 16 C 0.563123 -0.950543 -1.271394 0
M  V30 17 N 0.449848 -0.695820 -2.685959 0
M  V30 18 C 0.581420 -2.157423 -0.656717 0
M  V30 19 C 0.481197 -3.387419 -1.452944 0
M  V30 20 N 0.419823 -4.379943 -2.090886 0
M  V30 21 H -1.625003 -2.607179 0.501494 0
M  V30 22 H -2.645945 -3.396098 1.703927 0
M  V30 23 H -1.817290 -4.404853 0.506844 0
M  V30 24 H -0.551120 -4.647024 2.520105 0
M  V30 25 H -1.721170 -2.084570 3.128524 0
M  V30 26 H 0.020131 -1.880446 3.364493 0
M  V30 27 H -0.920642 -3.226573 4.218770 0
M  V30 28 H 1.628520 -3.998062 1.523627 0
M  V30 29 H 0.850429 4.382597 -0.787893 0
M  V30 30 H 0.936419 5.662916 1.404592 0
M  V30 31 H 1.389527 -0.550920 -3.122860 0
M  V30 32 H -0.476476 -0.658745 -3.204756 0
M  V30 END ATOM
M  V30 BEGIN BOND
M  V30 1 1 1 2
M  V30 2 1 2 3
M  V30 3 1 2 4
M  V30 4 1 4 5
M  V30 5 1 5 6
M  V30 6 1 6 7
M  V30 7 1 7 8
M  V30 8 2 8 9
M  V30 9 1 8 10
M  V30 10 2 10 11
M  V30 11 1 11 12
M  V30 12 2 12 13
M  V30 13 1 13 14
M  V30 14 1 13 15
M  V30 15 2 7 16
M  V30 16 1 16 17
M  V30 17 1 16 18
M  V30 18 1 18 19
M  V30 19 3 19 20
M  V30 20 2 18 5
M  V30 21 1 15 10
M  V30 22 1 1 21
M  V30 23 1 1 22
M  V30 24 1 1 23
M  V30 25 1 2 24
M  V30 26 1 3 25
M  V30 27 1 3 26
M  V30 28 1 3 27
M  V30 29 1 4 28
M  V30 30 1 11 29
M  V30 31 1 12 30
M  V30 32 1 17 31
M  V30 33 1 17 32
M  V30 END BOND
M  V30 END CTAB
M  END
>  <Dataset>  (600) 
ChEMBL_Kinases

>  <Ligand_Instance>  (600) 
nan

>  <PDB_ID>  (600) 
nan

>  <Standardized_SMILES>  (600) 
CC(C)Nc1sc(C(=O)c2ccc(I)s2)c(N)c1C#N

>  <Name>  (600) 
nan

>  <Pocket>  (600) 
nan

>  <ATP_Site>  (600) 
nan

>  <Peripheral>  (600) 
nan

>  <Num_H_Atoms_ProtBoundConf>  (600) 
nan

>  <Num_Resolved_Atoms>  (600) 
nan

>  <Num_Not_Resolved_Atoms>  (600) 
nan

$$$$
CHEMBL4450036
     RDKit          3D

  0  0  0  0  0  0  0  0  0  0999 V3000
M  V30 BEGIN CTAB
M  V30 COUNTS 69 73 0 0 0
M  V30 BEGIN ATOM
M  V30 1 C 1.371311 -0.697406 4.999050 0
M  V30 2 N 1.149414 -0.750324 3.570078 0
M  V30 3 C 2.382795 -1.177665 2.942579 0
M  V30 4 C 0.103117 -1.644068 3.173433 0
M  V30 5 C -1.282388 -1.218378 3.568422 0
M  V30 6 N -1.624002 0.077268 2.984420 0
M  V30 7 C -1.321409 1.157271 3.715748 0
M  V30 8 C -1.554339 2.458496 3.337510 0
M  V30 9 C -1.238683 3.649989 4.103320 0
M  V30 10 C -0.009451 4.309272 3.995237 0
M  V30 11 Cl 1.180997 3.642431 2.877651 0
M  V30 12 C 0.290492 5.445912 4.726134 0
M  V30 13 C -0.636507 5.973272 5.602510 0
M  V30 14 C -1.868942 5.364353 5.751750 0
M  V30 15 C -2.103741 4.238234 4.995920 0
M  V30 16 Cl -3.679133 3.471438 5.194364 0
M  V30 17 C -2.144172 2.660555 2.109943 0
M  V30 18 O -2.398799 3.804801 1.670374 0
M  V30 19 C -2.463062 1.572255 1.343858 0
M  V30 20 C -3.049197 1.695575 0.111084 0
M  V30 21 N -3.334498 0.593378 -0.588641 0
M  V30 22 C -3.066428 -0.664226 -0.127611 0
M  V30 23 N -3.503645 -1.569589 -1.148962 0
M  V30 24 C -2.493256 -2.215845 -1.916545 0
M  V30 25 C -1.174684 -2.156053 -1.441524 0
M  V30 26 C -0.129116 -2.750130 -2.121107 0
M  V30 27 C -0.382420 -3.434723 -3.322163 0
M  V30 28 N 0.714731 -4.054219 -3.980495 0
M  V30 29 C 0.887799 -4.300092 -5.410149 0
M  V30 30 C 2.038500 -3.446833 -5.837666 0
M  V30 31 N 2.919427 -3.003030 -4.825996 0
M  V30 32 C 2.547347 -1.665249 -4.408843 0
M  V30 33 C 3.059352 -3.779381 -3.648001 0
M  V30 34 C 1.881137 -4.588060 -3.261416 0
M  V30 35 C -1.678072 -3.488568 -3.783571 0
M  V30 36 C -2.712601 -2.892537 -3.096043 0
M  V30 37 N -2.490964 -0.814475 1.078790 0
M  V30 38 C -2.198196 0.284697 1.793473 0
M  V30 39 H 0.453265 -0.759196 5.585100 0
M  V30 40 H 1.903044 0.238902 5.286335 0
M  V30 41 H 2.037929 -1.552552 5.322419 0
M  V30 42 H 2.958263 -0.329717 2.491903 0
M  V30 43 H 3.050460 -1.704039 3.676243 0
M  V30 44 H 2.223739 -1.888310 2.110468 0
M  V30 45 H 0.288846 -2.602757 3.736960 0
M  V30 46 H 0.155127 -1.927675 2.108700 0
M  V30 47 H -1.983023 -1.994104 3.250763 0
M  V30 48 H -1.324513 -1.175029 4.677816 0
M  V30 49 H -0.854125 1.105738 4.705647 0
M  V30 50 H 1.292377 5.879402 4.558650 0
M  V30 51 H -0.351323 6.860613 6.146846 0
M  V30 52 H -2.588053 5.784001 6.440782 0
M  V30 53 H -3.236276 2.719924 -0.194143 0
M  V30 54 H -4.503339 -1.791141 -1.373015 0
M  V30 55 H -0.913373 -1.637013 -0.506760 0
M  V30 56 H 0.888538 -2.672161 -1.706080 0
M  V30 57 H -0.014579 -4.005684 -5.978686 0
M  V30 58 H 1.119455 -5.349441 -5.571433 0
M  V30 59 H 2.632780 -4.045527 -6.591510 0
M  V30 60 H 1.719920 -2.552338 -6.446645 0
M  V30 61 H 2.385316 -1.595016 -3.293621 0
M  V30 62 H 3.333172 -0.901998 -4.614718 0
M  V30 63 H 1.596321 -1.330653 -4.849366 0
M  V30 64 H 3.902567 -4.492838 -3.825302 0
M  V30 65 H 3.412534 -3.131947 -2.786319 0
M  V30 66 H 2.017647 -5.664842 -3.499941 0
M  V30 67 H 1.667576 -4.480601 -2.185918 0
M  V30 68 H -1.904564 -3.997528 -4.691057 0
M  V30 69 H -3.745587 -2.900601 -3.406706 0
M  V30 END ATOM
M  V30 BEGIN BOND
M  V30 1 1 1 2
M  V30 2 1 2 3
M  V30 3 1 2 4
M  V30 4 1 4 5
M  V30 5 1 5 6
M  V30 6 1 6 7
M  V30 7 2 7 8
M  V30 8 1 8 9
M  V30 9 2 9 10
M  V30 10 1 10 11
M  V30 11 1 10 12
M  V30 12 2 12 13
M  V30 13 1 13 14
M  V30 14 2 14 15
M  V30 15 1 15 16
M  V30 16 1 8 17
M  V30 17 2 17 18
M  V30 18 1 17 19
M  V30 19 2 19 20
M  V30 20 1 20 21
M  V30 21 2 21 22
M  V30 22 1 22 23
M  V30 23 1 23 24
M  V30 24 2 24 25
M  V30 25 1 25 26
M  V30 26 2 26 27
M  V30 27 1 27 28
M  V30 28 1 28 29
M  V30 29 1 29 30
M  V30 30 1 30 31
M  V30 31 1 31 32
M  V30 32 1 31 33
M  V30 33 1 33 34
M  V30 34 1 27 35
M  V30 35 2 35 36
M  V30 36 1 22 37
M  V30 37 2 37 38
M  V30 38 1 38 6
M  V30 39 1 15 9
M  V30 40 1 38 19
M  V30 41 1 36 24
M  V30 42 1 34 28
M  V30 43 1 1 39
M  V30 44 1 1 40
M  V30 45 1 1 41
M  V30 46 1 3 42
M  V30 47 1 3 43
M  V30 48 1 3 44
M  V30 49 1 4 45
M  V30 50 1 4 46
M  V30 51 1 5 47
M  V30 52 1 5 48
M  V30 53 1 7 49
M  V30 54 1 12 50
M  V30 55 1 13 51
M  V30 56 1 14 52
M  V30 57 1 20 53
M  V30 58 1 23 54
M  V30 59 1 25 55
M  V30 60 1 26 56
M  V30 61 1 29 57
M  V30 62 1 29 58
M  V30 63 1 30 59
M  V30 64 1 30 60
M  V30 65 1 32 61
M  V30 66 1 32 62
M  V30 67 1 32 63
M  V30 68 1 33 64
M  V30 69 1 33 65
M  V30 70 1 34 66
M  V30 71 1 34 67
M  V30 72 1 35 68
M  V30 73 1 36 69
M  V30 END BOND
M  V30 END CTAB
M  END
>  <Dataset>  (601) 
ChEMBL_Kinases

>  <Ligand_Instance>  (601) 
nan

>  <PDB_ID>  (601) 
nan

>  <Standardized_SMILES>  (601) 
CN(C)CCn1cc(-c2c(Cl)cccc2Cl)c(=O)c2cnc(Nc3ccc(N4CCN(C)CC4)cc3)nc21

>  <Name>  (601) 
nan

>  <Pocket>  (601) 
nan

>  <ATP_Site>  (601) 
nan

>  <Peripheral>  (601) 
nan

>  <Num_H_Atoms_ProtBoundConf>  (601) 
nan

>  <Num_Resolved_Atoms>  (601) 
nan

>  <Num_Not_Resolved_Atoms>  (601) 
nan

$$$$
CHEMBL4450014
     RDKit          3D

  0  0  0  0  0  0  0  0  0  0999 V3000
M  V30 BEGIN CTAB
M  V30 COUNTS 63 69 0 0 0
M  V30 BEGIN ATOM
M  V30 1 C 1.434790 -2.699040 5.669973 0
M  V30 2 C 1.546041 -1.645986 4.585934 0 CFG=1
M  V30 3 C 1.684940 -2.358739 3.274689 0
M  V30 4 N 1.465714 -1.496674 2.134736 0
M  V30 5 C 2.026351 -1.819080 0.858065 0
M  V30 6 C 1.867790 -1.062474 -0.262735 0
M  V30 7 C 2.411098 -1.378519 -1.491880 0
M  V30 8 N 2.222247 -0.559823 -2.643167 0
M  V30 9 N 3.187453 -0.170817 -3.479633 0
M  V30 10 C 2.649048 0.595962 -4.458707 0
M  V30 11 C 1.281650 0.697394 -4.232603 0
M  V30 12 C 0.238624 1.331368 -4.878070 0
M  V30 13 C -1.074093 1.254957 -4.405633 0
M  V30 14 C -1.308488 0.508866 -3.244938 0
M  V30 15 C -2.710612 0.485978 -2.826617 0
M  V30 16 C -3.300703 1.817486 -2.885189 0
M  V30 17 N -3.756003 2.863590 -2.932220 0
M  V30 18 C -3.079859 -0.282983 -1.595252 0
M  V30 19 C -3.628323 -1.352255 -2.459502 0
M  V30 20 C -4.796983 -2.171918 -2.137916 0
M  V30 21 C -3.384319 -2.771387 -2.313359 0
M  V30 22 C -3.471658 -0.535683 -3.682797 0
M  V30 23 C -0.244186 -0.097223 -2.646281 0
M  V30 24 C 1.051612 -0.044833 -3.078778 0
M  V30 25 N 3.141961 -2.521752 -1.546207 0
M  V30 26 C 3.308413 -3.287498 -0.433133 0
M  V30 27 N 2.764961 -2.943779 0.734906 0
M  V30 28 C 0.671603 -0.303254 2.302204 0
M  V30 29 C -0.276963 -0.548419 3.460940 0
M  V30 30 N 0.398400 -0.795957 4.673651 0
M  V30 31 C 0.459816 0.214085 5.648667 0
M  V30 32 C -0.781510 0.765211 6.234022 0
M  V30 33 O -0.151517 2.008916 6.324389 0
M  V30 34 C 0.537570 1.642764 5.159571 0
M  V30 35 H 0.918606 -2.258240 6.547553 0
M  V30 36 H 0.775311 -3.505620 5.280777 0
M  V30 37 H 2.423983 -3.124031 5.934362 0
M  V30 38 H 2.491898 -1.088996 4.773351 0
M  V30 39 H 0.988110 -3.216041 3.187182 0
M  V30 40 H 2.715887 -2.759431 3.187243 0
M  V30 41 H 1.293152 -0.165613 -0.215584 0
M  V30 42 H 3.141088 1.077511 -5.301352 0
M  V30 43 H 0.471211 1.895869 -5.771415 0
M  V30 44 H -1.825193 1.790892 -4.987129 0
M  V30 45 H -3.927394 0.230693 -1.055903 0
M  V30 46 H -2.311972 -0.518969 -0.866413 0
M  V30 47 H -5.245669 -2.226525 -1.125764 0
M  V30 48 H -5.501304 -2.431077 -2.938466 0
M  V30 49 H -3.200335 -3.377285 -3.203622 0
M  V30 50 H -2.930014 -3.107543 -1.343286 0
M  V30 51 H -4.442106 -0.120247 -4.026442 0
M  V30 52 H -2.910199 -0.958023 -4.515333 0
M  V30 53 H -0.478525 -0.652754 -1.765629 0
M  V30 54 H 3.898971 -4.188767 -0.527134 0
M  V30 55 H 1.346914 0.542781 2.478429 0
M  V30 56 H 0.061852 -0.059879 1.407448 0
M  V30 57 H -0.825020 -1.493297 3.170210 0
M  V30 58 H -1.037691 0.217433 3.593460 0
M  V30 59 H 1.231862 0.039767 6.401519 0
M  V30 60 H -1.663095 0.858789 5.577052 0
M  V30 61 H -0.994098 0.355160 7.255043 0
M  V30 62 H 1.549269 2.097804 5.167531 0
M  V30 63 H -0.055828 1.874588 4.275474 0
M  V30 END ATOM
M  V30 BEGIN BOND
M  V30 1 1 1 2
M  V30 2 1 2 3
M  V30 3 1 3 4
M  V30 4 1 4 5
M  V30 5 2 5 6
M  V30 6 1 6 7
M  V30 7 1 7 8
M  V30 8 1 8 9
M  V30 9 2 9 10
M  V30 10 1 10 11
M  V30 11 2 11 12
M  V30 12 1 12 13
M  V30 13 2 13 14
M  V30 14 1 14 15
M  V30 15 1 15 16
M  V30 16 3 16 17
M  V30 17 1 15 18
M  V30 18 1 18 19
M  V30 19 1 19 20
M  V30 20 1 20 21
M  V30 21 1 19 22
M  V30 22 1 14 23
M  V30 23 2 23 24
M  V30 24 2 7 25
M  V30 25 1 25 26
M  V30 26 2 26 27
M  V30 27 1 4 28
M  V30 28 1 28 29
M  V30 29 1 29 30
M  V30 30 1 30 31
M  V30 31 1 31 32
M  V30 32 1 32 33
M  V30 33 1 33 34
M  V30 34 1 30 2
M  V30 35 1 34 31
M  V30 36 1 27 5
M  V30 37 1 24 8
M  V30 38 1 24 11
M  V30 39 1 22 15
M  V30 40 1 21 19
M  V30 41 1 1 35
M  V30 42 1 1 36
M  V30 43 1 1 37
M  V30 44 1 2 38 CFG=1
M  V30 45 1 3 39
M  V30 46 1 3 40
M  V30 47 1 6 41
M  V30 48 1 10 42
M  V30 49 1 12 43
M  V30 50 1 13 44
M  V30 51 1 18 45
M  V30 52 1 18 46
M  V30 53 1 20 47
M  V30 54 1 20 48
M  V30 55 1 21 49
M  V30 56 1 21 50
M  V30 57 1 22 51
M  V30 58 1 22 52
M  V30 59 1 23 53
M  V30 60 1 26 54
M  V30 61 1 28 55
M  V30 62 1 28 56
M  V30 63 1 29 57
M  V30 64 1 29 58
M  V30 65 1 31 59
M  V30 66 1 32 60
M  V30 67 1 32 61
M  V30 68 1 34 62
M  V30 69 1 34 63
M  V30 END BOND
M  V30 END CTAB
M  END
>  <Dataset>  (602) 
ChEMBL_Kinases

>  <Ligand_Instance>  (602) 
nan

>  <PDB_ID>  (602) 
nan

>  <Standardized_SMILES>  (602) 
C[C@H]1CN(c2cc(-n3ncc4ccc(C5(C#N)CC6(CC6)C5)cc43)ncn2)CCN1C1COC1

>  <Name>  (602) 
nan

>  <Pocket>  (602) 
nan

>  <ATP_Site>  (602) 
nan

>  <Peripheral>  (602) 
nan

>  <Num_H_Atoms_ProtBoundConf>  (602) 
nan

>  <Num_Resolved_Atoms>  (602) 
nan

>  <Num_Not_Resolved_Atoms>  (602) 
nan

$$$$
CHEMBL4449947
     RDKit          3D

  0  0  0  0  0  0  0  0  0  0999 V3000
M  V30 BEGIN CTAB
M  V30 COUNTS 61 65 0 0 0
M  V30 BEGIN ATOM
M  V30 1 C 5.011486 -2.750224 4.871507 0
M  V30 2 C 5.885428 -1.933330 3.930838 0
M  V30 3 C 5.112259 -1.717229 2.690851 0
M  V30 4 C 4.535022 -0.488093 2.453185 0
M  V30 5 C 3.813117 -0.287225 1.296013 0
M  V30 6 N 3.223327 0.969411 1.055925 0
M  V30 7 C 2.445549 1.413009 -0.045699 0
M  V30 8 N 2.937171 2.002846 -1.168492 0
M  V30 9 C 2.076189 2.370010 -2.132070 0
M  V30 10 C 0.711484 2.179511 -2.042730 0
M  V30 11 C 0.249030 1.570163 -0.872376 0
M  V30 12 C -1.177864 1.343701 -0.725963 0
M  V30 13 S -2.589936 2.569736 -0.679709 0
M  V30 14 C -3.810243 1.206370 -0.476221 0
M  V30 15 C -5.345021 1.306084 -0.341123 0
M  V30 16 C -5.652298 0.583913 0.924344 0
M  V30 17 C -5.745751 -0.903373 0.640564 0
M  V30 18 N -6.969390 -1.171771 -0.087275 0
M  V30 19 C -7.263197 -0.126176 -1.035376 0
M  V30 20 C -5.993357 0.577648 -1.498006 0
M  V30 21 N -3.172498 0.235622 -0.468608 0
M  V30 22 C -1.846980 0.149238 -0.583900 0
M  V30 23 C -1.078721 -1.118087 -0.565224 0
M  V30 24 C -0.310643 -1.602672 -1.604069 0
M  V30 25 C 0.358564 -2.796861 -1.458278 0
M  V30 26 C 0.235440 -3.480026 -0.257074 0
M  V30 27 F 0.876085 -4.647348 -0.082690 0
M  V30 28 C -0.522354 -3.027874 0.802339 0
M  V30 29 C -1.183709 -1.828451 0.633179 0
M  V30 30 N 1.121465 1.203014 0.093625 0
M  V30 31 N 3.709636 -1.320602 0.447369 0
M  V30 32 C 4.257970 -2.523013 0.651407 0
M  V30 33 C 4.132078 -3.653831 -0.299698 0
M  V30 34 C 4.989159 -2.756690 1.803287 0
M  V30 35 F 5.577318 -3.959073 2.080047 0
M  V30 36 H 5.413401 -2.587303 5.904777 0
M  V30 37 H 5.057562 -3.823633 4.637527 0
M  V30 38 H 3.983618 -2.351164 4.788535 0
M  V30 39 H 6.082627 -0.974184 4.419293 0
M  V30 40 H 6.851306 -2.474993 3.725639 0
M  V30 41 H 4.631338 0.331541 3.151050 0
M  V30 42 H 3.314199 1.744180 1.719077 0
M  V30 43 H 2.439776 2.848821 -3.051972 0
M  V30 44 H -0.009701 2.460272 -2.792516 0
M  V30 45 H -5.587375 2.386957 -0.343767 0
M  V30 46 H -4.835793 0.784314 1.654177 0
M  V30 47 H -6.632009 0.896034 1.345198 0
M  V30 48 H -4.924311 -1.297573 0.035732 0
M  V30 49 H -5.728228 -1.442206 1.619508 0
M  V30 50 H -6.960626 -2.117993 -0.525218 0
M  V30 51 H -7.888023 0.631380 -0.516915 0
M  V30 52 H -7.793246 -0.472274 -1.937236 0
M  V30 53 H -6.328728 1.370276 -2.213326 0
M  V30 54 H -5.304563 -0.111426 -2.012524 0
M  V30 55 H -0.284036 -0.993279 -2.493431 0
M  V30 56 H 0.959818 -3.170164 -2.279317 0
M  V30 57 H -0.619633 -3.561551 1.742427 0
M  V30 58 H -1.782882 -1.469363 1.468401 0
M  V30 59 H 5.033173 -3.770158 -0.941010 0
M  V30 60 H 4.076529 -4.590395 0.288340 0
M  V30 61 H 3.212175 -3.495055 -0.906919 0
M  V30 END ATOM
M  V30 BEGIN BOND
M  V30 1 1 1 2
M  V30 2 1 2 3
M  V30 3 2 3 4
M  V30 4 1 4 5
M  V30 5 1 5 6
M  V30 6 1 6 7
M  V30 7 2 7 8
M  V30 8 1 8 9
M  V30 9 2 9 10
M  V30 10 1 10 11
M  V30 11 1 11 12
M  V30 12 1 12 13
M  V30 13 1 13 14
M  V30 14 1 14 15
M  V30 15 1 15 16
M  V30 16 1 16 17
M  V30 17 1 17 18
M  V30 18 1 18 19
M  V30 19 1 19 20
M  V30 20 2 14 21
M  V30 21 1 21 22
M  V30 22 1 22 23
M  V30 23 2 23 24
M  V30 24 1 24 25
M  V30 25 2 25 26
M  V30 26 1 26 27
M  V30 27 1 26 28
M  V30 28 2 28 29
M  V30 29 2 11 30
M  V30 30 2 5 31
M  V30 31 1 31 32
M  V30 32 1 32 33
M  V30 33 2 32 34
M  V30 34 1 34 35
M  V30 35 1 34 3
M  V30 36 1 30 7
M  V30 37 2 22 12
M  V30 38 1 29 23
M  V30 39 1 20 15
M  V30 40 1 1 36
M  V30 41 1 1 37
M  V30 42 1 1 38
M  V30 43 1 2 39
M  V30 44 1 2 40
M  V30 45 1 4 41
M  V30 46 1 6 42
M  V30 47 1 9 43
M  V30 48 1 10 44
M  V30 49 1 15 45
M  V30 50 1 16 46
M  V30 51 1 16 47
M  V30 52 1 17 48
M  V30 53 1 17 49
M  V30 54 1 18 50
M  V30 55 1 19 51
M  V30 56 1 19 52
M  V30 57 1 20 53
M  V30 58 1 20 54
M  V30 59 1 24 55
M  V30 60 1 25 56
M  V30 61 1 28 57
M  V30 62 1 29 58
M  V30 63 1 33 59
M  V30 64 1 33 60
M  V30 65 1 33 61
M  V30 END BOND
M  V30 END CTAB
M  END
>  <Dataset>  (603) 
ChEMBL_Kinases

>  <Ligand_Instance>  (603) 
nan

>  <PDB_ID>  (603) 
nan

>  <Standardized_SMILES>  (603) 
CCc1cc(Nc2nccc(-c3sc(C4CCNCC4)nc3-c3ccc(F)cc3)n2)nc(C)c1F

>  <Name>  (603) 
nan

>  <Pocket>  (603) 
nan

>  <ATP_Site>  (603) 
nan

>  <Peripheral>  (603) 
nan

>  <Num_H_Atoms_ProtBoundConf>  (603) 
nan

>  <Num_Resolved_Atoms>  (603) 
nan

>  <Num_Not_Resolved_Atoms>  (603) 
nan

$$$$
CHEMBL4749397
     RDKit          3D

  0  0  0  0  0  0  0  0  0  0999 V3000
M  V30 BEGIN CTAB
M  V30 COUNTS 75 77 0 0 0
M  V30 BEGIN ATOM
M  V30 1 C -2.060621 1.277946 -5.540693 0
M  V30 2 C -2.023027 0.507931 -4.230759 0
M  V30 3 C -3.080245 1.079392 -3.316574 0
M  V30 4 C -2.359852 -0.955162 -4.459744 0
M  V30 5 O -0.756095 0.579236 -3.633172 0
M  V30 6 C 0.370869 0.104068 -4.275748 0
M  V30 7 O 0.181475 -0.384844 -5.406775 0
M  V30 8 C 1.730819 0.177515 -3.640870 0
M  V30 9 C 2.074906 -1.130825 -2.983249 0
M  V30 10 C 1.089708 -1.505359 -1.902042 0 CFG=1
M  V30 11 N 1.477731 -2.773174 -1.316037 0
M  V30 12 C 0.544453 -3.823417 -1.268154 0
M  V30 13 O -0.644036 -3.794470 -1.693461 0
M  V30 14 O 0.731144 -5.088325 -0.752933 0
M  V30 15 C -0.242132 -6.081708 -0.739738 0
M  V30 16 C 0.321344 -7.325450 -0.095618 0
M  V30 17 C -1.486964 -5.695614 0.022884 0
M  V30 18 C -0.702435 -6.475389 -2.130306 0
M  V30 19 C 1.143271 -0.491110 -0.792218 0
M  V30 20 O 0.874389 0.752660 -0.869972 0
M  V30 21 N 1.523808 -0.856040 0.527867 0
M  V30 22 C 1.606128 0.053062 1.661056 0
M  V30 23 C 2.582270 1.163979 1.456484 0
M  V30 24 C 2.626531 2.065308 2.671488 0
M  V30 25 N 1.351066 2.671138 2.976608 0
M  V30 26 C 1.092858 3.859957 2.381638 0
M  V30 27 O 1.936529 4.384856 1.604942 0
M  V30 28 C -0.104826 4.491024 2.635404 0
M  V30 29 C -0.328176 5.713367 2.002190 0
M  V30 30 C -1.537083 6.310730 2.284055 0
M  V30 31 F -1.756406 7.496419 1.671916 0
M  V30 32 C -2.475989 5.771328 3.121141 0
M  V30 33 C -2.232701 4.563112 3.734909 0
M  V30 34 C -1.045231 3.956042 3.470538 0
M  V30 35 N -0.757749 2.783123 4.040096 0
M  V30 36 C -1.444785 2.015368 4.885611 0
M  V30 37 S -2.898641 2.155403 5.582046 0
M  V30 38 N -0.723313 0.927674 5.171557 0
M  V30 39 N 0.426436 1.008440 4.502649 0
M  V30 40 C 0.405140 2.173042 3.792089 0
M  V30 41 H -2.532783 0.630918 -6.321066 0
M  V30 42 H -2.709425 2.173738 -5.439008 0
M  V30 43 H -1.059891 1.578095 -5.873331 0
M  V30 44 H -3.681090 1.853475 -3.829946 0
M  V30 45 H -3.790661 0.306501 -2.950040 0
M  V30 46 H -2.611070 1.549994 -2.415375 0
M  V30 47 H -2.013783 -1.300159 -5.459358 0
M  V30 48 H -1.876464 -1.540021 -3.662027 0
M  V30 49 H -3.460742 -1.105245 -4.459489 0
M  V30 50 H 2.504173 0.345882 -4.433981 0
M  V30 51 H 1.787284 1.055529 -2.990874 0
M  V30 52 H 2.070837 -1.905657 -3.761891 0
M  V30 53 H 3.076136 -1.025187 -2.546872 0
M  V30 54 H 0.058922 -1.511658 -2.251530 0
M  V30 55 H 2.421258 -2.957831 -0.920406 0
M  V30 56 H 1.316328 -7.075875 0.317635 0
M  V30 57 H -0.287954 -7.650604 0.787635 0
M  V30 58 H 0.444701 -8.155577 -0.824824 0
M  V30 59 H -2.246552 -5.219359 -0.624703 0
M  V30 60 H -1.947371 -6.638293 0.390481 0
M  V30 61 H -1.201308 -5.094756 0.889369 0
M  V30 62 H -1.136196 -7.499499 -2.126235 0
M  V30 63 H -1.494701 -5.809637 -2.515637 0
M  V30 64 H 0.126476 -6.461737 -2.857699 0
M  V30 65 H 1.765851 -1.879964 0.686751 0
M  V30 66 H 0.584639 0.510629 1.770676 0
M  V30 67 H 1.838335 -0.493244 2.573328 0
M  V30 68 H 3.601978 0.694522 1.345800 0
M  V30 69 H 2.440730 1.746465 0.538819 0
M  V30 70 H 2.984632 1.467599 3.556363 0
M  V30 71 H 3.375237 2.872970 2.540152 0
M  V30 72 H 0.417532 6.123178 1.348703 0
M  V30 73 H -3.400258 6.334872 3.270793 0
M  V30 74 H -3.021714 4.229547 4.365058 0
M  V30 75 H -0.844611 0.082320 5.760147 0
M  V30 END ATOM
M  V30 BEGIN BOND
M  V30 1 1 1 2
M  V30 2 1 2 3
M  V30 3 1 2 4
M  V30 4 1 2 5
M  V30 5 1 5 6
M  V30 6 2 6 7
M  V30 7 1 6 8
M  V30 8 1 8 9
M  V30 9 1 9 10
M  V30 10 1 10 11
M  V30 11 1 11 12
M  V30 12 2 12 13
M  V30 13 1 12 14
M  V30 14 1 14 15
M  V30 15 1 15 16
M  V30 16 1 15 17
M  V30 17 1 15 18
M  V30 18 1 10 19
M  V30 19 2 19 20
M  V30 20 1 19 21
M  V30 21 1 21 22
M  V30 22 1 22 23
M  V30 23 1 23 24
M  V30 24 1 24 25
M  V30 25 1 25 26
M  V30 26 2 26 27
M  V30 27 1 26 28
M  V30 28 2 28 29
M  V30 29 1 29 30
M  V30 30 1 30 31
M  V30 31 2 30 32
M  V30 32 1 32 33
M  V30 33 2 33 34
M  V30 34 1 34 35
M  V30 35 1 35 36
M  V30 36 2 36 37
M  V30 37 1 36 38
M  V30 38 1 38 39
M  V30 39 2 39 40
M  V30 40 1 40 25
M  V30 41 1 34 28
M  V30 42 1 40 35
M  V30 43 1 1 41
M  V30 44 1 1 42
M  V30 45 1 1 43
M  V30 46 1 3 44
M  V30 47 1 3 45
M  V30 48 1 3 46
M  V30 49 1 4 47
M  V30 50 1 4 48
M  V30 51 1 4 49
M  V30 52 1 8 50
M  V30 53 1 8 51
M  V30 54 1 9 52
M  V30 55 1 9 53
M  V30 56 1 10 54 CFG=3
M  V30 57 1 11 55
M  V30 58 1 16 56
M  V30 59 1 16 57
M  V30 60 1 16 58
M  V30 61 1 17 59
M  V30 62 1 17 60
M  V30 63 1 17 61
M  V30 64 1 18 62
M  V30 65 1 18 63
M  V30 66 1 18 64
M  V30 67 1 21 65
M  V30 68 1 22 66
M  V30 69 1 22 67
M  V30 70 1 23 68
M  V30 71 1 23 69
M  V30 72 1 24 70
M  V30 73 1 24 71
M  V30 74 1 29 72
M  V30 75 1 32 73
M  V30 76 1 33 74
M  V30 77 1 38 75
M  V30 END BOND
M  V30 END CTAB
M  END
>  <Dataset>  (604) 
ChEMBL_Kinases

>  <Ligand_Instance>  (604) 
nan

>  <PDB_ID>  (604) 
nan

>  <Standardized_SMILES>  (604) 
CC(C)(C)OC(=O)CC[C@@H](NC(=O)OC(C)(C)C)C(=O)NCCCn1c(=O)c2cc(F)ccc2n2c(=S)[nH]nc12

>  <Name>  (604) 
nan

>  <Pocket>  (604) 
nan

>  <ATP_Site>  (604) 
nan

>  <Peripheral>  (604) 
nan

>  <Num_H_Atoms_ProtBoundConf>  (604) 
nan

>  <Num_Resolved_Atoms>  (604) 
nan

>  <Num_Not_Resolved_Atoms>  (604) 
nan

$$$$
CHEMBL4450240
     RDKit          3D

  0  0  0  0  0  0  0  0  0  0999 V3000
M  V30 BEGIN CTAB
M  V30 COUNTS 58 62 0 0 0
M  V30 BEGIN ATOM
M  V30 1 C 0.362134 3.199666 0.771595 0
M  V30 2 C 1.098764 1.913775 0.794584 0
M  V30 3 N 2.415408 1.899958 0.525631 0
M  V30 4 C 3.130551 0.762916 0.528494 0
M  V30 5 N 4.521684 0.772755 0.245198 0
M  V30 6 C 5.428184 -0.358139 0.275982 0
M  V30 7 C 6.383973 -0.080204 1.444720 0
M  V30 8 O 6.618713 1.261487 1.636615 0
M  V30 9 C 6.532435 2.035552 0.499649 0
M  V30 10 C 5.155754 2.026364 -0.121357 0
M  V30 11 C 2.462833 -0.405250 0.819427 0
M  V30 12 C 1.102789 -0.419106 1.101045 0
M  V30 13 C 0.382955 0.756973 1.094417 0
M  V30 14 N -1.009929 0.728520 1.401743 0
M  V30 15 C -1.660457 -0.507810 1.666606 0
M  V30 16 N -2.375309 -1.209217 0.781361 0
M  V30 17 C -2.985250 -2.370676 0.994752 0
M  V30 18 N -3.726497 -3.026788 0.001096 0
M  V30 19 C -3.873223 -2.475703 -1.314394 0
M  V30 20 C -4.473291 -1.085841 -1.317509 0
M  V30 21 C -4.635552 -0.744491 -2.807008 0
M  V30 22 O -3.368610 -0.594738 -3.313874 0
M  V30 23 C -2.582301 -1.716242 -3.325376 0
M  V30 24 C -2.560785 -2.454992 -2.009541 0
M  V30 25 C -2.827506 -2.849061 2.276978 0
M  V30 26 C -3.284672 -3.990344 2.896627 0
M  V30 27 C -4.087661 -5.054155 2.371886 0
M  V30 28 N -4.742843 -5.933118 1.961368 0
M  V30 29 C -2.849230 -4.019328 4.216531 0
M  V30 30 N -2.129476 -2.896771 4.395520 0
M  V30 31 C -2.107874 -2.193181 3.253999 0
M  V30 32 N -1.536320 -1.020748 2.911593 0
M  V30 33 H -0.679719 3.070162 0.406847 0
M  V30 34 H 0.339627 3.688922 1.761898 0
M  V30 35 H 0.890158 3.855733 0.045369 0
M  V30 36 H 6.029102 -0.342022 -0.647530 0
M  V30 37 H 4.931022 -1.330365 0.403559 0
M  V30 38 H 5.880406 -0.457048 2.375572 0
M  V30 39 H 7.320841 -0.658175 1.313855 0
M  V30 40 H 6.723775 3.096083 0.824126 0
M  V30 41 H 7.283428 1.778406 -0.274986 0
M  V30 42 H 5.252327 2.013176 -1.237066 0
M  V30 43 H 4.533874 2.871421 0.225896 0
M  V30 44 H 2.953359 -1.364898 0.844029 0
M  V30 45 H 0.606884 -1.351421 1.326227 0
M  V30 46 H -1.591461 1.568932 1.444812 0
M  V30 47 H -4.190131 -3.935629 0.196923 0
M  V30 48 H -4.592479 -3.104300 -1.892518 0
M  V30 49 H -5.450761 -1.048824 -0.839338 0
M  V30 50 H -3.746729 -0.327290 -0.946406 0
M  V30 51 H -5.284311 -1.458228 -3.311721 0
M  V30 52 H -5.081511 0.292491 -2.791705 0
M  V30 53 H -2.843921 -2.423856 -4.168633 0
M  V30 54 H -1.539494 -1.399884 -3.533217 0
M  V30 55 H -1.780225 -2.102171 -1.323170 0
M  V30 56 H -2.313239 -3.524063 -2.264799 0
M  V30 57 H -3.020215 -4.756383 4.977469 0
M  V30 58 H -1.665393 -2.640686 5.313418 0
M  V30 END ATOM
M  V30 BEGIN BOND
M  V30 1 1 1 2
M  V30 2 2 2 3
M  V30 3 1 3 4
M  V30 4 1 4 5
M  V30 5 1 5 6
M  V30 6 1 6 7
M  V30 7 1 7 8
M  V30 8 1 8 9
M  V30 9 1 9 10
M  V30 10 2 4 11
M  V30 11 1 11 12
M  V30 12 2 12 13
M  V30 13 1 13 14
M  V30 14 1 14 15
M  V30 15 2 15 16
M  V30 16 1 16 17
M  V30 17 1 17 18
M  V30 18 1 18 19
M  V30 19 1 19 20
M  V30 20 1 20 21
M  V30 21 1 21 22
M  V30 22 1 22 23
M  V30 23 1 23 24
M  V30 24 2 17 25
M  V30 25 1 25 26
M  V30 26 1 26 27
M  V30 27 3 27 28
M  V30 28 2 26 29
M  V30 29 1 29 30
M  V30 30 1 30 31
M  V30 31 2 31 32
M  V30 32 1 13 2
M  V30 33 1 32 15
M  V30 34 1 10 5
M  V30 35 1 24 19
M  V30 36 1 31 25
M  V30 37 1 1 33
M  V30 38 1 1 34
M  V30 39 1 1 35
M  V30 40 1 6 36
M  V30 41 1 6 37
M  V30 42 1 7 38
M  V30 43 1 7 39
M  V30 44 1 9 40
M  V30 45 1 9 41
M  V30 46 1 10 42
M  V30 47 1 10 43
M  V30 48 1 11 44
M  V30 49 1 12 45
M  V30 50 1 14 46
M  V30 51 1 18 47
M  V30 52 1 19 48
M  V30 53 1 20 49
M  V30 54 1 20 50
M  V30 55 1 21 51
M  V30 56 1 21 52
M  V30 57 1 23 53
M  V30 58 1 23 54
M  V30 59 1 24 55
M  V30 60 1 24 56
M  V30 61 1 29 57
M  V30 62 1 30 58
M  V30 END BOND
M  V30 END CTAB
M  END
>  <Dataset>  (605) 
ChEMBL_Kinases

>  <Ligand_Instance>  (605) 
nan

>  <PDB_ID>  (605) 
nan

>  <Standardized_SMILES>  (605) 
Cc1nc(N2CCOCC2)ccc1Nc1nc(NC2CCOCC2)c2c(C#N)c[nH]c2n1

>  <Name>  (605) 
nan

>  <Pocket>  (605) 
nan

>  <ATP_Site>  (605) 
nan

>  <Peripheral>  (605) 
nan

>  <Num_H_Atoms_ProtBoundConf>  (605) 
nan

>  <Num_Resolved_Atoms>  (605) 
nan

>  <Num_Not_Resolved_Atoms>  (605) 
nan

$$$$
CHEMBL4749011
     RDKit          3D

  0  0  0  0  0  0  0  0  0  0999 V3000
M  V30 BEGIN CTAB
M  V30 COUNTS 41 44 0 0 0
M  V30 BEGIN ATOM
M  V30 1 C 2.163855 -3.805727 5.156130 0
M  V30 2 O 2.104819 -2.785491 4.197451 0
M  V30 3 C 2.381928 -3.089677 2.873124 0
M  V30 4 C 2.341281 -2.132696 1.882473 0
M  V30 5 C 2.601563 -2.348740 0.548067 0
M  V30 6 C 2.539633 -1.285976 -0.447843 0
M  V30 7 C 3.429286 -0.979840 -1.481104 0
M  V30 8 N 2.952527 0.099656 -2.152296 0
M  V30 9 N 1.817805 0.511268 -1.624461 0
M  V30 10 C 0.943331 1.502730 -1.881827 0
M  V30 11 C -0.203832 1.707781 -1.140296 0
M  V30 12 O -1.121985 2.720278 -1.382458 0
M  V30 13 C -0.937850 3.639059 -2.438899 0
M  V30 14 C -0.438295 0.840165 -0.092851 0
M  V30 15 C -1.609641 0.936871 0.775286 0
M  V30 16 C -1.962173 2.205393 1.241773 0
M  V30 17 N -3.067683 2.017352 2.014888 0
M  V30 18 N -3.378992 0.726842 2.027698 0
M  V30 19 C -4.496587 0.096535 2.736403 0
M  V30 20 C -2.509349 0.017822 1.277653 0
M  V30 21 N 0.446884 -0.148435 0.152892 0
M  V30 22 C 1.558887 -0.320448 -0.592262 0
M  V30 23 C 2.931200 -3.645714 0.187155 0
M  V30 24 C 2.964825 -4.583463 1.196403 0
M  V30 25 N 2.707361 -4.354947 2.497129 0
M  V30 26 H 1.295337 -3.653741 5.859326 0
M  V30 27 H 3.097710 -3.811035 5.761224 0
M  V30 28 H 2.039772 -4.796102 4.663393 0
M  V30 29 H 2.075470 -1.132347 2.232548 0
M  V30 30 H 4.337961 -1.549761 -1.667081 0
M  V30 31 H 1.138774 2.180450 -2.710128 0
M  V30 32 H -1.364107 3.281547 -3.410940 0
M  V30 33 H 0.114498 3.950096 -2.553445 0
M  V30 34 H -1.516277 4.558577 -2.131585 0
M  V30 35 H -1.513241 3.180091 1.076559 0
M  V30 36 H -4.796605 -0.842972 2.203910 0
M  V30 37 H -5.361088 0.761511 2.826114 0
M  V30 38 H -4.109914 -0.225696 3.717619 0
M  V30 39 H -2.415117 -1.013198 1.038393 0
M  V30 40 H 3.150496 -3.906160 -0.835324 0
M  V30 41 H 3.220371 -5.617907 0.954269 0
M  V30 END ATOM
M  V30 BEGIN BOND
M  V30 1 1 1 2
M  V30 2 1 2 3
M  V30 3 2 3 4
M  V30 4 1 4 5
M  V30 5 1 5 6
M  V30 6 1 6 7
M  V30 7 2 7 8
M  V30 8 1 8 9
M  V30 9 1 9 10
M  V30 10 2 10 11
M  V30 11 1 11 12
M  V30 12 1 12 13
M  V30 13 1 11 14
M  V30 14 1 14 15
M  V30 15 1 15 16
M  V30 16 2 16 17
M  V30 17 1 17 18
M  V30 18 1 18 19
M  V30 19 1 18 20
M  V30 20 2 14 21
M  V30 21 1 21 22
M  V30 22 2 5 23
M  V30 23 1 23 24
M  V30 24 2 24 25
M  V30 25 1 25 3
M  V30 26 2 22 6
M  V30 27 1 22 9
M  V30 28 2 20 15
M  V30 29 1 1 26
M  V30 30 1 1 27
M  V30 31 1 1 28
M  V30 32 1 4 29
M  V30 33 1 7 30
M  V30 34 1 10 31
M  V30 35 1 13 32
M  V30 36 1 13 33
M  V30 37 1 13 34
M  V30 38 1 16 35
M  V30 39 1 19 36
M  V30 40 1 19 37
M  V30 41 1 19 38
M  V30 42 1 20 39
M  V30 43 1 23 40
M  V30 44 1 24 41
M  V30 END BOND
M  V30 END CTAB
M  END
>  <Dataset>  (606) 
ChEMBL_Kinases

>  <Ligand_Instance>  (606) 
nan

>  <PDB_ID>  (606) 
nan

>  <Standardized_SMILES>  (606) 
COc1cc(-c2cnn3cc(OC)c(-c4cnn(C)c4)nc23)ccn1

>  <Name>  (606) 
nan

>  <Pocket>  (606) 
nan

>  <ATP_Site>  (606) 
nan

>  <Peripheral>  (606) 
nan

>  <Num_H_Atoms_ProtBoundConf>  (606) 
nan

>  <Num_Resolved_Atoms>  (606) 
nan

>  <Num_Not_Resolved_Atoms>  (606) 
nan

$$$$
CHEMBL4451101
     RDKit          3D

  0  0  0  0  0  0  0  0  0  0999 V3000
M  V30 BEGIN CTAB
M  V30 COUNTS 59 63 0 0 0
M  V30 BEGIN ATOM
M  V30 1 C 2.859232 -4.139980 5.088009 0
M  V30 2 C 3.377262 -3.196229 4.050822 0
M  V30 3 C 4.728846 -3.133843 3.825734 0
M  V30 4 C 5.244061 -2.263658 2.865109 0
M  V30 5 C 6.720555 -2.203994 2.628002 0
M  V30 6 C 4.391951 -1.453138 2.128801 0
M  V30 7 C 3.035604 -1.532925 2.372662 0
M  V30 8 C 2.069989 -0.714246 1.641645 0
M  V30 9 N 2.130106 0.645517 1.723403 0
M  V30 10 C 1.147682 1.177662 0.971372 0
M  V30 11 C 0.744506 2.471988 0.690735 0
M  V30 12 C -0.338198 2.727065 -0.146189 0
M  V30 13 C -0.964155 1.612776 -0.662823 0
M  V30 14 N -2.081556 1.728951 -1.531487 0
M  V30 15 C -2.708309 2.945385 -1.998536 0
M  V30 16 C -4.066499 3.055659 -1.348621 0
M  V30 17 N -4.613040 1.778541 -0.979998 0
M  V30 18 C -4.238802 0.708590 -1.871630 0
M  V30 19 C -4.925594 0.855576 -3.196109 0
M  V30 20 C -4.673673 -0.585611 -1.168692 0
M  V30 21 C -2.765609 0.589057 -2.085212 0
M  V30 22 N -0.547437 0.366769 -0.370386 0
M  V30 23 N 0.484830 0.135735 0.427951 0
M  V30 24 C 1.018417 -1.053543 0.813333 0
M  V30 25 C 0.668048 -2.411302 0.505858 0
M  V30 26 C 1.591600 -3.219201 -0.163167 0
M  V30 27 C 1.326519 -4.537193 -0.493856 0
M  V30 28 N 0.160305 -5.088989 -0.179346 0
M  V30 29 C -0.770586 -4.362781 0.465226 0
M  V30 30 C -0.523182 -3.044062 0.803870 0
M  V30 31 C 2.518716 -2.397001 3.327048 0
M  V30 32 H 1.794703 -4.342815 4.974139 0
M  V30 33 H 3.424638 -5.074718 5.116122 0
M  V30 34 H 2.993452 -3.638779 6.081513 0
M  V30 35 H 5.457248 -3.747302 4.373219 0
M  V30 36 H 7.068482 -3.024257 1.987136 0
M  V30 37 H 7.272093 -2.252835 3.600418 0
M  V30 38 H 6.935036 -1.198747 2.226662 0
M  V30 39 H 4.773358 -0.777844 1.385613 0
M  V30 40 H 1.291473 3.285423 1.138135 0
M  V30 41 H -0.651207 3.725829 -0.363847 0
M  V30 42 H -2.874299 2.921643 -3.114452 0
M  V30 43 H -2.076970 3.833957 -1.801700 0
M  V30 44 H -3.928892 3.646573 -0.419854 0
M  V30 45 H -4.761103 3.654859 -1.975151 0
M  V30 46 H -5.665324 1.869647 -1.085953 0
M  V30 47 H -5.598668 1.742901 -3.135645 0
M  V30 48 H -4.170326 1.087853 -3.965516 0
M  V30 49 H -5.504533 -0.059781 -3.458854 0
M  V30 50 H -4.129952 -1.462062 -1.605747 0
M  V30 51 H -5.762992 -0.669804 -1.290265 0
M  V30 52 H -4.448906 -0.572848 -0.101138 0
M  V30 53 H -2.509056 0.576521 -3.171499 0
M  V30 54 H -2.323843 -0.364512 -1.691533 0
M  V30 55 H 2.559053 -2.788664 -0.433499 0
M  V30 56 H 2.044144 -5.162661 -1.012732 0
M  V30 57 H -1.728804 -4.757908 0.743398 0
M  V30 58 H -1.274037 -2.438329 1.330416 0
M  V30 59 H 1.462515 -2.487848 3.546639 0
M  V30 END ATOM
M  V30 BEGIN BOND
M  V30 1 1 1 2
M  V30 2 2 2 3
M  V30 3 1 3 4
M  V30 4 1 4 5
M  V30 5 2 4 6
M  V30 6 1 6 7
M  V30 7 1 7 8
M  V30 8 1 8 9
M  V30 9 2 9 10
M  V30 10 1 10 11
M  V30 11 2 11 12
M  V30 12 1 12 13
M  V30 13 1 13 14
M  V30 14 1 14 15
M  V30 15 1 15 16
M  V30 16 1 16 17
M  V30 17 1 17 18
M  V30 18 1 18 19
M  V30 19 1 18 20
M  V30 20 1 18 21
M  V30 21 2 13 22
M  V30 22 1 22 23
M  V30 23 1 23 24
M  V30 24 1 24 25
M  V30 25 2 25 26
M  V30 26 1 26 27
M  V30 27 2 27 28
M  V30 28 1 28 29
M  V30 29 2 29 30
M  V30 30 2 7 31
M  V30 31 1 31 2
M  V30 32 2 24 8
M  V30 33 1 30 25
M  V30 34 1 23 10
M  V30 35 1 21 14
M  V30 36 1 1 32
M  V30 37 1 1 33
M  V30 38 1 1 34
M  V30 39 1 3 35
M  V30 40 1 5 36
M  V30 41 1 5 37
M  V30 42 1 5 38
M  V30 43 1 6 39
M  V30 44 1 11 40
M  V30 45 1 12 41
M  V30 46 1 15 42
M  V30 47 1 15 43
M  V30 48 1 16 44
M  V30 49 1 16 45
M  V30 50 1 17 46
M  V30 51 1 19 47
M  V30 52 1 19 48
M  V30 53 1 19 49
M  V30 54 1 20 50
M  V30 55 1 20 51
M  V30 56 1 20 52
M  V30 57 1 21 53
M  V30 58 1 21 54
M  V30 59 1 26 55
M  V30 60 1 27 56
M  V30 61 1 29 57
M  V30 62 1 30 58
M  V30 63 1 31 59
M  V30 END BOND
M  V30 END CTAB
M  END
>  <Dataset>  (607) 
ChEMBL_Kinases

>  <Ligand_Instance>  (607) 
nan

>  <PDB_ID>  (607) 
nan

>  <Standardized_SMILES>  (607) 
Cc1cc(C)cc(-c2nc3ccc(N4CCNC(C)(C)C4)nn3c2-c2ccncc2)c1

>  <Name>  (607) 
nan

>  <Pocket>  (607) 
nan

>  <ATP_Site>  (607) 
nan

>  <Peripheral>  (607) 
nan

>  <Num_H_Atoms_ProtBoundConf>  (607) 
nan

>  <Num_Resolved_Atoms>  (607) 
nan

>  <Num_Not_Resolved_Atoms>  (607) 
nan

$$$$
CHEMBL4451092
     RDKit          3D

  0  0  0  0  0  0  0  0  0  0999 V3000
M  V30 BEGIN CTAB
M  V30 COUNTS 39 42 0 0 0
M  V30 BEGIN ATOM
M  V30 1 C 0.596926 -4.868970 1.013031 0
M  V30 2 C 1.306080 -3.883760 1.899685 0
M  V30 3 C 2.173082 -4.363309 2.857831 0
M  V30 4 C 2.855513 -3.521525 3.716057 0
M  V30 5 C 2.637988 -2.146770 3.581686 0
M  V30 6 C 1.765525 -1.632690 2.621475 0
M  V30 7 C 1.099649 -2.525733 1.777811 0
M  V30 8 N 0.205080 -2.050355 0.789256 0
M  V30 9 C -0.224136 -0.754293 0.466921 0
M  V30 10 N 0.510582 0.234526 -0.111021 0
M  V30 11 C -0.052514 1.438874 -0.372834 0
M  V30 12 C 0.682417 2.531333 -0.987809 0
M  V30 13 C 0.041835 3.727725 -1.221443 0
M  V30 14 C 0.615465 4.836524 -1.792399 0
M  V30 15 N 1.903343 4.776076 -2.162586 0
M  V30 16 C 2.581882 3.621333 -1.955716 0
M  V30 17 C 2.002764 2.492394 -1.375339 0
M  V30 18 N -1.340385 1.611798 -0.044532 0
M  V30 19 C -2.136923 0.703971 0.521979 0
M  V30 20 C -3.430924 1.103243 0.769399 0
M  V30 21 N -4.200908 0.148105 1.342050 0
M  V30 22 C -3.734438 -1.089799 1.643370 0
M  V30 23 C -2.410761 -1.463024 1.378298 0
M  V30 24 C -1.568221 -0.544402 0.796851 0
M  V30 25 H -0.482759 -4.896510 1.286342 0
M  V30 26 H 0.667292 -4.584937 -0.053138 0
M  V30 27 H 1.053896 -5.860446 1.133519 0
M  V30 28 H 2.307187 -5.452493 2.921311 0
M  V30 29 H 3.539707 -3.934222 4.471728 0
M  V30 30 H 3.186816 -1.500836 4.267143 0
M  V30 31 H 1.623173 -0.548264 2.546087 0
M  V30 32 H -0.259729 -2.740458 0.136214 0
M  V30 33 H -1.004808 3.811272 -0.933464 0
M  V30 34 H 0.037130 5.756587 -1.946300 0
M  V30 35 H 3.612796 3.553719 -2.245451 0
M  V30 36 H 2.535498 1.563929 -1.206112 0
M  V30 37 H -3.767216 2.087344 0.517433 0
M  V30 38 H -4.351146 -1.848273 2.100376 0
M  V30 39 H -1.989793 -2.428488 1.598403 0
M  V30 END ATOM
M  V30 BEGIN BOND
M  V30 1 1 1 2
M  V30 2 2 2 3
M  V30 3 1 3 4
M  V30 4 2 4 5
M  V30 5 1 5 6
M  V30 6 2 6 7
M  V30 7 1 7 8
M  V30 8 1 8 9
M  V30 9 2 9 10
M  V30 10 1 10 11
M  V30 11 1 11 12
M  V30 12 2 12 13
M  V30 13 1 13 14
M  V30 14 2 14 15
M  V30 15 1 15 16
M  V30 16 2 16 17
M  V30 17 2 11 18
M  V30 18 1 18 19
M  V30 19 2 19 20
M  V30 20 1 20 21
M  V30 21 2 21 22
M  V30 22 1 22 23
M  V30 23 2 23 24
M  V30 24 1 7 2
M  V30 25 1 24 9
M  V30 26 1 17 12
M  V30 27 1 24 19
M  V30 28 1 1 25
M  V30 29 1 1 26
M  V30 30 1 1 27
M  V30 31 1 3 28
M  V30 32 1 4 29
M  V30 33 1 5 30
M  V30 34 1 6 31
M  V30 35 1 8 32
M  V30 36 1 13 33
M  V30 37 1 14 34
M  V30 38 1 16 35
M  V30 39 1 17 36
M  V30 40 1 20 37
M  V30 41 1 22 38
M  V30 42 1 23 39
M  V30 END BOND
M  V30 END CTAB
M  END
>  <Dataset>  (608) 
ChEMBL_Kinases

>  <Ligand_Instance>  (608) 
nan

>  <PDB_ID>  (608) 
nan

>  <Standardized_SMILES>  (608) 
Cc1ccccc1Nc1nc(-c2ccncc2)nc2cnccc12

>  <Name>  (608) 
nan

>  <Pocket>  (608) 
nan

>  <ATP_Site>  (608) 
nan

>  <Peripheral>  (608) 
nan

>  <Num_H_Atoms_ProtBoundConf>  (608) 
nan

>  <Num_Resolved_Atoms>  (608) 
nan

>  <Num_Not_Resolved_Atoms>  (608) 
nan

$$$$
CHEMBL4749061
     RDKit          3D

  0  0  0  0  0  0  0  0  0  0999 V3000
M  V30 BEGIN CTAB
M  V30 COUNTS 48 51 0 0 0
M  V30 BEGIN ATOM
M  V30 1 C 0.093997 -5.884337 2.470873 0
M  V30 2 O 0.413789 -4.661126 1.828125 0
M  V30 3 C -0.000865 -4.375367 0.532885 0
M  V30 4 C 0.383496 -3.147804 0.036264 0
M  V30 5 C 0.024488 -2.754027 -1.251699 0
M  V30 6 C 0.412148 -1.464392 -1.809299 0
M  V30 7 C 0.916583 -1.337238 -3.086687 0
M  V30 8 N 1.151718 -0.025997 -3.233504 0
M  V30 9 N 0.821239 0.625573 -2.133342 0
M  V30 10 C 0.871344 1.926944 -1.799637 0
M  V30 11 C 0.462441 2.404687 -0.557411 0
M  V30 12 O 0.534045 3.747968 -0.264995 0
M  V30 13 C 1.021865 4.645528 -1.222684 0
M  V30 14 C -0.020034 1.483008 0.377542 0
M  V30 15 C -0.439784 2.052520 1.675913 0 CFG=2
M  V30 16 C 0.767007 2.055652 2.591597 0
M  V30 17 O 0.888922 0.670000 2.833796 0
M  V30 18 C -0.389995 0.248893 3.177712 0
M  V30 19 C -0.493173 0.411824 4.683835 0
M  V30 20 C -0.677100 -1.182532 2.860654 0
M  V30 21 C -1.358450 1.132194 2.446273 0
M  V30 22 N -0.049899 0.197062 -0.003534 0
M  V30 23 C 0.352328 -0.224894 -1.208330 0
M  V30 24 C -0.727961 -3.647706 -1.996136 0
M  V30 25 C -1.090453 -4.868228 -1.456346 0
M  V30 26 N -0.737904 -5.240203 -0.208288 0
M  V30 27 H 1.029354 -6.338706 2.822503 0
M  V30 28 H -0.387965 -6.597730 1.760474 0
M  V30 29 H -0.598881 -5.659736 3.319286 0
M  V30 30 H 0.968916 -2.403711 0.558703 0
M  V30 31 H 1.111060 -2.072578 -3.860201 0
M  V30 32 H 1.250001 2.617373 -2.545164 0
M  V30 33 H 1.150032 5.673097 -0.829398 0
M  V30 34 H 0.275520 4.700457 -2.050675 0
M  V30 35 H 1.981501 4.320754 -1.693675 0
M  V30 36 H -0.869678 3.071545 1.566364 0
M  V30 37 H 0.558744 2.562585 3.538135 0
M  V30 38 H 1.608250 2.450874 2.024497 0
M  V30 39 H -1.566233 0.470473 5.004396 0
M  V30 40 H -0.071451 -0.529958 5.136139 0
M  V30 41 H 0.116810 1.243907 5.065630 0
M  V30 42 H -1.237632 -1.680789 3.704944 0
M  V30 43 H 0.254565 -1.798532 2.765320 0
M  V30 44 H -1.313629 -1.332009 1.966968 0
M  V30 45 H -1.867368 1.756785 3.199306 0
M  V30 46 H -2.054461 0.575259 1.794365 0
M  V30 47 H -1.043479 -3.408247 -3.006719 0
M  V30 48 H -1.679745 -5.576327 -2.030049 0
M  V30 END ATOM
M  V30 BEGIN BOND
M  V30 1 1 1 2
M  V30 2 1 2 3
M  V30 3 2 3 4
M  V30 4 1 4 5
M  V30 5 1 5 6
M  V30 6 1 6 7
M  V30 7 2 7 8
M  V30 8 1 8 9
M  V30 9 1 9 10
M  V30 10 2 10 11
M  V30 11 1 11 12
M  V30 12 1 12 13
M  V30 13 1 11 14
M  V30 14 1 14 15
M  V30 15 1 15 16
M  V30 16 1 16 17
M  V30 17 1 17 18
M  V30 18 1 18 19
M  V30 19 1 18 20
M  V30 20 1 18 21
M  V30 21 2 14 22
M  V30 22 1 22 23
M  V30 23 2 5 24
M  V30 24 1 24 25
M  V30 25 2 25 26
M  V30 26 1 26 3
M  V30 27 2 23 6
M  V30 28 1 23 9
M  V30 29 1 21 15
M  V30 30 1 1 27
M  V30 31 1 1 28
M  V30 32 1 1 29
M  V30 33 1 4 30
M  V30 34 1 7 31
M  V30 35 1 10 32
M  V30 36 1 13 33
M  V30 37 1 13 34
M  V30 38 1 13 35
M  V30 39 1 15 36 CFG=3
M  V30 40 1 16 37
M  V30 41 1 16 38
M  V30 42 1 19 39
M  V30 43 1 19 40
M  V30 44 1 19 41
M  V30 45 1 20 42
M  V30 46 1 20 43
M  V30 47 1 20 44
M  V30 48 1 21 45
M  V30 49 1 21 46
M  V30 50 1 24 47
M  V30 51 1 25 48
M  V30 END BOND
M  V30 END CTAB
M  END
>  <Dataset>  (609) 
ChEMBL_Kinases

>  <Ligand_Instance>  (609) 
nan

>  <PDB_ID>  (609) 
nan

>  <Standardized_SMILES>  (609) 
COc1cc(-c2cnn3cc(OC)c([C@@H]4COC(C)(C)C4)nc23)ccn1

>  <Name>  (609) 
nan

>  <Pocket>  (609) 
nan

>  <ATP_Site>  (609) 
nan

>  <Peripheral>  (609) 
nan

>  <Num_H_Atoms_ProtBoundConf>  (609) 
nan

>  <Num_Resolved_Atoms>  (609) 
nan

>  <Num_Not_Resolved_Atoms>  (609) 
nan

$$$$
CHEMBL4749073
     RDKit          3D

  0  0  0  0  0  0  0  0  0  0999 V3000
M  V30 BEGIN CTAB
M  V30 COUNTS 76 81 0 0 0
M  V30 BEGIN ATOM
M  V30 1 C 5.049397 -4.024372 -4.432223 0
M  V30 2 C 4.459273 -4.228347 -3.033430 0
M  V30 3 C 3.708513 -2.963780 -2.703906 0 CFG=2
M  V30 4 C 4.618911 -1.792366 -2.723578 0
M  V30 5 N 5.374916 -1.491176 -3.816451 0
M  V30 6 N 6.101191 -0.416870 -3.554557 0
M  V30 7 C 5.825600 -0.017875 -2.306412 0
M  V30 8 N 4.915010 -0.866419 -1.803500 0
M  V30 9 C 4.212302 -1.000442 -0.586667 0
M  V30 10 C 4.490598 -0.075762 0.381223 0
M  V30 11 N 3.825685 -0.183662 1.565401 0
M  V30 12 C 2.920805 -1.196753 1.737734 0
M  V30 13 N 2.308607 -1.161000 3.020470 0
M  V30 14 C 1.017480 -0.530088 3.153264 0
M  V30 15 C 0.395348 -0.022704 2.009059 0
M  V30 16 C -0.840947 0.586283 1.987565 0
M  V30 17 C -1.512566 0.702822 3.184006 0
M  V30 18 C -2.830515 1.307291 3.290767 0
M  V30 19 O -3.397942 1.453374 4.395448 0
M  V30 20 N -3.528701 1.756041 2.138701 0
M  V30 21 C -4.802582 2.368873 1.950822 0
M  V30 22 C -5.730678 1.512746 1.096640 0
M  V30 23 C -4.971326 1.085655 -0.123700 0
M  V30 24 N -4.400846 2.223425 -0.775920 0
M  V30 25 C -4.703493 2.203872 -2.214523 0
M  V30 26 C -4.828276 3.499239 -0.279299 0
M  V30 27 C -4.664105 3.680856 1.208154 0
M  V30 28 C -0.917943 0.210575 4.323551 0
M  V30 29 C 0.316448 -0.399842 4.360034 0
M  V30 30 O 0.922418 -0.893444 5.479978 0
M  V30 31 C 0.438279 -0.885413 6.788456 0
M  V30 32 N 2.702395 -2.066118 0.739481 0
M  V30 33 C 3.308941 -2.037051 -0.458384 0
M  V30 34 N 2.994552 -3.012443 -1.443771 0
M  V30 35 C 2.001317 -4.031502 -1.271246 0
M  V30 36 C 0.623912 -3.547122 -1.058742 0
M  V30 37 C -0.072537 -3.247529 -2.240232 0
M  V30 38 C -1.394135 -2.793217 -2.207269 0
M  V30 39 C -2.060175 -2.623345 -1.018561 0
M  V30 40 C -1.399088 -2.910586 0.144796 0
M  V30 41 Br -2.196171 -2.733053 1.877843 0
M  V30 42 C -0.108591 -3.353057 0.091720 0
M  V30 43 H 4.375054 -3.360262 -4.990506 0
M  V30 44 H 6.102198 -3.679022 -4.374481 0
M  V30 45 H 5.047384 -4.999458 -4.977277 0
M  V30 46 H 5.229796 -4.503244 -2.304777 0
M  V30 47 H 3.713836 -5.035264 -3.180102 0
M  V30 48 H 2.971084 -2.803522 -3.529876 0
M  V30 49 H 6.201725 0.807045 -1.721042 0
M  V30 50 H 5.217942 0.720335 0.213022 0
M  V30 51 H 2.673258 -1.542872 3.924048 0
M  V30 52 H 0.918137 -0.110529 1.065708 0
M  V30 53 H -1.258505 0.954103 1.062736 0
M  V30 54 H -3.140876 1.677371 1.178059 0
M  V30 55 H -5.350960 2.539356 2.903305 0
M  V30 56 H -6.568800 2.167101 0.801479 0
M  V30 57 H -6.143891 0.661433 1.667137 0
M  V30 58 H -4.230872 0.295364 0.156371 0
M  V30 59 H -5.733712 0.643707 -0.818341 0
M  V30 60 H -4.143708 2.991034 -2.751965 0
M  V30 61 H -4.422171 1.230399 -2.663782 0
M  V30 62 H -5.774687 2.329519 -2.425390 0
M  V30 63 H -5.868802 3.732561 -0.584092 0
M  V30 64 H -4.197356 4.270067 -0.772855 0
M  V30 65 H -5.451433 4.395004 1.539600 0
M  V30 66 H -3.699171 4.163300 1.418167 0
M  V30 67 H -1.410112 0.281227 5.291698 0
M  V30 68 H 0.775844 -1.812618 7.292389 0
M  V30 69 H 0.764448 0.025471 7.337410 0
M  V30 70 H -0.660026 -0.898104 6.774629 0
M  V30 71 H 2.067826 -4.771134 -2.091661 0
M  V30 72 H 2.268305 -4.651718 -0.354723 0
M  V30 73 H 0.385100 -3.355650 -3.225266 0
M  V30 74 H -1.954087 -2.554395 -3.097888 0
M  V30 75 H -3.076188 -2.275878 -0.939216 0
M  V30 76 H 0.434742 -3.596267 0.992191 0
M  V30 END ATOM
M  V30 BEGIN BOND
M  V30 1 1 1 2
M  V30 2 1 2 3
M  V30 3 1 3 4
M  V30 4 2 4 5
M  V30 5 1 5 6
M  V30 6 2 6 7
M  V30 7 1 7 8
M  V30 8 1 8 9
M  V30 9 2 9 10
M  V30 10 1 10 11
M  V30 11 2 11 12
M  V30 12 1 12 13
M  V30 13 1 13 14
M  V30 14 2 14 15
M  V30 15 1 15 16
M  V30 16 2 16 17
M  V30 17 1 17 18
M  V30 18 2 18 19
M  V30 19 1 18 20
M  V30 20 1 20 21
M  V30 21 1 21 22
M  V30 22 1 22 23
M  V30 23 1 23 24
M  V30 24 1 24 25
M  V30 25 1 24 26
M  V30 26 1 26 27
M  V30 27 1 17 28
M  V30 28 2 28 29
M  V30 29 1 29 30
M  V30 30 1 30 31
M  V30 31 1 12 32
M  V30 32 2 32 33
M  V30 33 1 33 34
M  V30 34 1 34 35
M  V30 35 1 35 36
M  V30 36 2 36 37
M  V30 37 1 37 38
M  V30 38 2 38 39
M  V30 39 1 39 40
M  V30 40 1 40 41
M  V30 41 2 40 42
M  V30 42 1 34 3
M  V30 43 1 42 36
M  V30 44 1 8 4
M  V30 45 1 33 9
M  V30 46 1 29 14
M  V30 47 1 27 21
M  V30 48 1 1 43
M  V30 49 1 1 44
M  V30 50 1 1 45
M  V30 51 1 2 46
M  V30 52 1 2 47
M  V30 53 1 3 48 CFG=3
M  V30 54 1 7 49
M  V30 55 1 10 50
M  V30 56 1 13 51
M  V30 57 1 15 52
M  V30 58 1 16 53
M  V30 59 1 20 54
M  V30 60 1 21 55
M  V30 61 1 22 56
M  V30 62 1 22 57
M  V30 63 1 23 58
M  V30 64 1 23 59
M  V30 65 1 25 60
M  V30 66 1 25 61
M  V30 67 1 25 62
M  V30 68 1 26 63
M  V30 69 1 26 64
M  V30 70 1 27 65
M  V30 71 1 27 66
M  V30 72 1 28 67
M  V30 73 1 31 68
M  V30 74 1 31 69
M  V30 75 1 31 70
M  V30 76 1 35 71
M  V30 77 1 35 72
M  V30 78 1 37 73
M  V30 79 1 38 74
M  V30 80 1 39 75
M  V30 81 1 42 76
M  V30 END BOND
M  V30 END CTAB
M  END
>  <Dataset>  (610) 
ChEMBL_Kinases

>  <Ligand_Instance>  (610) 
nan

>  <PDB_ID>  (610) 
nan

>  <Standardized_SMILES>  (610) 
CC[C@@H]1c2nncn2-c2cnc(Nc3ccc(C(=O)NC4CCN(C)CC4)cc3OC)nc2N1Cc1cccc(Br)c1

>  <Name>  (610) 
nan

>  <Pocket>  (610) 
nan

>  <ATP_Site>  (610) 
nan

>  <Peripheral>  (610) 
nan

>  <Num_H_Atoms_ProtBoundConf>  (610) 
nan

>  <Num_Resolved_Atoms>  (610) 
nan

>  <Num_Not_Resolved_Atoms>  (610) 
nan

$$$$
CHEMBL4451071
     RDKit          3D

  0  0  0  0  0  0  0  0  0  0999 V3000
M  V30 BEGIN CTAB
M  V30 COUNTS 38 40 0 0 0
M  V30 BEGIN ATOM
M  V30 1 C -1.706539 -2.189219 1.587803 0
M  V30 2 C -0.753470 -1.830288 2.711390 0
M  V30 3 C -1.088737 -2.749230 3.863937 0
M  V30 4 N 0.587843 -1.986997 2.214240 0
M  V30 5 C 0.992198 -1.218453 1.109800 0
M  V30 6 N 0.157725 -0.349181 0.516259 0
M  V30 7 C 0.481613 0.408176 -0.534153 0
M  V30 8 C -0.495201 1.325623 -1.111754 0
M  V30 9 C -0.165177 2.110642 -2.197870 0
M  V30 10 C -1.025080 2.998880 -2.800697 0
M  V30 11 N -2.248506 3.074193 -2.267746 0
M  V30 12 C -2.604038 2.321412 -1.206403 0
M  V30 13 C -1.762907 1.415861 -0.573789 0
M  V30 14 N 1.713335 0.333723 -1.072080 0
M  V30 15 C 2.637131 -0.510084 -0.553658 0
M  V30 16 C 3.905330 -0.601331 -1.090448 0
M  V30 17 N 4.805588 -1.465117 -0.536707 0
M  V30 18 C 4.458786 -2.219306 0.521627 0
M  V30 19 C 3.189674 -2.121369 1.051051 0
M  V30 20 C 2.242395 -1.265813 0.530802 0
M  V30 21 C -1.038508 -0.444001 3.165629 0
M  V30 22 O -2.212652 -0.224189 3.622141 0
M  V30 23 O -0.334120 0.761006 3.236192 0
M  V30 24 H -2.429971 -2.987976 1.864927 0
M  V30 25 H -1.158404 -2.445493 0.648828 0
M  V30 26 H -2.325006 -1.304914 1.323351 0
M  V30 27 H -0.845792 -3.792344 3.605184 0
M  V30 28 H -0.605511 -2.435155 4.811685 0
M  V30 29 H -2.187693 -2.637732 4.026253 0
M  V30 30 H 1.155577 -2.681543 2.739027 0
M  V30 31 H 0.851725 2.003651 -2.588919 0
M  V30 32 H -0.643540 3.557033 -3.647484 0
M  V30 33 H -3.611531 2.476556 -0.876473 0
M  V30 34 H -2.091015 0.838205 0.268716 0
M  V30 35 H 4.129477 0.040879 -1.955537 0
M  V30 36 H 5.191435 -2.905970 0.953203 0
M  V30 37 H 2.972069 -2.743024 1.888758 0
M  V30 38 H -0.663780 1.621757 2.835093 0
M  V30 END ATOM
M  V30 BEGIN BOND
M  V30 1 1 1 2
M  V30 2 1 2 3
M  V30 3 1 2 4
M  V30 4 1 4 5
M  V30 5 2 5 6
M  V30 6 1 6 7
M  V30 7 1 7 8
M  V30 8 2 8 9
M  V30 9 1 9 10
M  V30 10 2 10 11
M  V30 11 1 11 12
M  V30 12 2 12 13
M  V30 13 2 7 14
M  V30 14 1 14 15
M  V30 15 2 15 16
M  V30 16 1 16 17
M  V30 17 2 17 18
M  V30 18 1 18 19
M  V30 19 2 19 20
M  V30 20 1 2 21
M  V30 21 2 21 22
M  V30 22 1 21 23
M  V30 23 1 20 5
M  V30 24 1 13 8
M  V30 25 1 20 15
M  V30 26 1 1 24
M  V30 27 1 1 25
M  V30 28 1 1 26
M  V30 29 1 3 27
M  V30 30 1 3 28
M  V30 31 1 3 29
M  V30 32 1 4 30
M  V30 33 1 9 31
M  V30 34 1 10 32
M  V30 35 1 12 33
M  V30 36 1 13 34
M  V30 37 1 16 35
M  V30 38 1 18 36
M  V30 39 1 19 37
M  V30 40 1 23 38
M  V30 END BOND
M  V30 END CTAB
M  END
>  <Dataset>  (611) 
ChEMBL_Kinases

>  <Ligand_Instance>  (611) 
nan

>  <PDB_ID>  (611) 
nan

>  <Standardized_SMILES>  (611) 
CC(C)(Nc1nc(-c2ccncc2)nc2cnccc12)C(=O)O

>  <Name>  (611) 
nan

>  <Pocket>  (611) 
nan

>  <ATP_Site>  (611) 
nan

>  <Peripheral>  (611) 
nan

>  <Num_H_Atoms_ProtBoundConf>  (611) 
nan

>  <Num_Resolved_Atoms>  (611) 
nan

>  <Num_Not_Resolved_Atoms>  (611) 
nan

$$$$
CHEMBL4451065
     RDKit          3D

  0  0  0  0  0  0  0  0  0  0999 V3000
M  V30 BEGIN CTAB
M  V30 COUNTS 76 80 0 0 0
M  V30 BEGIN ATOM
M  V30 1 C 5.810416 -1.073652 3.048096 0
M  V30 2 C 4.701973 -1.990848 3.470523 0
M  V30 3 O 3.424013 -1.532501 3.111353 0
M  V30 4 C 3.001961 -1.307580 1.823275 0
M  V30 5 C 3.790261 -1.512180 0.716221 0
M  V30 6 C 3.363028 -1.284434 -0.595569 0
M  V30 7 C 4.363836 -1.554145 -1.659651 0
M  V30 8 C 4.428274 -0.519337 -2.725560 0
M  V30 9 C 4.212060 -1.144482 -4.086099 0
M  V30 10 N 2.888236 -1.741461 -4.050490 0
M  V30 11 C 2.340225 -1.995871 -5.354051 0
M  V30 12 C 2.959919 -2.878426 -3.187263 0
M  V30 13 C 4.145038 -2.915004 -2.270340 0
M  V30 14 C 2.092610 -0.836432 -0.743706 0
M  V30 15 C 1.298029 -0.629532 0.355554 0
M  V30 16 C 1.689814 -0.844805 1.661250 0
M  V30 17 N 0.847546 -0.619816 2.780921 0
M  V30 18 C -0.502200 -0.176494 2.805133 0
M  V30 19 N -1.104049 -0.009163 3.993302 0
M  V30 20 C -2.360557 0.395750 4.182503 0
M  V30 21 C -3.098981 0.663815 3.052835 0
M  V30 22 C -2.544359 0.513174 1.802411 0
M  V30 23 N -1.273120 0.100332 1.745592 0
M  V30 24 N -3.278271 0.777559 0.627054 0
M  V30 25 C -3.001499 0.093606 -0.595332 0
M  V30 26 C -3.191939 -1.363728 -0.572170 0
M  V30 27 C -2.288675 -2.365531 -0.283602 0
M  V30 28 C -2.629329 -3.697831 -0.301642 0
M  V30 29 C -3.907711 -4.098890 -0.613603 0
M  V30 30 C -4.834876 -3.133721 -0.906652 0
M  V30 31 Br -6.597454 -3.723158 -1.334615 0
M  V30 32 C -4.489677 -1.791514 -0.887869 0
M  V30 33 C -4.345281 1.784349 0.721085 0 CFG=2
M  V30 34 C -3.666034 3.118624 0.982981 0
M  V30 35 C -4.656356 4.255775 1.103448 0
M  V30 36 C -5.159892 1.373241 1.901529 0
M  V30 37 O -6.402040 1.250453 1.903354 0
M  V30 38 N -4.436256 1.102981 3.119899 0
M  V30 39 C -5.075380 1.279473 4.417085 0
M  V30 40 H 5.392792 -0.188904 2.484261 0
M  V30 41 H 6.242649 -0.635301 3.996181 0
M  V30 42 H 6.568830 -1.614559 2.474713 0
M  V30 43 H 4.748351 -2.202818 4.577055 0
M  V30 44 H 4.853991 -2.978682 2.950493 0
M  V30 45 H 4.787715 -1.873302 0.909671 0
M  V30 46 H 5.391123 -1.622321 -1.173963 0
M  V30 47 H 3.646478 0.262175 -2.540666 0
M  V30 48 H 5.397575 0.018697 -2.753306 0
M  V30 49 H 4.943061 -1.935782 -4.265844 0
M  V30 50 H 4.203016 -0.375478 -4.886776 0
M  V30 51 H 1.771310 -2.933607 -5.447707 0
M  V30 52 H 3.115291 -1.880458 -6.138556 0
M  V30 53 H 1.609508 -1.162464 -5.560756 0
M  V30 54 H 2.906779 -3.828962 -3.794022 0
M  V30 55 H 2.041521 -2.864649 -2.531529 0
M  V30 56 H 3.856095 -3.590978 -1.414335 0
M  V30 57 H 5.061184 -3.304732 -2.759355 0
M  V30 58 H 1.756171 -0.651195 -1.748913 0
M  V30 59 H 0.310986 -0.271666 0.110351 0
M  V30 60 H 1.291459 -0.809302 3.709046 0
M  V30 61 H -2.776710 0.507250 5.170164 0
M  V30 62 H -3.643053 0.553352 -1.386800 0
M  V30 63 H -1.954505 0.337441 -0.947457 0
M  V30 64 H -1.308923 -2.025347 -0.048720 0
M  V30 65 H -1.835779 -4.372490 -0.058877 0
M  V30 66 H -4.089014 -5.156871 -0.604707 0
M  V30 67 H -5.312414 -1.128522 -1.137648 0
M  V30 68 H -4.962920 1.800735 -0.174755 0
M  V30 69 H -3.055956 3.352650 0.070099 0
M  V30 70 H -3.001937 3.083058 1.852867 0
M  V30 71 H -5.468726 4.003021 1.785438 0
M  V30 72 H -5.022957 4.522204 0.077784 0
M  V30 73 H -4.126264 5.130329 1.481443 0
M  V30 74 H -6.114217 1.616779 4.301152 0
M  V30 75 H -4.441882 1.970096 4.999704 0
M  V30 76 H -5.061325 0.302176 4.954535 0
M  V30 END ATOM
M  V30 BEGIN BOND
M  V30 1 1 1 2
M  V30 2 1 2 3
M  V30 3 1 3 4
M  V30 4 2 4 5
M  V30 5 1 5 6
M  V30 6 1 6 7
M  V30 7 1 7 8
M  V30 8 1 8 9
M  V30 9 1 9 10
M  V30 10 1 10 11
M  V30 11 1 10 12
M  V30 12 1 12 13
M  V30 13 2 6 14
M  V30 14 1 14 15
M  V30 15 2 15 16
M  V30 16 1 16 17
M  V30 17 1 17 18
M  V30 18 2 18 19
M  V30 19 1 19 20
M  V30 20 2 20 21
M  V30 21 1 21 22
M  V30 22 2 22 23
M  V30 23 1 22 24
M  V30 24 1 24 25
M  V30 25 1 25 26
M  V30 26 2 26 27
M  V30 27 1 27 28
M  V30 28 2 28 29
M  V30 29 1 29 30
M  V30 30 1 30 31
M  V30 31 2 30 32
M  V30 32 1 24 33
M  V30 33 1 33 34
M  V30 34 1 34 35
M  V30 35 1 33 36
M  V30 36 2 36 37
M  V30 37 1 36 38
M  V30 38 1 38 39
M  V30 39 1 16 4
M  V30 40 1 23 18
M  V30 41 1 32 26
M  V30 42 1 13 7
M  V30 43 1 38 21
M  V30 44 1 1 40
M  V30 45 1 1 41
M  V30 46 1 1 42
M  V30 47 1 2 43
M  V30 48 1 2 44
M  V30 49 1 5 45
M  V30 50 1 7 46
M  V30 51 1 8 47
M  V30 52 1 8 48
M  V30 53 1 9 49
M  V30 54 1 9 50
M  V30 55 1 11 51
M  V30 56 1 11 52
M  V30 57 1 11 53
M  V30 58 1 12 54
M  V30 59 1 12 55
M  V30 60 1 13 56
M  V30 61 1 13 57
M  V30 62 1 14 58
M  V30 63 1 15 59
M  V30 64 1 17 60
M  V30 65 1 20 61
M  V30 66 1 25 62
M  V30 67 1 25 63
M  V30 68 1 27 64
M  V30 69 1 28 65
M  V30 70 1 29 66
M  V30 71 1 32 67
M  V30 72 1 33 68 CFG=3
M  V30 73 1 34 69
M  V30 74 1 34 70
M  V30 75 1 35 71
M  V30 76 1 35 72
M  V30 77 1 35 73
M  V30 78 1 39 74
M  V30 79 1 39 75
M  V30 80 1 39 76
M  V30 END BOND
M  V30 END CTAB
M  END
>  <Dataset>  (612) 
ChEMBL_Kinases

>  <Ligand_Instance>  (612) 
nan

>  <PDB_ID>  (612) 
nan

>  <Standardized_SMILES>  (612) 
CCOc1cc(C2CCN(C)CC2)ccc1Nc1ncc2c(n1)N(Cc1cccc(Br)c1)[C@H](CC)C(=O)N2C

>  <Name>  (612) 
nan

>  <Pocket>  (612) 
nan

>  <ATP_Site>  (612) 
nan

>  <Peripheral>  (612) 
nan

>  <Num_H_Atoms_ProtBoundConf>  (612) 
nan

>  <Num_Resolved_Atoms>  (612) 
nan

>  <Num_Not_Resolved_Atoms>  (612) 
nan

$$$$
CHEMBL4749078
     RDKit          3D

  0  0  0  0  0  0  0  0  0  0999 V3000
M  V30 BEGIN CTAB
M  V30 COUNTS 36 38 0 0 0
M  V30 BEGIN ATOM
M  V30 1 N -2.036980 -2.661157 3.080452 0
M  V30 2 C -1.014492 -2.081443 2.274050 0
M  V30 3 N 0.219481 -2.652009 2.387450 0
M  V30 4 C 1.245325 -2.145825 1.643140 0
M  V30 5 C 1.029732 -1.076579 0.794030 0
M  V30 6 C 2.165534 -0.567749 0.013693 0
M  V30 7 C 3.135290 -1.470457 -0.380631 0
M  V30 8 C 4.259437 -1.158973 -1.113406 0
M  V30 9 C 4.402308 0.166834 -1.467603 0
M  V30 10 C 5.542589 0.672631 -2.249530 0
M  V30 11 O 5.828568 1.828337 -2.655359 0
M  V30 12 O 6.518512 -0.267473 -2.638676 0
M  V30 13 C 3.464585 1.117165 -1.102034 0
M  V30 14 C 2.353752 0.759824 -0.367968 0
M  V30 15 C -0.208508 -0.487196 0.665805 0
M  V30 16 C -1.256380 -0.999992 1.422503 0
M  V30 17 C -2.619841 -0.471103 1.383912 0
M  V30 18 C -2.851330 0.527847 2.308009 0
M  V30 19 C -4.091926 1.146144 2.414057 0
M  V30 20 C -5.078516 0.710230 1.548953 0
M  V30 21 C -4.880565 -0.295267 0.603854 0
M  V30 22 C -3.629608 -0.880868 0.535665 0
M  V30 23 Cl -3.232631 -2.153978 -0.598790 0
M  V30 24 H -2.353064 -2.519942 4.074603 0
M  V30 25 H -2.402229 -3.306582 2.349014 0
M  V30 26 H 2.197673 -2.623548 1.762715 0
M  V30 27 H 3.017659 -2.507046 -0.099966 0
M  V30 28 H 5.002533 -1.868796 -1.411795 0
M  V30 29 H 6.949488 -0.171925 -3.569192 0
M  V30 30 H 3.576605 2.166225 -1.382020 0
M  V30 31 H 1.589959 1.449498 -0.053039 0
M  V30 32 H -0.404063 0.342540 0.015554 0
M  V30 33 H -2.113067 0.913863 3.016164 0
M  V30 34 H -4.378368 1.919843 3.084725 0
M  V30 35 H -6.078021 1.152078 1.576400 0
M  V30 36 H -5.655775 -0.632023 -0.069752 0
M  V30 END ATOM
M  V30 BEGIN BOND
M  V30 1 1 1 2
M  V30 2 2 2 3
M  V30 3 1 3 4
M  V30 4 2 4 5
M  V30 5 1 5 6
M  V30 6 2 6 7
M  V30 7 1 7 8
M  V30 8 2 8 9
M  V30 9 1 9 10
M  V30 10 2 10 11
M  V30 11 1 10 12
M  V30 12 1 9 13
M  V30 13 2 13 14
M  V30 14 1 5 15
M  V30 15 2 15 16
M  V30 16 1 16 17
M  V30 17 2 17 18
M  V30 18 1 18 19
M  V30 19 2 19 20
M  V30 20 1 20 21
M  V30 21 2 21 22
M  V30 22 1 22 23
M  V30 23 1 16 2
M  V30 24 1 22 17
M  V30 25 1 14 6
M  V30 26 1 1 24
M  V30 27 1 1 25
M  V30 28 1 4 26
M  V30 29 1 7 27
M  V30 30 1 8 28
M  V30 31 1 12 29
M  V30 32 1 13 30
M  V30 33 1 14 31
M  V30 34 1 15 32
M  V30 35 1 18 33
M  V30 36 1 19 34
M  V30 37 1 20 35
M  V30 38 1 21 36
M  V30 END BOND
M  V30 END CTAB
M  END
>  <Dataset>  (613) 
ChEMBL_Kinases

>  <Ligand_Instance>  (613) 
nan

>  <PDB_ID>  (613) 
nan

>  <Standardized_SMILES>  (613) 
Nc1ncc(-c2ccc(C(=O)O)cc2)cc1-c1ccccc1Cl

>  <Name>  (613) 
nan

>  <Pocket>  (613) 
nan

>  <ATP_Site>  (613) 
nan

>  <Peripheral>  (613) 
nan

>  <Num_H_Atoms_ProtBoundConf>  (613) 
nan

>  <Num_Resolved_Atoms>  (613) 
nan

>  <Num_Not_Resolved_Atoms>  (613) 
nan

$$$$
CHEMBL4450968
     RDKit          3D

  0  0  0  0  0  0  0  0  0  0999 V3000
M  V30 BEGIN CTAB
M  V30 COUNTS 39 41 0 0 0
M  V30 BEGIN ATOM
M  V30 1 C 0.600214 -3.143737 3.354825 0
M  V30 2 C 0.490107 -3.639263 1.945243 0
M  V30 3 N 0.182663 -2.573949 0.984623 0
M  V30 4 C 0.141235 -3.221060 -0.335788 0
M  V30 5 C -0.177320 -2.248339 -1.431085 0
M  V30 6 C -0.075158 -1.171897 1.020335 0
M  V30 7 C 0.857337 -0.343339 0.397375 0
M  V30 8 C 0.645170 1.018182 0.426545 0
M  V30 9 C 1.566926 1.958776 -0.197853 0
M  V30 10 C 1.299014 3.309155 -0.134056 0
M  V30 11 C 2.072252 4.315420 -0.673725 0
M  V30 12 N 3.202223 3.938402 -1.328412 0
M  V30 13 C 3.486626 2.620668 -1.404576 0
M  V30 14 C 2.720198 1.615464 -0.869107 0
M  V30 15 N -0.432746 1.535350 1.039473 0
M  V30 16 C -1.345932 0.758599 1.646696 0
M  V30 17 C -2.453108 1.308421 2.271354 0
M  V30 18 N -3.344368 0.482609 2.865234 0
M  V30 19 C -3.195399 -0.869758 2.872772 0
M  V30 20 C -2.099416 -1.441214 2.256506 0
M  V30 21 C -1.172971 -0.628428 1.642936 0
M  V30 22 H -0.328973 -3.487784 3.888314 0
M  V30 23 H 0.722617 -2.048316 3.432144 0
M  V30 24 H 1.444597 -3.594454 3.927798 0
M  V30 25 H -0.260031 -4.466760 1.856482 0
M  V30 26 H 1.476626 -4.125219 1.702344 0
M  V30 27 H -0.610434 -4.040194 -0.343426 0
M  V30 28 H 1.132136 -3.733125 -0.513866 0
M  V30 29 H 0.778641 -1.961659 -1.944108 0
M  V30 30 H -0.731445 -2.820074 -2.233359 0
M  V30 31 H -0.782427 -1.398250 -1.106361 0
M  V30 32 H 1.703150 -0.768608 -0.081681 0
M  V30 33 H 0.404714 3.681531 0.379021 0
M  V30 34 H 1.822251 5.355075 -0.598419 0
M  V30 35 H 4.384413 2.276515 -1.921192 0
M  V30 36 H 2.969021 0.570428 -0.943743 0
M  V30 37 H -2.619197 2.385937 2.293685 0
M  V30 38 H -3.907830 -1.530970 3.347272 0
M  V30 39 H -1.978410 -2.514939 2.255890 0
M  V30 END ATOM
M  V30 BEGIN BOND
M  V30 1 1 1 2
M  V30 2 1 2 3
M  V30 3 1 3 4
M  V30 4 1 4 5
M  V30 5 1 3 6
M  V30 6 2 6 7
M  V30 7 1 7 8
M  V30 8 1 8 9
M  V30 9 2 9 10
M  V30 10 1 10 11
M  V30 11 2 11 12
M  V30 12 1 12 13
M  V30 13 2 13 14
M  V30 14 2 8 15
M  V30 15 1 15 16
M  V30 16 2 16 17
M  V30 17 1 17 18
M  V30 18 2 18 19
M  V30 19 1 19 20
M  V30 20 2 20 21
M  V30 21 1 21 6
M  V30 22 1 14 9
M  V30 23 1 21 16
M  V30 24 1 1 22
M  V30 25 1 1 23
M  V30 26 1 1 24
M  V30 27 1 2 25
M  V30 28 1 2 26
M  V30 29 1 4 27
M  V30 30 1 4 28
M  V30 31 1 5 29
M  V30 32 1 5 30
M  V30 33 1 5 31
M  V30 34 1 7 32
M  V30 35 1 10 33
M  V30 36 1 11 34
M  V30 37 1 13 35
M  V30 38 1 14 36
M  V30 39 1 17 37
M  V30 40 1 19 38
M  V30 41 1 20 39
M  V30 END BOND
M  V30 END CTAB
M  END
>  <Dataset>  (614) 
ChEMBL_Kinases

>  <Ligand_Instance>  (614) 
nan

>  <PDB_ID>  (614) 
nan

>  <Standardized_SMILES>  (614) 
CCN(CC)c1cc(-c2ccncc2)nc2cnccc12

>  <Name>  (614) 
nan

>  <Pocket>  (614) 
nan

>  <ATP_Site>  (614) 
nan

>  <Peripheral>  (614) 
nan

>  <Num_H_Atoms_ProtBoundConf>  (614) 
nan

>  <Num_Resolved_Atoms>  (614) 
nan

>  <Num_Not_Resolved_Atoms>  (614) 
nan

$$$$
CHEMBL4450909
     RDKit          3D

  0  0  0  0  0  0  0  0  0  0999 V3000
M  V30 BEGIN CTAB
M  V30 COUNTS 28 29 0 0 0
M  V30 BEGIN ATOM
M  V30 1 C -2.037991 -1.467802 4.041159 0
M  V30 2 C -0.747716 -0.729399 4.388477 0
M  V30 3 S -0.270331 0.455026 3.153561 0
M  V30 4 C 0.270318 -0.224072 1.640185 0
M  V30 5 C 0.680033 -1.387830 1.192666 0
M  V30 6 C 0.755641 -2.534435 2.119684 0
M  V30 7 C 1.105841 -1.612515 -0.180844 0
M  V30 8 O 1.478219 -2.750851 -0.523037 0
M  V30 9 C 1.113593 -0.552987 -1.176137 0
M  V30 10 C 1.533773 -0.851881 -2.451819 0
M  V30 11 C 1.560094 0.131352 -3.434083 0
M  V30 12 C 1.142210 1.377557 -3.021938 0
M  V30 13 C 0.722812 1.675651 -1.748845 0
M  V30 14 C 0.698305 0.700428 -0.779550 0
M  V30 15 C 0.276086 0.867212 0.627954 0
M  V30 16 O -0.068560 2.080346 0.797461 0
M  V30 17 H -2.852163 -1.072199 4.686828 0
M  V30 18 H -2.264775 -1.291117 2.985748 0
M  V30 19 H -1.930277 -2.554461 4.177132 0
M  V30 20 H 0.033220 -1.502728 4.499870 0
M  V30 21 H -0.829581 -0.278569 5.411499 0
M  V30 22 H 1.207004 -3.429763 1.612882 0
M  V30 23 H -0.170356 -2.874351 2.555649 0
M  V30 24 H 1.501405 -2.327882 2.947278 0
M  V30 25 H 1.861305 -1.847494 -2.760885 0
M  V30 26 H 1.880470 -0.061875 -4.435469 0
M  V30 27 H 1.159482 2.152395 -3.782204 0
M  V30 28 H 0.397544 2.659258 -1.440612 0
M  V30 END ATOM
M  V30 BEGIN BOND
M  V30 1 1 1 2
M  V30 2 1 2 3
M  V30 3 1 3 4
M  V30 4 2 4 5
M  V30 5 1 5 6
M  V30 6 1 5 7
M  V30 7 2 7 8
M  V30 8 1 7 9
M  V30 9 2 9 10
M  V30 10 1 10 11
M  V30 11 2 11 12
M  V30 12 1 12 13
M  V30 13 2 13 14
M  V30 14 1 14 15
M  V30 15 2 15 16
M  V30 16 1 15 4
M  V30 17 1 14 9
M  V30 18 1 1 17
M  V30 19 1 1 18
M  V30 20 1 1 19
M  V30 21 1 2 20
M  V30 22 1 2 21
M  V30 23 1 6 22
M  V30 24 1 6 23
M  V30 25 1 6 24
M  V30 26 1 10 25
M  V30 27 1 11 26
M  V30 28 1 12 27
M  V30 29 1 13 28
M  V30 END BOND
M  V30 END CTAB
M  END
>  <Dataset>  (615) 
ChEMBL_Kinases

>  <Ligand_Instance>  (615) 
nan

>  <PDB_ID>  (615) 
nan

>  <Standardized_SMILES>  (615) 
CCSC1=C(C)C(=O)c2ccccc2C1=O

>  <Name>  (615) 
nan

>  <Pocket>  (615) 
nan

>  <ATP_Site>  (615) 
nan

>  <Peripheral>  (615) 
nan

>  <Num_H_Atoms_ProtBoundConf>  (615) 
nan

>  <Num_Resolved_Atoms>  (615) 
nan

>  <Num_Not_Resolved_Atoms>  (615) 
nan

$$$$
CHEMBL4450891
     RDKit          3D

  0  0  0  0  0  0  0  0  0  0999 V3000
M  V30 BEGIN CTAB
M  V30 COUNTS 61 64 0 0 0
M  V30 BEGIN ATOM
M  V30 1 C 2.930976 2.029175 5.500939 0
M  V30 2 O 1.996189 1.581753 4.550906 0
M  V30 3 C 2.383320 1.068032 3.300723 0
M  V30 4 C 3.673516 0.949837 2.873489 0
M  V30 5 C 4.077311 0.449455 1.658535 0
M  V30 6 C 5.492634 0.350475 1.325706 0
M  V30 7 O 5.632469 -0.365980 0.279253 0
M  V30 8 N 6.658496 0.876926 1.927446 0
M  V30 9 C 6.878939 1.725121 3.100694 0
M  V30 10 C 7.897157 0.485323 1.253247 0
M  V30 11 C 3.062682 0.053782 0.848798 0
M  V30 12 C 1.752131 0.154037 1.240199 0
M  V30 13 C 1.334141 0.650878 2.454856 0
M  V30 14 N -0.038065 0.727852 2.806427 0
M  V30 15 C -1.186670 0.254316 2.110627 0
M  V30 16 N -1.216493 -0.401301 0.916768 0
M  V30 17 C -2.388669 -0.842831 0.363726 0
M  V30 18 O -2.088738 -1.445092 -0.799948 0
M  V30 19 C -2.701164 -2.179947 -1.750970 0 CFG=1
M  V30 20 C -3.371313 -1.382519 -2.876144 0
M  V30 21 C -4.012372 -2.279547 -3.882312 0
M  V30 22 C -3.912063 -3.736204 -3.694239 0 CFG=1
M  V30 23 C -5.157497 -4.345047 -3.064038 0
M  V30 24 O -3.857249 -4.297745 -4.993730 0
M  V30 25 C -2.680638 -4.238525 -3.004295 0
M  V30 26 C -1.783979 -3.125503 -2.512042 0
M  V30 27 C -3.525819 -0.585071 1.080132 0
M  V30 28 C -4.791269 -0.939060 0.694876 0
M  V30 29 C -5.592948 -0.463654 1.735341 0
M  V30 30 N -4.809825 0.129868 2.661114 0
M  V30 31 C -3.525495 0.070635 2.281883 0
M  V30 32 N -2.343390 0.467307 2.752294 0
M  V30 33 H 2.365917 2.527240 6.325401 0
M  V30 34 H 3.410626 1.144571 5.988854 0
M  V30 35 H 3.677607 2.724089 5.114345 0
M  V30 36 H 4.346977 1.313011 3.635360 0
M  V30 37 H 6.252663 2.618734 3.071349 0
M  V30 38 H 7.962876 2.034951 3.112404 0
M  V30 39 H 6.645630 1.154738 4.022103 0
M  V30 40 H 7.704332 0.281140 0.193749 0
M  V30 41 H 8.633127 1.302971 1.316235 0
M  V30 42 H 8.339579 -0.419484 1.764901 0
M  V30 43 H 3.317883 -0.345804 -0.125521 0
M  V30 44 H 1.044746 -0.199950 0.481766 0
M  V30 45 H -0.149009 1.212299 3.724339 0
M  V30 46 H -3.583831 -2.737684 -1.316253 0
M  V30 47 H -2.586384 -0.745719 -3.317927 0
M  V30 48 H -4.095095 -0.687873 -2.374721 0
M  V30 49 H -5.107652 -2.005652 -3.919094 0
M  V30 50 H -3.645009 -1.943876 -4.896561 0
M  V30 51 H -5.807895 -4.859420 -3.827490 0
M  V30 52 H -5.775969 -3.629903 -2.511385 0
M  V30 53 H -4.805215 -5.168590 -2.395018 0
M  V30 54 H -3.677442 -5.283847 -4.839036 0
M  V30 55 H -2.967481 -4.842134 -2.114562 0
M  V30 56 H -2.037068 -4.895661 -3.632381 0
M  V30 57 H -0.989443 -3.563550 -1.905237 0
M  V30 58 H -1.370138 -2.589533 -3.402628 0
M  V30 59 H -5.114813 -1.455940 -0.187719 0
M  V30 60 H -6.665865 -0.575490 1.757729 0
M  V30 61 H -5.137774 0.579004 3.552167 0
M  V30 END ATOM
M  V30 BEGIN BOND
M  V30 1 1 1 2
M  V30 2 1 2 3
M  V30 3 2 3 4
M  V30 4 1 4 5
M  V30 5 1 5 6
M  V30 6 2 6 7
M  V30 7 1 6 8
M  V30 8 1 8 9
M  V30 9 1 8 10
M  V30 10 2 5 11
M  V30 11 1 11 12
M  V30 12 2 12 13
M  V30 13 1 13 14
M  V30 14 1 14 15
M  V30 15 2 15 16
M  V30 16 1 16 17
M  V30 17 1 17 18
M  V30 18 1 18 19
M  V30 19 1 19 20
M  V30 20 1 20 21
M  V30 21 1 21 22
M  V30 22 1 22 23
M  V30 23 1 22 24 CFG=3
M  V30 24 1 22 25
M  V30 25 1 25 26
M  V30 26 2 17 27
M  V30 27 1 27 28
M  V30 28 2 28 29
M  V30 29 1 29 30
M  V30 30 1 30 31
M  V30 31 2 31 32
M  V30 32 1 13 3
M  V30 33 1 32 15
M  V30 34 1 26 19
M  V30 35 1 31 27
M  V30 36 1 1 33
M  V30 37 1 1 34
M  V30 38 1 1 35
M  V30 39 1 4 36
M  V30 40 1 9 37
M  V30 41 1 9 38
M  V30 42 1 9 39
M  V30 43 1 10 40
M  V30 44 1 10 41
M  V30 45 1 10 42
M  V30 46 1 11 43
M  V30 47 1 12 44
M  V30 48 1 14 45
M  V30 49 1 19 46 CFG=1
M  V30 50 1 20 47
M  V30 51 1 20 48
M  V30 52 1 21 49
M  V30 53 1 21 50
M  V30 54 1 23 51
M  V30 55 1 23 52
M  V30 56 1 23 53
M  V30 57 1 24 54
M  V30 58 1 25 55
M  V30 59 1 25 56
M  V30 60 1 26 57
M  V30 61 1 26 58
M  V30 62 1 28 59
M  V30 63 1 29 60
M  V30 64 1 30 61
M  V30 END BOND
M  V30 END CTAB
M  END
>  <Dataset>  (616) 
ChEMBL_Kinases

>  <Ligand_Instance>  (616) 
nan

>  <PDB_ID>  (616) 
nan

>  <Standardized_SMILES>  (616) 
COc1cc(C(=O)N(C)C)ccc1Nc1nc(O[C@H]2CC[C@@](C)(O)CC2)c2cc[nH]c2n1

>  <Name>  (616) 
nan

>  <Pocket>  (616) 
nan

>  <ATP_Site>  (616) 
nan

>  <Peripheral>  (616) 
nan

>  <Num_H_Atoms_ProtBoundConf>  (616) 
nan

>  <Num_Resolved_Atoms>  (616) 
nan

>  <Num_Not_Resolved_Atoms>  (616) 
nan

$$$$
CHEMBL4450479
     RDKit          3D

  0  0  0  0  0  0  0  0  0  0999 V3000
M  V30 BEGIN CTAB
M  V30 COUNTS 52 55 0 0 0
M  V30 BEGIN ATOM
M  V30 1 C -2.586321 -5.137623 3.318757 0
M  V30 2 O -1.249253 -5.518088 3.133102 0
M  V30 3 C -0.319100 -4.716263 2.496890 0
M  V30 4 C -0.624923 -3.482528 2.003085 0
M  V30 5 C 0.335389 -2.712346 1.369980 0
M  V30 6 C 1.632953 -3.129900 1.199338 0
M  V30 7 C 2.559585 -2.348245 0.543372 0
M  V30 8 C 2.177593 -1.027549 0.080380 0
M  V30 9 C 3.304348 -0.006982 0.147889 0
M  V30 10 C 2.943509 1.141634 -0.795347 0
M  V30 11 N 1.498023 1.363758 -0.739826 0
M  V30 12 C 0.865697 2.498622 -0.107325 0
M  V30 13 O 1.725329 3.277731 0.359640 0
M  V30 14 C -0.593180 2.504507 -0.137339 0
M  V30 15 C -1.039836 2.633486 1.163171 0
M  V30 16 C -2.429498 2.641696 1.356062 0
M  V30 17 C -3.372610 2.527333 0.321178 0
M  V30 18 O -4.691697 2.524950 0.434008 0
M  V30 19 C -5.818870 3.234652 0.453518 0
M  V30 20 F -5.819693 4.171254 1.501577 0
M  V30 21 F -6.196224 3.848728 -0.730564 0
M  V30 22 F -6.894972 2.376262 0.777324 0
M  V30 23 C -2.772792 2.404192 -0.933319 0
M  V30 24 C -1.427774 2.387535 -1.211595 0
M  V30 25 C 0.783494 0.271136 -1.417924 0
M  V30 26 C 1.598646 -1.008839 -1.310489 0
M  V30 27 C 3.804246 -2.922421 0.429897 0
M  V30 28 C 4.102298 -4.163171 0.926003 0
M  V30 29 N 3.134482 -4.865086 1.559085 0
M  V30 30 C 1.881167 -4.373763 1.712976 0
M  V30 31 C 0.983419 -5.223721 2.367871 0
M  V30 32 H -3.164467 -5.340960 2.374979 0
M  V30 33 H -3.121931 -5.725147 4.096374 0
M  V30 34 H -2.694795 -4.088065 3.586692 0
M  V30 35 H -1.645343 -3.160037 2.138574 0
M  V30 36 H -0.060000 -1.786643 1.034192 0
M  V30 37 H 1.390605 -0.584569 0.760797 0
M  V30 38 H 3.370660 0.399866 1.161511 0
M  V30 39 H 4.238892 -0.439089 -0.181682 0
M  V30 40 H 3.421885 2.092178 -0.506002 0
M  V30 41 H 3.198494 0.910371 -1.837810 0
M  V30 42 H -0.535106 2.732804 2.110509 0
M  V30 43 H -2.919061 2.743658 2.337043 0
M  V30 44 H -3.455894 2.310719 -1.785576 0
M  V30 45 H -0.963728 2.295097 -2.168870 0
M  V30 46 H 0.585910 0.544156 -2.455119 0
M  V30 47 H -0.187395 0.092867 -0.911844 0
M  V30 48 H 0.955020 -1.880177 -1.516886 0
M  V30 49 H 2.437303 -0.982216 -2.019491 0
M  V30 50 H 4.593969 -2.404051 -0.064217 0
M  V30 51 H 5.104298 -4.590412 0.820834 0
M  V30 52 H 1.321592 -6.207848 2.738308 0
M  V30 END ATOM
M  V30 BEGIN BOND
M  V30 1 1 1 2
M  V30 2 1 2 3
M  V30 3 2 3 4
M  V30 4 1 4 5
M  V30 5 2 5 6
M  V30 6 1 6 7
M  V30 7 1 7 8
M  V30 8 1 8 9
M  V30 9 1 9 10
M  V30 10 1 10 11
M  V30 11 1 11 12
M  V30 12 2 12 13
M  V30 13 1 12 14
M  V30 14 2 14 15
M  V30 15 1 15 16
M  V30 16 2 16 17
M  V30 17 1 17 18
M  V30 18 1 18 19
M  V30 19 1 19 20
M  V30 20 1 19 21
M  V30 21 1 19 22
M  V30 22 1 17 23
M  V30 23 2 23 24
M  V30 24 1 11 25
M  V30 25 1 25 26
M  V30 26 2 7 27
M  V30 27 1 27 28
M  V30 28 2 28 29
M  V30 29 1 29 30
M  V30 30 2 30 31
M  V30 31 1 31 3
M  V30 32 1 30 6
M  V30 33 1 26 8
M  V30 34 1 24 14
M  V30 35 1 1 32
M  V30 36 1 1 33
M  V30 37 1 1 34
M  V30 38 1 4 35
M  V30 39 1 5 36
M  V30 40 1 8 37
M  V30 41 1 9 38
M  V30 42 1 9 39
M  V30 43 1 10 40
M  V30 44 1 10 41
M  V30 45 1 15 42
M  V30 46 1 16 43
M  V30 47 1 23 44
M  V30 48 1 24 45
M  V30 49 1 25 46
M  V30 50 1 25 47
M  V30 51 1 26 48
M  V30 52 1 26 49
M  V30 53 1 27 50
M  V30 54 1 28 51
M  V30 55 1 31 52
M  V30 END BOND
M  V30 END CTAB
M  END
>  <Dataset>  (617) 
ChEMBL_Kinases

>  <Ligand_Instance>  (617) 
nan

>  <PDB_ID>  (617) 
nan

>  <Standardized_SMILES>  (617) 
COc1ccc2c(C3CCN(C(=O)c4ccc(OC(F)(F)F)cc4)CC3)ccnc2c1

>  <Name>  (617) 
nan

>  <Pocket>  (617) 
nan

>  <ATP_Site>  (617) 
nan

>  <Peripheral>  (617) 
nan

>  <Num_H_Atoms_ProtBoundConf>  (617) 
nan

>  <Num_Resolved_Atoms>  (617) 
nan

>  <Num_Not_Resolved_Atoms>  (617) 
nan

$$$$
CHEMBL4450846
     RDKit          3D

  0  0  0  0  0  0  0  0  0  0999 V3000
M  V30 BEGIN CTAB
M  V30 COUNTS 41 43 0 0 0
M  V30 BEGIN ATOM
M  V30 1 C -1.212065 -4.719064 2.480248 0
M  V30 2 C -0.147258 -4.558379 1.391575 0
M  V30 3 C 1.007723 -3.756618 1.947261 0
M  V30 4 C 2.084708 -3.564748 0.935520 0
M  V30 5 C 1.629382 -2.830620 -0.309596 0
M  V30 6 N 1.119904 -1.529503 -0.129285 0
M  V30 7 C 0.608206 -0.222289 0.051932 0
M  V30 8 N 1.175439 0.874507 0.563466 0
M  V30 9 C 0.575634 2.056899 0.673769 0
M  V30 10 C 1.325153 3.162214 1.255250 0
M  V30 11 C 2.620864 3.010814 1.691124 0
M  V30 12 C 3.203475 4.146294 2.220290 0
M  V30 13 N 2.572707 5.340464 2.318289 0
M  V30 14 C 1.295959 5.432782 1.872862 0
M  V30 15 C 0.621037 4.343369 1.322545 0
M  V30 16 N -0.669623 2.091406 0.230001 0
M  V30 17 C -1.376908 1.097816 -0.303588 0
M  V30 18 C -2.672746 1.350995 -0.704371 0
M  V30 19 N -3.346239 0.316358 -1.236579 0
M  V30 20 C -2.788035 -0.908935 -1.373792 0
M  V30 21 C -1.492161 -1.102104 -0.956556 0
M  V30 22 C -0.693470 -0.122779 -0.394270 0
M  V30 23 H -1.686012 -5.733110 2.428322 0
M  V30 24 H -2.038325 -3.964299 2.356124 0
M  V30 25 H -0.780783 -4.619462 3.485104 0
M  V30 26 H -0.615093 -4.072115 0.490737 0
M  V30 27 H 0.235891 -5.568241 1.138796 0
M  V30 28 H 0.631380 -2.807931 2.382792 0
M  V30 29 H 1.412919 -4.350990 2.788695 0
M  V30 30 H 2.975750 -3.052250 1.313448 0
M  V30 31 H 2.384864 -4.574871 0.584887 0
M  V30 32 H 0.807040 -3.449832 -0.815759 0
M  V30 33 H 2.472233 -2.883828 -1.058337 0
M  V30 34 H 2.070583 -1.329454 0.282504 0
M  V30 35 H 3.102261 2.060332 1.605708 0
M  V30 36 H 4.240603 4.002298 2.562924 0
M  V30 37 H 0.761909 6.388812 1.940465 0
M  V30 38 H -0.415844 4.429321 0.964132 0
M  V30 39 H -3.070515 2.348325 -0.572077 0
M  V30 40 H -3.318719 -1.747696 -1.799563 0
M  V30 41 H -1.058990 -2.079942 -1.069917 0
M  V30 END ATOM
M  V30 BEGIN BOND
M  V30 1 1 1 2
M  V30 2 1 2 3
M  V30 3 1 3 4
M  V30 4 1 4 5
M  V30 5 1 5 6
M  V30 6 1 6 7
M  V30 7 2 7 8
M  V30 8 1 8 9
M  V30 9 1 9 10
M  V30 10 2 10 11
M  V30 11 1 11 12
M  V30 12 2 12 13
M  V30 13 1 13 14
M  V30 14 2 14 15
M  V30 15 2 9 16
M  V30 16 1 16 17
M  V30 17 2 17 18
M  V30 18 1 18 19
M  V30 19 2 19 20
M  V30 20 1 20 21
M  V30 21 2 21 22
M  V30 22 1 22 7
M  V30 23 1 15 10
M  V30 24 1 22 17
M  V30 25 1 1 23
M  V30 26 1 1 24
M  V30 27 1 1 25
M  V30 28 1 2 26
M  V30 29 1 2 27
M  V30 30 1 3 28
M  V30 31 1 3 29
M  V30 32 1 4 30
M  V30 33 1 4 31
M  V30 34 1 5 32
M  V30 35 1 5 33
M  V30 36 1 6 34
M  V30 37 1 11 35
M  V30 38 1 12 36
M  V30 39 1 14 37
M  V30 40 1 15 38
M  V30 41 1 18 39
M  V30 42 1 20 40
M  V30 43 1 21 41
M  V30 END BOND
M  V30 END CTAB
M  END
>  <Dataset>  (618) 
ChEMBL_Kinases

>  <Ligand_Instance>  (618) 
nan

>  <PDB_ID>  (618) 
nan

>  <Standardized_SMILES>  (618) 
CCCCCNc1nc(-c2ccncc2)nc2cnccc12

>  <Name>  (618) 
nan

>  <Pocket>  (618) 
nan

>  <ATP_Site>  (618) 
nan

>  <Peripheral>  (618) 
nan

>  <Num_H_Atoms_ProtBoundConf>  (618) 
nan

>  <Num_Resolved_Atoms>  (618) 
nan

>  <Num_Not_Resolved_Atoms>  (618) 
nan

$$$$
CHEMBL4450762
     RDKit          3D

  0  0  0  0  0  0  0  0  0  0999 V3000
M  V30 BEGIN CTAB
M  V30 COUNTS 54 57 0 0 0
M  V30 BEGIN ATOM
M  V30 1 C 2.308331 -6.333159 2.600517 0
M  V30 2 O 2.021123 -5.762346 1.330774 0
M  V30 3 C 1.991388 -4.380176 1.216918 0
M  V30 4 C 2.237581 -3.583546 2.318898 0
M  V30 5 C 2.209090 -2.213242 2.212751 0
M  V30 6 N 2.441117 -1.329851 3.195633 0
M  V30 7 C 2.405766 0.000855 3.005060 0
M  V30 8 N 2.125463 0.461938 1.777710 0
M  V30 9 C 1.874219 -0.355504 0.713998 0
M  V30 10 N 1.537051 0.376968 -0.460814 0
M  V30 11 C 2.316162 1.601380 -0.748668 0
M  V30 12 C 1.407079 2.795378 -0.509804 0
M  V30 13 N 0.038505 2.364425 -0.297725 0
M  V30 14 C -0.655138 2.747702 0.884598 0
M  V30 15 O 0.084339 3.454674 1.612294 0
M  V30 16 C -2.015822 2.219905 0.924677 0
M  V30 17 C -3.134251 2.553720 0.186443 0
M  V30 18 C -4.312925 1.889865 0.428959 0
M  V30 19 C -4.419527 0.901027 1.384033 0
M  V30 20 O -5.627882 0.261119 1.592840 0
M  V30 21 C -6.019575 -0.910129 0.904362 0
M  V30 22 F -7.291388 -1.256899 1.382192 0
M  V30 23 F -5.165446 -1.969010 1.132586 0
M  V30 24 F -6.112633 -0.640761 -0.435013 0
M  V30 25 C -3.299363 0.549776 2.140603 0
M  V30 26 C -2.124242 1.218473 1.891600 0
M  V30 27 C -0.232249 1.585475 -1.494634 0
M  V30 28 C 0.534803 0.279446 -1.535300 0
M  V30 29 C 1.925190 -1.709027 0.965449 0
M  V30 30 C 1.678438 -2.482503 -0.142351 0
M  V30 31 C 1.705405 -3.848957 -0.043882 0
M  V30 32 O 1.466860 -4.674920 -1.117544 0
M  V30 33 C 1.187508 -4.078863 -2.366329 0
M  V30 34 H 3.363077 -6.180101 2.914354 0
M  V30 35 H 1.676900 -5.869384 3.400915 0
M  V30 36 H 2.157656 -7.444662 2.574816 0
M  V30 37 H 2.460947 -3.986488 3.300848 0
M  V30 38 H 2.603736 0.646279 3.848022 0
M  V30 39 H 3.201849 1.629859 -0.091271 0
M  V30 40 H 2.695112 1.583453 -1.788412 0
M  V30 41 H 1.446263 3.500970 -1.361881 0
M  V30 42 H 1.739659 3.356708 0.388862 0
M  V30 43 H -2.921921 3.339621 -0.526297 0
M  V30 44 H -5.146051 2.208024 -0.192772 0
M  V30 45 H -3.447297 -0.223052 2.861837 0
M  V30 46 H -1.319669 0.857043 2.544901 0
M  V30 47 H -0.113953 2.165297 -2.433766 0
M  V30 48 H -1.319620 1.305419 -1.389483 0
M  V30 49 H 1.074330 0.203623 -2.519964 0
M  V30 50 H -0.184178 -0.525873 -1.391459 0
M  V30 51 H 1.468435 -2.086629 -1.120536 0
M  V30 52 H 0.893991 -4.832085 -3.128521 0
M  V30 53 H 0.377620 -3.332146 -2.334088 0
M  V30 54 H 2.099096 -3.572562 -2.798237 0
M  V30 END ATOM
M  V30 BEGIN BOND
M  V30 1 1 1 2
M  V30 2 1 2 3
M  V30 3 2 3 4
M  V30 4 1 4 5
M  V30 5 2 5 6
M  V30 6 1 6 7
M  V30 7 2 7 8
M  V30 8 1 8 9
M  V30 9 1 9 10
M  V30 10 1 10 11
M  V30 11 1 11 12
M  V30 12 1 12 13
M  V30 13 1 13 14
M  V30 14 2 14 15
M  V30 15 1 14 16
M  V30 16 2 16 17
M  V30 17 1 17 18
M  V30 18 2 18 19
M  V30 19 1 19 20
M  V30 20 1 20 21
M  V30 21 1 21 22
M  V30 22 1 21 23
M  V30 23 1 21 24
M  V30 24 1 19 25
M  V30 25 2 25 26
M  V30 26 1 13 27
M  V30 27 1 27 28
M  V30 28 2 9 29
M  V30 29 1 29 30
M  V30 30 2 30 31
M  V30 31 1 31 32
M  V30 32 1 32 33
M  V30 33 1 31 3
M  V30 34 1 29 5
M  V30 35 1 28 10
M  V30 36 1 26 16
M  V30 37 1 1 34
M  V30 38 1 1 35
M  V30 39 1 1 36
M  V30 40 1 4 37
M  V30 41 1 7 38
M  V30 42 1 11 39
M  V30 43 1 11 40
M  V30 44 1 12 41
M  V30 45 1 12 42
M  V30 46 1 17 43
M  V30 47 1 18 44
M  V30 48 1 25 45
M  V30 49 1 26 46
M  V30 50 1 27 47
M  V30 51 1 27 48
M  V30 52 1 28 49
M  V30 53 1 28 50
M  V30 54 1 30 51
M  V30 55 1 33 52
M  V30 56 1 33 53
M  V30 57 1 33 54
M  V30 END BOND
M  V30 END CTAB
M  END
>  <Dataset>  (619) 
ChEMBL_Kinases

>  <Ligand_Instance>  (619) 
nan

>  <PDB_ID>  (619) 
nan

>  <Standardized_SMILES>  (619) 
COc1cc2ncnc(N3CCN(C(=O)c4ccc(OC(F)(F)F)cc4)CC3)c2cc1OC

>  <Name>  (619) 
nan

>  <Pocket>  (619) 
nan

>  <ATP_Site>  (619) 
nan

>  <Peripheral>  (619) 
nan

>  <Num_H_Atoms_ProtBoundConf>  (619) 
nan

>  <Num_Resolved_Atoms>  (619) 
nan

>  <Num_Not_Resolved_Atoms>  (619) 
nan

$$$$
CHEMBL4450745
     RDKit          3D

  0  0  0  0  0  0  0  0  0  0999 V3000
M  V30 BEGIN CTAB
M  V30 COUNTS 49 51 0 0 0
M  V30 BEGIN ATOM
M  V30 1 C 3.327247 -3.781774 3.373968 0
M  V30 2 C 2.021389 -3.068575 2.942451 0
M  V30 3 C 1.355295 -2.720823 4.230888 0
M  V30 4 O 1.324495 -4.030456 2.233092 0
M  V30 5 C 2.454336 -1.951917 2.077350 0
M  V30 6 C 1.434308 -1.064564 1.475758 0
M  V30 7 C 0.595591 -0.348660 2.483744 0
M  V30 8 C 2.229111 0.041094 0.752387 0
M  V30 9 N 0.642062 -1.703667 0.439577 0
M  V30 10 C -0.362597 -1.000391 -0.265673 0
M  V30 11 N -0.608684 0.290583 0.001004 0
M  V30 12 C -1.524960 1.024806 -0.610933 0
M  V30 13 C -1.788490 2.428038 -0.322695 0
M  V30 14 C -1.123158 3.172837 0.604748 0
M  V30 15 C -1.364907 4.498046 0.885689 0
M  V30 16 N -2.344059 5.112607 0.183117 0
M  V30 17 C -3.052545 4.450570 -0.753799 0
M  V30 18 C -2.770380 3.131236 -0.993612 0
M  V30 19 C -3.566354 2.488489 -2.007120 0
M  V30 20 N -4.209536 1.959230 -2.811584 0
M  V30 21 N -2.274524 0.439613 -1.578631 0
M  V30 22 C -2.123258 -0.832140 -1.930964 0
M  V30 23 C -2.856989 -1.473743 -2.905339 0
M  V30 24 N -2.676128 -2.762528 -3.235273 0
M  V30 25 C -1.733163 -3.467065 -2.585527 0
M  V30 26 C -0.978992 -2.857453 -1.603655 0
M  V30 27 C -1.152979 -1.543520 -1.257053 0
M  V30 28 H 3.839869 -4.211817 2.507786 0
M  V30 29 H 3.933677 -2.975128 3.838522 0
M  V30 30 H 3.107477 -4.509253 4.183196 0
M  V30 31 H 1.373532 -3.687004 4.836525 0
M  V30 32 H 0.304857 -2.455666 4.191464 0
M  V30 33 H 2.013786 -2.055138 4.825681 0
M  V30 34 H 1.933607 -4.629827 1.775456 0
M  V30 35 H 3.232974 -1.338825 2.586246 0
M  V30 36 H 3.020387 -2.430185 1.218600 0
M  V30 37 H 1.134796 -0.344927 3.449342 0
M  V30 38 H 0.488103 0.750388 2.236311 0
M  V30 39 H -0.395945 -0.808131 2.647553 0
M  V30 40 H 2.503364 -0.309373 -0.256133 0
M  V30 41 H 3.159285 0.282986 1.301335 0
M  V30 42 H 1.619953 0.959551 0.672915 0
M  V30 43 H 0.892981 -2.700427 0.285530 0
M  V30 44 H -0.336427 2.723979 1.185050 0
M  V30 45 H -0.809891 5.039144 1.628366 0
M  V30 46 H -3.827156 4.989132 -1.289357 0
M  V30 47 H -3.603252 -0.822088 -3.382477 0
M  V30 48 H -1.618999 -4.512009 -2.884971 0
M  V30 49 H -0.246211 -3.492707 -1.133254 0
M  V30 END ATOM
M  V30 BEGIN BOND
M  V30 1 1 1 2
M  V30 2 1 2 3
M  V30 3 1 2 4
M  V30 4 1 2 5
M  V30 5 1 5 6
M  V30 6 1 6 7
M  V30 7 1 6 8
M  V30 8 1 6 9
M  V30 9 1 9 10
M  V30 10 2 10 11
M  V30 11 1 11 12
M  V30 12 1 12 13
M  V30 13 2 13 14
M  V30 14 1 14 15
M  V30 15 2 15 16
M  V30 16 1 16 17
M  V30 17 2 17 18
M  V30 18 1 18 19
M  V30 19 3 19 20
M  V30 20 2 12 21
M  V30 21 1 21 22
M  V30 22 2 22 23
M  V30 23 1 23 24
M  V30 24 2 24 25
M  V30 25 1 25 26
M  V30 26 2 26 27
M  V30 27 1 27 10
M  V30 28 1 18 13
M  V30 29 1 27 22
M  V30 30 1 1 28
M  V30 31 1 1 29
M  V30 32 1 1 30
M  V30 33 1 3 31
M  V30 34 1 3 32
M  V30 35 1 3 33
M  V30 36 1 4 34
M  V30 37 1 5 35
M  V30 38 1 5 36
M  V30 39 1 7 37
M  V30 40 1 7 38
M  V30 41 1 7 39
M  V30 42 1 8 40
M  V30 43 1 8 41
M  V30 44 1 8 42
M  V30 45 1 9 43
M  V30 46 1 14 44
M  V30 47 1 15 45
M  V30 48 1 17 46
M  V30 49 1 23 47
M  V30 50 1 25 48
M  V30 51 1 26 49
M  V30 END BOND
M  V30 END CTAB
M  END
>  <Dataset>  (620) 
ChEMBL_Kinases

>  <Ligand_Instance>  (620) 
nan

>  <PDB_ID>  (620) 
nan

>  <Standardized_SMILES>  (620) 
CC(C)(O)CC(C)(C)Nc1nc(-c2ccncc2C#N)nc2cnccc12

>  <Name>  (620) 
nan

>  <Pocket>  (620) 
nan

>  <ATP_Site>  (620) 
nan

>  <Peripheral>  (620) 
nan

>  <Num_H_Atoms_ProtBoundConf>  (620) 
nan

>  <Num_Resolved_Atoms>  (620) 
nan

>  <Num_Not_Resolved_Atoms>  (620) 
nan

$$$$
CHEMBL4749084
     RDKit          3D

  0  0  0  0  0  0  0  0  0  0999 V3000
M  V30 BEGIN CTAB
M  V30 COUNTS 87 91 0 0 0
M  V30 BEGIN ATOM
M  V30 1 N 3.490910 -0.780285 3.961029 0
M  V30 2 C 4.592670 -1.015485 3.094044 0
M  V30 3 C 4.734478 -1.965716 2.114901 0
M  V30 4 C 3.744093 -2.972997 1.763384 0
M  V30 5 O 2.676750 -2.911398 2.465223 0
M  V30 6 N 3.865304 -3.962114 0.757716 0
M  V30 7 C 2.886316 -4.956567 0.413061 0
M  V30 8 C 1.777384 -4.426425 -0.424985 0
M  V30 9 C 0.596839 -3.861905 0.081440 0
M  V30 10 C -0.383253 -3.398954 -0.772010 0
M  V30 11 C -0.271474 -3.458240 -2.144976 0
M  V30 12 C -1.298265 -2.949437 -3.035631 0
M  V30 13 O -1.338825 -3.278275 -4.249582 0
M  V30 14 N -2.289687 -2.056916 -2.551775 0
M  V30 15 C -3.432606 -1.368705 -3.096660 0 CFG=1
M  V30 16 C -4.618967 -1.580904 -2.211308 0
M  V30 17 C -4.483775 -1.095912 -0.810911 0
M  V30 18 C -5.691591 -1.306392 0.065778 0
M  V30 19 C -6.950656 -0.683667 -0.341740 0
M  V30 20 C -7.469632 0.452432 0.489382 0
M  V30 21 C -6.423083 1.366927 1.047715 0
M  V30 22 C -5.193193 0.658501 1.526910 0
M  V30 23 C -5.315271 -0.847993 1.453572 0
M  V30 24 C -3.160654 0.097939 -3.242999 0
M  V30 25 O -3.868052 1.108890 -3.573494 0
M  V30 26 N -1.818919 0.531286 -2.966844 0
M  V30 27 C -1.008549 1.751651 -2.942795 0
M  V30 28 C -0.261023 1.935487 -1.659828 0
M  V30 29 C 1.123211 1.292776 -1.703146 0
M  V30 30 C 2.046020 1.930484 -2.690129 0
M  V30 31 C 1.181749 2.525971 -3.791078 0
M  V30 32 C -0.000775 1.643141 -4.076072 0
M  V30 33 C 0.876539 -4.006187 -2.664652 0
M  V30 34 C 1.861274 -4.472735 -1.820083 0
M  V30 35 C 5.990745 -1.801240 1.522204 0
M  V30 36 N 6.554599 -0.748667 2.180319 0
M  V30 37 N 5.731220 -0.279219 3.110458 0
M  V30 38 C 5.972401 0.820322 4.007115 0
M  V30 39 C 5.063642 1.877460 3.896701 0
M  V30 40 C 5.121887 3.024772 4.672862 0
M  V30 41 C 6.136647 3.120821 5.604669 0
M  V30 42 C 7.047646 2.080568 5.727099 0
M  V30 43 C 6.987179 0.944695 4.955872 0
M  V30 44 H 3.491472 -1.076183 4.976048 0
M  V30 45 H 2.797017 -0.282642 3.368981 0
M  V30 46 H 4.788391 -3.929770 0.229781 0
M  V30 47 H 2.433479 -5.407217 1.348133 0
M  V30 48 H 3.315456 -5.823250 -0.123208 0
M  V30 49 H 0.477169 -3.813137 1.164274 0
M  V30 50 H -1.238338 -2.992558 -0.273693 0
M  V30 51 H -2.192438 -1.798213 -1.550643 0
M  V30 52 H -3.684328 -1.776255 -4.130138 0
M  V30 53 H -4.830234 -2.683313 -2.263847 0
M  V30 54 H -5.543370 -1.107987 -2.656725 0
M  V30 55 H -4.073799 -0.071702 -0.784774 0
M  V30 56 H -3.689317 -1.727764 -0.311723 0
M  V30 57 H -5.814469 -2.415268 0.135912 0
M  V30 58 H -7.015602 -0.369584 -1.426132 0
M  V30 59 H -7.764920 -1.470782 -0.294625 0
M  V30 60 H -8.172715 1.082765 -0.091084 0
M  V30 61 H -8.078472 0.074196 1.363681 0
M  V30 62 H -6.863363 1.883123 1.925305 0
M  V30 63 H -6.230499 2.170579 0.295015 0
M  V30 64 H -4.339462 1.009229 0.911089 0
M  V30 65 H -4.936370 0.906865 2.581248 0
M  V30 66 H -4.304589 -1.244699 1.663407 0
M  V30 67 H -5.995837 -1.247095 2.228280 0
M  V30 68 H -1.102768 -0.201720 -2.676060 0
M  V30 69 H -1.704570 2.594215 -3.128131 0
M  V30 70 H -0.124096 2.996843 -1.420448 0
M  V30 71 H -0.779888 1.446521 -0.789083 0
M  V30 72 H 1.070808 0.212124 -1.928248 0
M  V30 73 H 1.543121 1.402570 -0.692007 0
M  V30 74 H 2.626767 2.735483 -2.235798 0
M  V30 75 H 2.749206 1.163481 -3.117975 0
M  V30 76 H 0.848276 3.520928 -3.411599 0
M  V30 77 H 1.818376 2.701973 -4.680096 0
M  V30 78 H -0.425671 1.934033 -5.051924 0
M  V30 79 H 0.320712 0.581622 -4.168819 0
M  V30 80 H 1.011405 -4.070722 -3.752373 0
M  V30 81 H 2.741308 -4.898946 -2.284808 0
M  V30 82 H 6.442447 -2.371169 0.717109 0
M  V30 83 H 4.257097 1.845073 3.179591 0
M  V30 84 H 4.396317 3.808529 4.539067 0
M  V30 85 H 6.213227 3.998394 6.233686 0
M  V30 86 H 7.856032 2.122510 6.450660 0
M  V30 87 H 7.646968 0.098449 4.985979 0
M  V30 END ATOM
M  V30 BEGIN BOND
M  V30 1 1 1 2
M  V30 2 2 2 3
M  V30 3 1 3 4
M  V30 4 2 4 5
M  V30 5 1 4 6
M  V30 6 1 6 7
M  V30 7 1 7 8
M  V30 8 2 8 9
M  V30 9 1 9 10
M  V30 10 2 10 11
M  V30 11 1 11 12
M  V30 12 2 12 13
M  V30 13 1 12 14
M  V30 14 1 14 15
M  V30 15 1 15 16
M  V30 16 1 16 17
M  V30 17 1 17 18
M  V30 18 1 18 19
M  V30 19 1 19 20
M  V30 20 1 20 21
M  V30 21 1 21 22
M  V30 22 1 22 23
M  V30 23 1 15 24
M  V30 24 2 24 25
M  V30 25 1 24 26
M  V30 26 1 26 27
M  V30 27 1 27 28
M  V30 28 1 28 29
M  V30 29 1 29 30
M  V30 30 1 30 31
M  V30 31 1 31 32
M  V30 32 1 11 33
M  V30 33 2 33 34
M  V30 34 1 3 35
M  V30 35 2 35 36
M  V30 36 1 36 37
M  V30 37 1 37 38
M  V30 38 2 38 39
M  V30 39 1 39 40
M  V30 40 2 40 41
M  V30 41 1 41 42
M  V30 42 2 42 43
M  V30 43 1 37 2
M  V30 44 1 43 38
M  V30 45 1 34 8
M  V30 46 1 23 18
M  V30 47 1 32 27
M  V30 48 1 1 44
M  V30 49 1 1 45
M  V30 50 1 6 46
M  V30 51 1 7 47
M  V30 52 1 7 48
M  V30 53 1 9 49
M  V30 54 1 10 50
M  V30 55 1 14 51
M  V30 56 1 15 52 CFG=3
M  V30 57 1 16 53
M  V30 58 1 16 54
M  V30 59 1 17 55
M  V30 60 1 17 56
M  V30 61 1 18 57
M  V30 62 1 19 58
M  V30 63 1 19 59
M  V30 64 1 20 60
M  V30 65 1 20 61
M  V30 66 1 21 62
M  V30 67 1 21 63
M  V30 68 1 22 64
M  V30 69 1 22 65
M  V30 70 1 23 66
M  V30 71 1 23 67
M  V30 72 1 26 68
M  V30 73 1 27 69
M  V30 74 1 28 70
M  V30 75 1 28 71
M  V30 76 1 29 72
M  V30 77 1 29 73
M  V30 78 1 30 74
M  V30 79 1 30 75
M  V30 80 1 31 76
M  V30 81 1 31 77
M  V30 82 1 32 78
M  V30 83 1 32 79
M  V30 84 1 33 80
M  V30 85 1 34 81
M  V30 86 1 35 82
M  V30 87 1 39 83
M  V30 88 1 40 84
M  V30 89 1 41 85
M  V30 90 1 42 86
M  V30 91 1 43 87
M  V30 END BOND
M  V30 END CTAB
M  END
>  <Dataset>  (621) 
ChEMBL_Kinases

>  <Ligand_Instance>  (621) 
nan

>  <PDB_ID>  (621) 
nan

>  <Standardized_SMILES>  (621) 
Nc1c(C(=O)NCc2ccc(C(=O)N[C@@H](CCC3CCCCC3)C(=O)NC3CCCCC3)cc2)cnn1-c1ccccc1

>  <Name>  (621) 
nan

>  <Pocket>  (621) 
nan

>  <ATP_Site>  (621) 
nan

>  <Peripheral>  (621) 
nan

>  <Num_H_Atoms_ProtBoundConf>  (621) 
nan

>  <Num_Resolved_Atoms>  (621) 
nan

>  <Num_Not_Resolved_Atoms>  (621) 
nan

$$$$
CHEMBL4450712
     RDKit          3D

  0  0  0  0  0  0  0  0  0  0999 V3000
M  V30 BEGIN CTAB
M  V30 COUNTS 51 54 0 0 0
M  V30 BEGIN ATOM
M  V30 1 C 1.565554 -2.372613 6.150118 0
M  V30 2 O 2.056401 -3.416714 5.303752 0
M  V30 3 C 2.022914 -3.187045 3.938566 0
M  V30 4 C 1.548242 -2.016134 3.385612 0
M  V30 5 C 1.539497 -1.849073 2.016834 0
M  V30 6 C 1.985756 -2.800287 1.122776 0
M  V30 7 C 1.914217 -2.502355 -0.219374 0
M  V30 8 C 1.408407 -1.268142 -0.811115 0
M  V30 9 C 2.560474 -0.305554 -1.041686 0
M  V30 10 C 2.058443 0.952743 -1.752045 0
M  V30 11 N 0.593251 0.886055 -1.634309 0
M  V30 12 C 0.028175 1.813262 -0.704419 0
M  V30 13 O 0.988300 2.469853 -0.227072 0
M  V30 14 C -1.382537 1.964233 -0.376210 0
M  V30 15 C -1.538598 1.841322 0.989234 0
M  V30 16 C -2.822698 1.945390 1.550697 0
M  V30 17 C -3.904944 2.167673 0.723690 0
M  V30 18 O -5.204853 2.291339 1.111816 0
M  V30 19 C -6.194554 1.330190 1.260903 0
M  V30 20 F -7.381676 1.918262 1.682902 0
M  V30 21 F -6.398920 0.546855 0.143043 0
M  V30 22 F -5.803531 0.472463 2.275763 0
M  V30 23 C -3.707597 2.284535 -0.638536 0
M  V30 24 C -2.454125 2.186633 -1.213516 0
M  V30 25 C 0.121827 -0.159217 -2.554797 0
M  V30 26 C 0.766012 -1.475674 -2.189976 0
M  V30 27 N 2.372683 -3.502747 -1.019103 0
M  V30 28 C 2.845255 -4.661502 -0.519615 0
M  V30 29 N 2.905800 -4.934221 0.816245 0
M  V30 30 C 2.460746 -3.971543 1.677257 0
M  V30 31 C 2.476966 -4.155861 3.051279 0
M  V30 32 H 0.513566 -2.143681 5.808268 0
M  V30 33 H 1.538610 -2.677566 7.215793 0
M  V30 34 H 2.156089 -1.451040 5.993416 0
M  V30 35 H 1.196071 -1.270583 4.094984 0
M  V30 36 H 1.158950 -0.919459 1.677428 0
M  V30 37 H 0.588300 -0.783885 -0.231740 0
M  V30 38 H 3.084799 0.006602 -0.143636 0
M  V30 39 H 3.279019 -0.774063 -1.735150 0
M  V30 40 H 2.483971 1.818624 -1.254528 0
M  V30 41 H 2.385344 0.987062 -2.812727 0
M  V30 42 H -0.782513 1.667300 1.757877 0
M  V30 43 H -3.055372 1.865120 2.607568 0
M  V30 44 H -4.506586 2.459592 -1.345570 0
M  V30 45 H -2.179634 2.259303 -2.251152 0
M  V30 46 H -0.966056 -0.255732 -2.357278 0
M  V30 47 H 0.345342 0.130906 -3.605262 0
M  V30 48 H 0.003505 -2.262718 -2.191208 0
M  V30 49 H 1.532705 -1.792298 -2.929186 0
M  V30 50 H 3.181301 -5.382457 -1.251108 0
M  V30 51 H 2.865405 -5.099859 3.379158 0
M  V30 END ATOM
M  V30 BEGIN BOND
M  V30 1 1 1 2
M  V30 2 1 2 3
M  V30 3 2 3 4
M  V30 4 1 4 5
M  V30 5 2 5 6
M  V30 6 1 6 7
M  V30 7 1 7 8
M  V30 8 1 8 9
M  V30 9 1 9 10
M  V30 10 1 10 11
M  V30 11 1 11 12
M  V30 12 2 12 13
M  V30 13 1 12 14
M  V30 14 2 14 15
M  V30 15 1 15 16
M  V30 16 2 16 17
M  V30 17 1 17 18
M  V30 18 1 18 19
M  V30 19 1 19 20
M  V30 20 1 19 21
M  V30 21 1 19 22
M  V30 22 1 17 23
M  V30 23 2 23 24
M  V30 24 1 11 25
M  V30 25 1 25 26
M  V30 26 2 7 27
M  V30 27 1 27 28
M  V30 28 2 28 29
M  V30 29 1 29 30
M  V30 30 2 30 31
M  V30 31 1 31 3
M  V30 32 1 30 6
M  V30 33 1 26 8
M  V30 34 1 24 14
M  V30 35 1 1 32
M  V30 36 1 1 33
M  V30 37 1 1 34
M  V30 38 1 4 35
M  V30 39 1 5 36
M  V30 40 1 8 37
M  V30 41 1 9 38
M  V30 42 1 9 39
M  V30 43 1 10 40
M  V30 44 1 10 41
M  V30 45 1 15 42
M  V30 46 1 16 43
M  V30 47 1 23 44
M  V30 48 1 24 45
M  V30 49 1 25 46
M  V30 50 1 25 47
M  V30 51 1 26 48
M  V30 52 1 26 49
M  V30 53 1 28 50
M  V30 54 1 31 51
M  V30 END BOND
M  V30 END CTAB
M  END
>  <Dataset>  (622) 
ChEMBL_Kinases

>  <Ligand_Instance>  (622) 
nan

>  <PDB_ID>  (622) 
nan

>  <Standardized_SMILES>  (622) 
COc1ccc2c(C3CCN(C(=O)c4ccc(OC(F)(F)F)cc4)CC3)ncnc2c1

>  <Name>  (622) 
nan

>  <Pocket>  (622) 
nan

>  <ATP_Site>  (622) 
nan

>  <Peripheral>  (622) 
nan

>  <Num_H_Atoms_ProtBoundConf>  (622) 
nan

>  <Num_Resolved_Atoms>  (622) 
nan

>  <Num_Not_Resolved_Atoms>  (622) 
nan

$$$$
CHEMBL4450626
     RDKit          3D

  0  0  0  0  0  0  0  0  0  0999 V3000
M  V30 BEGIN CTAB
M  V30 COUNTS 41 44 0 0 0
M  V30 BEGIN ATOM
M  V30 1 N -0.750020 -4.209275 0.746661 0
M  V30 2 C 0.667169 -4.169758 0.904645 0
M  V30 3 N 1.404652 -5.181285 1.443730 0
M  V30 4 C 2.753112 -5.018812 1.538779 0
M  V30 5 C 3.308939 -3.840463 1.085987 0
M  V30 6 C 4.643550 -3.436970 1.072633 0
M  V30 7 C 4.671925 -2.167117 0.514027 0
M  V30 8 N 3.400135 -1.796796 0.192622 0
M  V30 9 C 2.853147 -0.620434 -0.395839 0
M  V30 10 C 3.412499 0.023698 -1.481179 0
M  V30 11 C 2.881112 1.163317 -2.049947 0
M  V30 12 N 1.740686 1.680727 -1.509250 0
M  V30 13 C 1.135492 1.111710 -0.451789 0
M  V30 14 C -0.067678 1.636457 0.137957 0
M  V30 15 C -1.069482 2.077216 0.651097 0
M  V30 16 C -2.280087 2.610614 1.289967 0
M  V30 17 O -2.364103 3.940998 0.999695 0
M  V30 18 C -3.495762 1.799231 0.817506 0
M  V30 19 C -3.090996 0.471567 1.454242 0
M  V30 20 C -2.900052 0.897493 2.883538 0
M  V30 21 C -2.287594 2.280716 2.768682 0
M  V30 22 C 1.701666 -0.032087 0.089887 0
M  V30 23 C 2.548858 -2.808146 0.534902 0
M  V30 24 N 1.221021 -3.032034 0.469593 0
M  V30 25 H -1.630615 -4.013850 1.270857 0
M  V30 26 H -0.875464 -4.552849 -0.229459 0
M  V30 27 H 3.347500 -5.819086 1.966634 0
M  V30 28 H 5.527168 -3.966751 1.416560 0
M  V30 29 H 5.500487 -1.498022 0.320438 0
M  V30 30 H 4.317030 -0.375120 -1.920601 0
M  V30 31 H 3.343058 1.653420 -2.908060 0
M  V30 32 H -3.159349 4.319175 1.441141 0
M  V30 33 H -3.543216 1.726201 -0.284166 0
M  V30 34 H -4.389524 2.224367 1.293775 0
M  V30 35 H -2.085790 0.247029 1.002808 0
M  V30 36 H -3.828709 -0.326380 1.298331 0
M  V30 37 H -2.244612 0.205508 3.450588 0
M  V30 38 H -3.927260 0.993836 3.340451 0
M  V30 39 H -1.216550 2.197361 3.074188 0
M  V30 40 H -2.853261 3.028016 3.362636 0
M  V30 41 H 1.233753 -0.519472 0.950815 0
M  V30 END ATOM
M  V30 BEGIN BOND
M  V30 1 1 1 2
M  V30 2 2 2 3
M  V30 3 1 3 4
M  V30 4 2 4 5
M  V30 5 1 5 6
M  V30 6 2 6 7
M  V30 7 1 7 8
M  V30 8 1 8 9
M  V30 9 2 9 10
M  V30 10 1 10 11
M  V30 11 2 11 12
M  V30 12 1 12 13
M  V30 13 1 13 14
M  V30 14 3 14 15
M  V30 15 1 15 16
M  V30 16 1 16 17
M  V30 17 1 16 18
M  V30 18 1 18 19
M  V30 19 1 19 20
M  V30 20 1 20 21
M  V30 21 2 13 22
M  V30 22 1 8 23
M  V30 23 2 23 24
M  V30 24 1 24 2
M  V30 25 1 23 5
M  V30 26 1 22 9
M  V30 27 1 21 16
M  V30 28 1 1 25
M  V30 29 1 1 26
M  V30 30 1 4 27
M  V30 31 1 6 28
M  V30 32 1 7 29
M  V30 33 1 10 30
M  V30 34 1 11 31
M  V30 35 1 17 32
M  V30 36 1 18 33
M  V30 37 1 18 34
M  V30 38 1 19 35
M  V30 39 1 19 36
M  V30 40 1 20 37
M  V30 41 1 20 38
M  V30 42 1 21 39
M  V30 43 1 21 40
M  V30 44 1 22 41
M  V30 END BOND
M  V30 END CTAB
M  END
>  <Dataset>  (623) 
ChEMBL_Kinases

>  <Ligand_Instance>  (623) 
nan

>  <PDB_ID>  (623) 
nan

>  <Standardized_SMILES>  (623) 
Nc1ncc2ccn(-c3ccnc(C#CC4(O)CCCC4)c3)c2n1

>  <Name>  (623) 
nan

>  <Pocket>  (623) 
nan

>  <ATP_Site>  (623) 
nan

>  <Peripheral>  (623) 
nan

>  <Num_H_Atoms_ProtBoundConf>  (623) 
nan

>  <Num_Resolved_Atoms>  (623) 
nan

>  <Num_Not_Resolved_Atoms>  (623) 
nan

$$$$
CHEMBL4749141
     RDKit          3D

  0  0  0  0  0  0  0  0  0  0999 V3000
M  V30 BEGIN CTAB
M  V30 COUNTS 47 50 0 0 0
M  V30 BEGIN ATOM
M  V30 1 N 0.929764 -5.872353 2.584729 0
M  V30 2 C 1.106302 -4.500381 2.160651 0
M  V30 3 N 2.362005 -4.148126 2.570312 0
M  V30 4 C 2.822106 -2.914154 2.317980 0
M  V30 5 C 1.973205 -2.070414 1.646866 0
M  V30 6 C 2.303147 -0.636702 1.266045 0
M  V30 7 C 3.438493 0.058320 1.499947 0
M  V30 8 N 3.437912 1.293612 1.049685 0
M  V30 9 C 2.658159 1.884071 0.500033 0
M  V30 10 C 2.271214 3.196663 -0.144074 0
M  V30 11 C 2.066972 2.909840 -1.599161 0
M  V30 12 C 0.890474 3.643343 -2.162510 0
M  V30 13 N -0.290826 3.235094 -1.446551 0
M  V30 14 C -0.241321 3.459542 -0.051456 0
M  V30 15 C 1.069074 3.771298 0.556693 0
M  V30 16 S 1.290123 0.570216 0.391735 0
M  V30 17 C 0.707401 -2.402565 1.225431 0
M  V30 18 C 0.219928 -3.646394 1.469876 0
M  V30 19 O -0.895259 -4.392082 1.263246 0
M  V30 20 C -2.060584 -4.001230 0.627010 0
M  V30 21 C -2.806799 -2.886209 1.208320 0
M  V30 22 C -2.868567 -1.526468 0.986392 0
M  V30 23 C -3.676680 -0.708822 1.728272 0
M  V30 24 N -4.461618 -1.166767 2.717062 0
M  V30 25 C -4.445716 -2.497127 2.983913 0
M  V30 26 C -3.629416 -3.337659 2.238033 0
M  V30 27 H 0.463186 -5.829490 3.524798 0
M  V30 28 H 1.282495 -6.599489 1.908260 0
M  V30 29 H 3.762837 -2.439690 2.548214 0
M  V30 30 H 4.272204 -0.425613 2.033940 0
M  V30 31 H 3.147443 3.843505 -0.001672 0
M  V30 32 H 1.957803 1.825319 -1.807790 0
M  V30 33 H 2.956882 3.254497 -2.165168 0
M  V30 34 H 0.755655 3.348949 -3.226834 0
M  V30 35 H 1.014220 4.722319 -2.039498 0
M  V30 36 H -0.670909 2.313835 -1.739816 0
M  V30 37 H -0.983038 4.278282 0.176624 0
M  V30 38 H -0.669682 2.563393 0.475343 0
M  V30 39 H 1.115151 3.442806 1.627041 0
M  V30 40 H 1.212512 4.871758 0.574699 0
M  V30 41 H -0.017852 -1.835260 0.702956 0
M  V30 42 H -1.791894 -3.655977 -0.425274 0
M  V30 43 H -2.744034 -4.865147 0.421524 0
M  V30 44 H -2.214974 -1.245129 0.168525 0
M  V30 45 H -3.583538 0.328089 1.400491 0
M  V30 46 H -5.094994 -2.786460 3.782312 0
M  V30 47 H -3.748877 -4.369312 2.594441 0
M  V30 END ATOM
M  V30 BEGIN BOND
M  V30 1 1 1 2
M  V30 2 2 2 3
M  V30 3 1 3 4
M  V30 4 2 4 5
M  V30 5 1 5 6
M  V30 6 2 6 7
M  V30 7 1 7 8
M  V30 8 2 8 9
M  V30 9 1 9 10
M  V30 10 1 10 11
M  V30 11 1 11 12
M  V30 12 1 12 13
M  V30 13 1 13 14
M  V30 14 1 14 15
M  V30 15 1 9 16
M  V30 16 1 5 17
M  V30 17 2 17 18
M  V30 18 1 18 19
M  V30 19 1 19 20
M  V30 20 1 20 21
M  V30 21 2 21 22
M  V30 22 1 22 23
M  V30 23 2 23 24
M  V30 24 1 24 25
M  V30 25 2 25 26
M  V30 26 1 18 2
M  V30 27 1 26 21
M  V30 28 1 16 6
M  V30 29 1 15 10
M  V30 30 1 1 27
M  V30 31 1 1 28
M  V30 32 1 4 29
M  V30 33 1 7 30
M  V30 34 1 10 31
M  V30 35 1 11 32
M  V30 36 1 11 33
M  V30 37 1 12 34
M  V30 38 1 12 35
M  V30 39 1 13 36
M  V30 40 1 14 37
M  V30 41 1 14 38
M  V30 42 1 15 39
M  V30 43 1 15 40
M  V30 44 1 17 41
M  V30 45 1 20 42
M  V30 46 1 20 43
M  V30 47 1 22 44
M  V30 48 1 23 45
M  V30 49 1 25 46
M  V30 50 1 26 47
M  V30 END BOND
M  V30 END CTAB
M  END
>  <Dataset>  (624) 
ChEMBL_Kinases

>  <Ligand_Instance>  (624) 
nan

>  <PDB_ID>  (624) 
nan

>  <Standardized_SMILES>  (624) 
Nc1ncc(-c2cnc(C3CCNCC3)s2)cc1OCc1ccncc1

>  <Name>  (624) 
nan

>  <Pocket>  (624) 
nan

>  <ATP_Site>  (624) 
nan

>  <Peripheral>  (624) 
nan

>  <Num_H_Atoms_ProtBoundConf>  (624) 
nan

>  <Num_Resolved_Atoms>  (624) 
nan

>  <Num_Not_Resolved_Atoms>  (624) 
nan

$$$$
CHEMBL4450593
     RDKit          3D

  0  0  0  0  0  0  0  0  0  0999 V3000
M  V30 BEGIN CTAB
M  V30 COUNTS 45 48 0 0 0
M  V30 BEGIN ATOM
M  V30 1 C 0.295009 -3.962214 1.641585 0
M  V30 2 C 1.452895 -3.015993 1.573377 0
M  V30 3 C 2.739188 -3.461585 1.336847 0
M  V30 4 C 3.725843 -2.481230 1.297481 0
M  V30 5 C 3.444018 -1.165013 1.480242 0
M  V30 6 N 4.442486 -0.123945 1.445679 0
M  V30 7 C 4.546322 0.330850 0.104598 0
M  V30 8 O 3.778819 -0.243462 -0.740845 0
M  V30 9 C 5.475445 1.414537 -0.371182 0
M  V30 10 C 4.854211 2.386172 -1.401999 0
M  V30 11 C 5.899787 1.405134 -1.783632 0
M  V30 12 C 2.135596 -0.730894 1.718785 0
M  V30 13 C 1.158464 -1.679882 1.760124 0
M  V30 14 N -0.179803 -1.232056 2.004516 0
M  V30 15 C -0.819854 -0.940866 0.769520 0
M  V30 16 O -0.128029 -1.121848 -0.243664 0
M  V30 17 C -2.191753 -0.460229 0.641496 0
M  V30 18 C -2.637230 -0.233144 -0.645565 0
M  V30 19 C -3.938865 0.223716 -0.781914 0
M  V30 20 C -4.804889 0.462378 0.272591 0
M  V30 21 C -4.312733 0.219434 1.555274 0
M  V30 22 C -3.017223 -0.236039 1.704412 0
M  V30 23 C -5.440438 0.555867 2.478207 0
M  V30 24 C -6.646599 0.520441 1.576202 0
M  V30 25 O -6.120798 0.914581 0.304291 0
M  V30 26 H -0.499853 -3.740427 0.930008 0
M  V30 27 H 0.692413 -4.988078 1.393900 0
M  V30 28 H -0.057987 -4.054112 2.708268 0
M  V30 29 H 2.950724 -4.496279 1.194636 0
M  V30 30 H 4.751963 -2.734385 1.119787 0
M  V30 31 H 5.080725 0.353572 2.149026 0
M  V30 32 H 6.130068 1.897434 0.376641 0
M  V30 33 H 3.778253 2.194715 -1.661180 0
M  V30 34 H 5.052093 3.462022 -1.278950 0
M  V30 35 H 6.878008 1.799939 -2.103940 0
M  V30 36 H 5.527220 0.585473 -2.459621 0
M  V30 37 H 1.925272 0.322640 1.862828 0
M  V30 38 H -0.738963 -1.089985 2.897220 0
M  V30 39 H -2.051748 -0.383253 -1.555600 0
M  V30 40 H -4.306875 0.407784 -1.783356 0
M  V30 41 H -2.654996 -0.417643 2.697313 0
M  V30 42 H -5.565786 -0.163084 3.294554 0
M  V30 43 H -5.301154 1.595621 2.841520 0
M  V30 44 H -7.412604 1.254486 1.882306 0
M  V30 45 H -7.057811 -0.524153 1.518363 0
M  V30 END ATOM
M  V30 BEGIN BOND
M  V30 1 1 1 2
M  V30 2 2 2 3
M  V30 3 1 3 4
M  V30 4 2 4 5
M  V30 5 1 5 6
M  V30 6 1 6 7
M  V30 7 2 7 8
M  V30 8 1 7 9
M  V30 9 1 9 10
M  V30 10 1 10 11
M  V30 11 1 5 12
M  V30 12 2 12 13
M  V30 13 1 13 14
M  V30 14 1 14 15
M  V30 15 2 15 16
M  V30 16 1 15 17
M  V30 17 2 17 18
M  V30 18 1 18 19
M  V30 19 2 19 20
M  V30 20 1 20 21
M  V30 21 2 21 22
M  V30 22 1 21 23
M  V30 23 1 23 24
M  V30 24 1 24 25
M  V30 25 1 13 2
M  V30 26 1 22 17
M  V30 27 1 11 9
M  V30 28 1 25 20
M  V30 29 1 1 26
M  V30 30 1 1 27
M  V30 31 1 1 28
M  V30 32 1 3 29
M  V30 33 1 4 30
M  V30 34 1 6 31
M  V30 35 1 9 32
M  V30 36 1 10 33
M  V30 37 1 10 34
M  V30 38 1 11 35
M  V30 39 1 11 36
M  V30 40 1 12 37
M  V30 41 1 14 38
M  V30 42 1 18 39
M  V30 43 1 19 40
M  V30 44 1 22 41
M  V30 45 1 23 42
M  V30 46 1 23 43
M  V30 47 1 24 44
M  V30 48 1 24 45
M  V30 END BOND
M  V30 END CTAB
M  END
>  <Dataset>  (625) 
ChEMBL_Kinases

>  <Ligand_Instance>  (625) 
nan

>  <PDB_ID>  (625) 
nan

>  <Standardized_SMILES>  (625) 
Cc1ccc(NC(=O)C2CC2)cc1NC(=O)c1ccc2c(c1)CCO2

>  <Name>  (625) 
nan

>  <Pocket>  (625) 
nan

>  <ATP_Site>  (625) 
nan

>  <Peripheral>  (625) 
nan

>  <Num_H_Atoms_ProtBoundConf>  (625) 
nan

>  <Num_Resolved_Atoms>  (625) 
nan

>  <Num_Not_Resolved_Atoms>  (625) 
nan

$$$$
CHEMBL4749175
     RDKit          3D

  0  0  0  0  0  0  0  0  0  0999 V3000
M  V30 BEGIN CTAB
M  V30 COUNTS 58 61 0 0 0
M  V30 BEGIN ATOM
M  V30 1 C 4.375633 -1.406701 7.175945 0
M  V30 2 C 3.923292 -0.176160 6.492793 0
M  V30 3 O 3.905197 1.058768 6.775716 0
M  V30 4 N 3.370518 -0.408534 5.203677 0
M  V30 5 C 2.840675 0.563986 4.280777 0 CFG=2
M  V30 6 C 1.400448 0.344573 3.949123 0
M  V30 7 C 0.893219 1.510108 3.145273 0
M  V30 8 C 1.976419 2.403087 2.630699 0
M  V30 9 C 3.070329 1.567657 2.028368 0 CFG=2
M  V30 10 C 2.500646 0.818084 0.859948 0
M  V30 11 O 2.490520 -0.455087 0.799281 0
M  V30 12 N 1.917972 1.416703 -0.291890 0
M  V30 13 C 1.493956 0.384098 -1.176547 0
M  V30 14 C 0.205238 -0.150366 -1.084480 0
M  V30 15 C -0.333216 -1.149662 -1.874668 0
M  V30 16 C -1.695550 -1.592979 -1.627976 0
M  V30 17 C -1.961421 -1.890505 -0.282352 0
M  V30 18 N -3.262966 -2.274840 -0.163848 0
M  V30 19 C -3.744706 -2.201520 -1.418960 0
M  V30 20 N -2.804477 -1.788661 -2.318777 0
M  V30 21 C -3.336639 -1.703236 -3.635505 0
M  V30 22 C -4.636888 -2.477940 -3.557094 0
M  V30 23 C -5.735035 -1.756274 -4.336678 0
M  V30 24 C -4.470034 -3.871018 -4.099105 0
M  V30 25 C -5.031362 -2.446419 -2.108436 0
M  V30 26 C 0.569512 -1.596462 -2.814784 0
M  V30 27 Cl 0.060162 -2.880764 -3.882867 0
M  V30 28 C 1.844545 -1.102703 -2.943756 0
M  V30 29 N 2.277850 -0.134726 -2.133616 0
M  V30 30 C 3.633796 0.565918 2.982392 0
M  V30 31 H 4.558703 -1.223561 8.271615 0
M  V30 32 H 3.577911 -2.170531 7.068937 0
M  V30 33 H 5.325866 -1.807937 6.771922 0
M  V30 34 H 3.230373 -1.284138 4.663134 0
M  V30 35 H 2.945050 1.553343 4.772022 0
M  V30 36 H 0.747922 0.249213 4.826022 0
M  V30 37 H 1.353477 -0.570576 3.302392 0
M  V30 38 H 0.164088 2.150741 3.699905 0
M  V30 39 H 0.319926 1.162973 2.236435 0
M  V30 40 H 2.333549 3.145149 3.351709 0
M  V30 41 H 1.534795 3.009120 1.789491 0
M  V30 42 H 3.875358 2.241369 1.659085 0
M  V30 43 H 1.891546 2.479776 -0.311337 0
M  V30 44 H -0.404958 0.290253 -0.300137 0
M  V30 45 H -1.376570 -1.879506 0.640038 0
M  V30 46 H -3.583877 -0.643135 -3.867137 0
M  V30 47 H -2.719730 -2.152452 -4.428074 0
M  V30 48 H -6.695417 -2.036595 -3.849799 0
M  V30 49 H -5.593910 -0.676080 -4.248879 0
M  V30 50 H -5.781427 -2.116447 -5.392141 0
M  V30 51 H -5.460133 -4.286293 -4.389217 0
M  V30 52 H -3.822211 -3.817579 -4.993385 0
M  V30 53 H -3.962671 -4.535448 -3.364025 0
M  V30 54 H -5.480473 -3.422281 -1.824672 0
M  V30 55 H -5.699281 -1.599400 -1.906028 0
M  V30 56 H 2.489067 -1.497534 -3.696675 0
M  V30 57 H 3.547537 -0.484520 2.592247 0
M  V30 58 H 4.692466 0.715797 3.241163 0
M  V30 END ATOM
M  V30 BEGIN BOND
M  V30 1 1 1 2
M  V30 2 2 2 3
M  V30 3 1 2 4
M  V30 4 1 4 5
M  V30 5 1 5 6
M  V30 6 1 6 7
M  V30 7 1 7 8
M  V30 8 1 8 9
M  V30 9 1 9 10
M  V30 10 2 10 11
M  V30 11 1 10 12
M  V30 12 1 12 13
M  V30 13 2 13 14
M  V30 14 1 14 15
M  V30 15 1 15 16
M  V30 16 2 16 17
M  V30 17 1 17 18
M  V30 18 2 18 19
M  V30 19 1 19 20
M  V30 20 1 20 21
M  V30 21 1 21 22
M  V30 22 1 22 23
M  V30 23 1 22 24
M  V30 24 1 22 25
M  V30 25 2 15 26
M  V30 26 1 26 27
M  V30 27 1 26 28
M  V30 28 2 28 29
M  V30 29 1 9 30
M  V30 30 1 30 5
M  V30 31 1 29 13
M  V30 32 1 20 16
M  V30 33 1 25 19
M  V30 34 1 1 31
M  V30 35 1 1 32
M  V30 36 1 1 33
M  V30 37 1 4 34
M  V30 38 1 5 35 CFG=1
M  V30 39 1 6 36
M  V30 40 1 6 37
M  V30 41 1 7 38
M  V30 42 1 7 39
M  V30 43 1 8 40
M  V30 44 1 8 41
M  V30 45 1 9 42 CFG=3
M  V30 46 1 12 43
M  V30 47 1 14 44
M  V30 48 1 17 45
M  V30 49 1 21 46
M  V30 50 1 21 47
M  V30 51 1 23 48
M  V30 52 1 23 49
M  V30 53 1 23 50
M  V30 54 1 24 51
M  V30 55 1 24 52
M  V30 56 1 24 53
M  V30 57 1 25 54
M  V30 58 1 25 55
M  V30 59 1 28 56
M  V30 60 1 30 57
M  V30 61 1 30 58
M  V30 END BOND
M  V30 END CTAB
M  END
>  <Dataset>  (626) 
ChEMBL_Kinases

>  <Ligand_Instance>  (626) 
nan

>  <PDB_ID>  (626) 
nan

>  <Standardized_SMILES>  (626) 
CC(=O)N[C@@H]1CCC[C@H](C(=O)Nc2cc(-c3cnc4n3CC(C)(C)C4)c(Cl)cn2)C1

>  <Name>  (626) 
nan

>  <Pocket>  (626) 
nan

>  <ATP_Site>  (626) 
nan

>  <Peripheral>  (626) 
nan

>  <Num_H_Atoms_ProtBoundConf>  (626) 
nan

>  <Num_Resolved_Atoms>  (626) 
nan

>  <Num_Not_Resolved_Atoms>  (626) 
nan

$$$$
CHEMBL4450536
     RDKit          3D

  0  0  0  0  0  0  0  0  0  0999 V3000
M  V30 BEGIN CTAB
M  V30 COUNTS 39 41 0 0 0
M  V30 BEGIN ATOM
M  V30 1 C 1.097307 -2.999142 0.555247 0
M  V30 2 C 1.157015 -2.494731 1.978982 0
M  V30 3 C 1.252115 -3.737874 2.874405 0
M  V30 4 C 2.292174 -1.569701 2.258493 0
M  V30 5 C 2.205083 -1.172854 3.679965 0
M  V30 6 N 2.123190 -0.866736 4.805393 0
M  V30 7 N -0.089656 -1.846066 2.278872 0
M  V30 8 C -0.488507 -0.749191 1.467490 0
M  V30 9 N 0.245824 -0.298436 0.436067 0
M  V30 10 C -0.083017 0.725360 -0.358225 0
M  V30 11 C 0.768725 1.157474 -1.458499 0
M  V30 12 C 0.410664 2.212645 -2.269790 0
M  V30 13 C 1.190353 2.650630 -3.321678 0
M  V30 14 N 2.340287 2.047313 -3.585952 0
M  V30 15 C 2.760248 1.008086 -2.838756 0
M  V30 16 C 1.972323 0.566622 -1.776915 0
M  V30 17 N -1.233984 1.387205 -0.144146 0
M  V30 18 C -2.073410 1.030152 0.872725 0
M  V30 19 C -3.257808 1.695931 1.108751 0
M  V30 20 N -4.056340 1.312024 2.121470 0
M  V30 21 C -3.706663 0.265515 2.922966 0
M  V30 22 C -2.516180 -0.376485 2.657848 0
M  V30 23 C -1.654074 -0.034599 1.638898 0
M  V30 24 H 1.581096 -3.991202 0.442238 0
M  V30 25 H 0.030167 -3.159636 0.304255 0
M  V30 26 H 1.495656 -2.239965 -0.121675 0
M  V30 27 H 1.868299 -4.530944 2.396683 0
M  V30 28 H 1.668987 -3.393084 3.835382 0
M  V30 29 H 0.214384 -4.116797 2.980897 0
M  V30 30 H 3.281228 -2.090815 2.116375 0
M  V30 31 H 2.230268 -0.674272 1.649336 0
M  V30 32 H -0.660288 -2.188705 3.069882 0
M  V30 33 H -0.506082 2.753373 -2.120669 0
M  V30 34 H 0.880523 3.488348 -3.946087 0
M  V30 35 H 3.693727 0.534983 -3.070439 0
M  V30 36 H 2.323718 -0.264369 -1.190588 0
M  V30 37 H -3.465418 2.506256 0.439180 0
M  V30 38 H -4.381466 0.001192 3.717165 0
M  V30 39 H -2.323508 -1.188309 3.340565 0
M  V30 END ATOM
M  V30 BEGIN BOND
M  V30 1 1 1 2
M  V30 2 1 2 3
M  V30 3 1 2 4
M  V30 4 1 4 5
M  V30 5 3 5 6
M  V30 6 1 2 7
M  V30 7 1 7 8
M  V30 8 2 8 9
M  V30 9 1 9 10
M  V30 10 1 10 11
M  V30 11 2 11 12
M  V30 12 1 12 13
M  V30 13 2 13 14
M  V30 14 1 14 15
M  V30 15 2 15 16
M  V30 16 2 10 17
M  V30 17 1 17 18
M  V30 18 2 18 19
M  V30 19 1 19 20
M  V30 20 2 20 21
M  V30 21 1 21 22
M  V30 22 2 22 23
M  V30 23 1 23 8
M  V30 24 1 16 11
M  V30 25 1 23 18
M  V30 26 1 1 24
M  V30 27 1 1 25
M  V30 28 1 1 26
M  V30 29 1 3 27
M  V30 30 1 3 28
M  V30 31 1 3 29
M  V30 32 1 4 30
M  V30 33 1 4 31
M  V30 34 1 7 32
M  V30 35 1 12 33
M  V30 36 1 13 34
M  V30 37 1 15 35
M  V30 38 1 16 36
M  V30 39 1 19 37
M  V30 40 1 21 38
M  V30 41 1 22 39
M  V30 END BOND
M  V30 END CTAB
M  END
>  <Dataset>  (627) 
ChEMBL_Kinases

>  <Ligand_Instance>  (627) 
nan

>  <PDB_ID>  (627) 
nan

>  <Standardized_SMILES>  (627) 
CC(C)(CC#N)Nc1nc(-c2ccncc2)nc2cnccc12

>  <Name>  (627) 
nan

>  <Pocket>  (627) 
nan

>  <ATP_Site>  (627) 
nan

>  <Peripheral>  (627) 
nan

>  <Num_H_Atoms_ProtBoundConf>  (627) 
nan

>  <Num_Resolved_Atoms>  (627) 
nan

>  <Num_Not_Resolved_Atoms>  (627) 
nan

$$$$
CHEMBL4749186
     RDKit          3D

  0  0  0  0  0  0  0  0  0  0999 V3000
M  V30 BEGIN CTAB
M  V30 COUNTS 42 45 0 0 0
M  V30 BEGIN ATOM
M  V30 1 C -1.291110 -4.494170 2.583646 0
M  V30 2 C -0.107017 -3.544432 2.565401 0
M  V30 3 O 0.189238 -3.075631 3.837169 0
M  V30 4 C -0.505144 -2.403407 1.722180 0
M  V30 5 C -0.829123 -1.450463 1.041873 0
M  V30 6 C -1.216007 -0.307194 0.255068 0
M  V30 7 C -2.404755 -0.297795 -0.484285 0
M  V30 8 C -2.735792 0.818023 -1.223375 0
M  V30 9 C -1.955652 1.943305 -1.280205 0
M  V30 10 N -2.295101 3.025767 -2.004553 0
M  V30 11 C -1.498305 4.116103 -2.030353 0
M  V30 12 C -0.342007 4.051551 -1.285285 0
M  V30 13 C 0.068269 2.958869 -0.512572 0
M  V30 14 C 1.337824 3.090972 0.191583 0
M  V30 15 C 1.576262 4.244577 0.949276 0
M  V30 16 N 2.804608 4.128678 1.485477 0
M  V30 17 N 3.361711 2.984895 1.122115 0
M  V30 18 C 2.488400 2.343898 0.338681 0
M  V30 19 C -0.796667 1.882352 -0.534825 0
M  V30 20 C -0.410005 0.809941 0.218159 0
M  V30 21 C 1.113775 -4.209305 2.035541 0
M  V30 22 C 2.302914 -3.507171 1.938949 0
M  V30 23 C 3.438726 -4.113550 1.449774 0
M  V30 24 C 3.409543 -5.446736 1.043129 0
M  V30 25 C 2.209129 -6.119566 1.151814 0
M  V30 26 N 1.100636 -5.502623 1.637040 0
M  V30 27 H -1.449589 -4.857962 1.552719 0
M  V30 28 H -1.113475 -5.315501 3.304667 0
M  V30 29 H -2.161304 -3.904162 2.944293 0
M  V30 30 H 0.175916 -2.079596 3.875518 0
M  V30 31 H -3.031474 -1.178253 -0.449981 0
M  V30 32 H -3.676965 0.776939 -1.785409 0
M  V30 33 H -1.732302 5.003419 -2.596542 0
M  V30 34 H 0.297287 4.947970 -1.316281 0
M  V30 35 H 0.984736 5.134888 1.154821 0
M  V30 36 H 4.290237 2.571266 1.346295 0
M  V30 37 H 2.577646 1.403404 -0.145632 0
M  V30 38 H 0.488866 0.794402 0.786392 0
M  V30 39 H 2.345087 -2.485488 2.245330 0
M  V30 40 H 4.349532 -3.516647 1.394165 0
M  V30 41 H 4.326629 -5.865640 0.670129 0
M  V30 42 H 2.179714 -7.148473 0.839805 0
M  V30 END ATOM
M  V30 BEGIN BOND
M  V30 1 1 1 2
M  V30 2 1 2 3
M  V30 3 1 2 4
M  V30 4 3 4 5
M  V30 5 1 5 6
M  V30 6 2 6 7
M  V30 7 1 7 8
M  V30 8 2 8 9
M  V30 9 1 9 10
M  V30 10 2 10 11
M  V30 11 1 11 12
M  V30 12 2 12 13
M  V30 13 1 13 14
M  V30 14 1 14 15
M  V30 15 2 15 16
M  V30 16 1 16 17
M  V30 17 1 17 18
M  V30 18 1 13 19
M  V30 19 2 19 20
M  V30 20 1 2 21
M  V30 21 2 21 22
M  V30 22 1 22 23
M  V30 23 2 23 24
M  V30 24 1 24 25
M  V30 25 2 25 26
M  V30 26 1 20 6
M  V30 27 1 26 21
M  V30 28 1 19 9
M  V30 29 2 18 14
M  V30 30 1 1 27
M  V30 31 1 1 28
M  V30 32 1 1 29
M  V30 33 1 3 30
M  V30 34 1 7 31
M  V30 35 1 8 32
M  V30 36 1 11 33
M  V30 37 1 12 34
M  V30 38 1 15 35
M  V30 39 1 17 36
M  V30 40 1 18 37
M  V30 41 1 20 38
M  V30 42 1 22 39
M  V30 43 1 23 40
M  V30 44 1 24 41
M  V30 45 1 25 42
M  V30 END BOND
M  V30 END CTAB
M  END
>  <Dataset>  (628) 
ChEMBL_Kinases

>  <Ligand_Instance>  (628) 
nan

>  <PDB_ID>  (628) 
nan

>  <Standardized_SMILES>  (628) 
CC(O)(C#Cc1ccc2nccc(-c3cn[nH]c3)c2c1)c1ccccn1

>  <Name>  (628) 
nan

>  <Pocket>  (628) 
nan

>  <ATP_Site>  (628) 
nan

>  <Peripheral>  (628) 
nan

>  <Num_H_Atoms_ProtBoundConf>  (628) 
nan

>  <Num_Resolved_Atoms>  (628) 
nan

>  <Num_Not_Resolved_Atoms>  (628) 
nan

$$$$
CHEMBL4749204
     RDKit          3D

  0  0  0  0  0  0  0  0  0  0999 V3000
M  V30 BEGIN CTAB
M  V30 COUNTS 97 103 0 0 0
M  V30 BEGIN ATOM
M  V30 1 C -2.491599 -5.464638 4.456417 0
M  V30 2 N -1.733496 -4.877544 3.375455 0
M  V30 3 C -1.118605 -3.625248 3.478448 0
M  V30 4 O -1.328630 -3.114444 4.640622 0
M  V30 5 C -0.339457 -2.876669 2.541991 0
M  V30 6 S 0.231597 -1.232256 3.271299 0
M  V30 7 C 1.141322 -0.764524 1.672909 0
M  V30 8 C 1.808697 0.565442 1.732991 0
M  V30 9 C 1.797059 1.382555 2.831830 0
M  V30 10 C 2.428196 2.598765 2.800190 0
M  V30 11 N 3.071978 3.040989 1.724430 0
M  V30 12 C 3.093932 2.239405 0.619255 0
M  V30 13 N 3.737064 2.560305 -0.607478 0
M  V30 14 C 5.062323 2.107778 -0.583478 0
M  V30 15 O 6.055701 1.532092 -0.023213 0
M  V30 16 C 6.289249 2.059603 -1.413551 0
M  V30 17 C 6.669741 3.192329 -2.296175 0
M  V30 18 C 6.185836 1.866085 -2.857371 0
M  V30 19 C 2.464122 0.989877 0.602076 0
M  V30 20 N 0.925323 -1.670103 1.035582 0
M  V30 21 C 0.241071 -2.767946 1.277923 0
M  V30 22 O 0.004974 -3.779777 0.530782 0
M  V30 23 C -0.221767 -4.798785 -0.246714 0
M  V30 24 C 0.854862 -5.711386 -0.725274 0
M  V30 25 C 1.944743 -5.126326 -1.519449 0
M  V30 26 C 1.501406 -4.478447 -2.799077 0
M  V30 27 C 2.747448 -3.983042 -3.531126 0
M  V30 28 C 3.508394 -2.992093 -2.715667 0
M  V30 29 C 2.693625 -1.743447 -2.421384 0
M  V30 30 C 2.355740 -1.009504 -3.699873 0
M  V30 31 N 1.541796 0.158977 -3.445479 0
M  V30 32 C 0.210281 0.292954 -3.482988 0
M  V30 33 C -0.181557 1.569957 -3.146414 0
M  V30 34 C -1.475478 2.256663 -3.096453 0
M  V30 35 O -2.172574 1.918200 -1.922181 0
M  V30 36 C -3.416618 2.510537 -1.707624 0
M  V30 37 C -3.924265 3.434204 -2.633772 0
M  V30 38 C -5.129447 4.095237 -2.546980 0
M  V30 39 C -5.915556 3.822779 -1.442391 0
M  V30 40 C -5.471286 2.928133 -0.504752 0
M  V30 41 C -4.242776 2.279694 -0.629771 0
M  V30 42 C -4.058628 1.386082 0.502390 0
M  V30 43 O -3.054269 0.642118 0.710269 0
M  V30 44 N -5.191346 1.458133 1.377165 0
M  V30 45 C -5.470051 0.740150 2.610613 0
M  V30 46 C -4.328760 0.931136 3.545991 0
M  V30 47 C -4.406092 0.056194 4.775148 0
M  V30 48 C -4.840077 -1.316594 4.478533 0
M  V30 49 O -4.589902 -2.305301 5.204169 0
M  V30 50 N -5.594923 -1.649889 3.319603 0
M  V30 51 C -5.673903 -0.697344 2.245689 0
M  V30 52 O -5.904309 -1.024332 1.029278 0
M  V30 53 C -6.049672 2.420205 0.730947 0
M  V30 54 O -7.164857 2.763016 1.201664 0
M  V30 55 N 1.000496 2.196508 -2.900508 0
M  V30 56 N 2.008804 1.352106 -3.081524 0
M  V30 57 H -1.772351 -6.031127 5.086996 0
M  V30 58 H -2.846120 -4.635855 5.102974 0
M  V30 59 H -3.287443 -6.116374 4.075067 0
M  V30 60 H -1.590376 -5.328245 2.464870 0
M  V30 61 H 1.303500 1.090232 3.721919 0
M  V30 62 H 2.412358 3.247693 3.686638 0
M  V30 63 H 3.668340 2.994346 -1.548707 0
M  V30 64 H 7.126216 1.541108 -0.879356 0
M  V30 65 H 6.046553 4.082609 -2.332617 0
M  V30 66 H 7.754176 3.373613 -2.443058 0
M  V30 67 H 6.902634 1.227146 -3.413711 0
M  V30 68 H 5.204498 1.962188 -3.389143 0
M  V30 69 H 2.462662 0.350950 -0.244299 0
M  V30 70 H -0.772249 -4.476759 -1.219664 0
M  V30 71 H -1.050351 -5.458988 0.200162 0
M  V30 72 H 1.309254 -6.319055 0.090362 0
M  V30 73 H 0.355570 -6.495274 -1.382040 0
M  V30 74 H 2.493251 -4.415728 -0.857226 0
M  V30 75 H 2.678544 -5.917305 -1.786267 0
M  V30 76 H 0.772570 -3.668245 -2.645601 0
M  V30 77 H 1.024643 -5.244541 -3.436215 0
M  V30 78 H 2.500707 -3.646115 -4.540615 0
M  V30 79 H 3.377335 -4.885615 -3.655216 0
M  V30 80 H 4.376108 -2.651329 -3.354524 0
M  V30 81 H 3.951698 -3.463922 -1.844701 0
M  V30 82 H 1.770774 -1.967583 -1.879525 0
M  V30 83 H 3.382580 -1.033646 -1.871336 0
M  V30 84 H 1.785351 -1.661838 -4.380543 0
M  V30 85 H 3.321482 -0.727312 -4.204927 0
M  V30 86 H -0.512120 -0.475824 -3.740268 0
M  V30 87 H -1.330098 3.373041 -3.198062 0
M  V30 88 H -2.045081 1.968348 -4.012160 0
M  V30 89 H -3.316193 3.648053 -3.494394 0
M  V30 90 H -5.415351 4.795648 -3.331077 0
M  V30 91 H -6.865140 4.326935 -1.349806 0
M  V30 92 H -6.452730 1.097545 2.981065 0
M  V30 93 H -4.290285 2.010359 3.838853 0
M  V30 94 H -3.367428 0.718033 3.027757 0
M  V30 95 H -5.203209 0.526602 5.424744 0
M  V30 96 H -3.476393 0.130184 5.344010 0
M  V30 97 H -6.125535 -2.555045 3.156189 0
M  V30 END ATOM
M  V30 BEGIN BOND
M  V30 1 1 1 2
M  V30 2 1 2 3
M  V30 3 2 3 4
M  V30 4 1 3 5
M  V30 5 1 5 6
M  V30 6 1 6 7
M  V30 7 1 7 8
M  V30 8 2 8 9
M  V30 9 1 9 10
M  V30 10 2 10 11
M  V30 11 1 11 12
M  V30 12 1 12 13
M  V30 13 1 13 14
M  V30 14 2 14 15
M  V30 15 1 14 16
M  V30 16 1 16 17
M  V30 17 1 17 18
M  V30 18 2 12 19
M  V30 19 2 7 20
M  V30 20 1 20 21
M  V30 21 1 21 22
M  V30 22 1 22 23
M  V30 23 1 23 24
M  V30 24 1 24 25
M  V30 25 1 25 26
M  V30 26 1 26 27
M  V30 27 1 27 28
M  V30 28 1 28 29
M  V30 29 1 29 30
M  V30 30 1 30 31
M  V30 31 1 31 32
M  V30 32 2 32 33
M  V30 33 1 33 34
M  V30 34 1 34 35
M  V30 35 1 35 36
M  V30 36 2 36 37
M  V30 37 1 37 38
M  V30 38 2 38 39
M  V30 39 1 39 40
M  V30 40 2 40 41
M  V30 41 1 41 42
M  V30 42 2 42 43
M  V30 43 1 42 44
M  V30 44 1 44 45
M  V30 45 1 45 46
M  V30 46 1 46 47
M  V30 47 1 47 48
M  V30 48 2 48 49
M  V30 49 1 48 50
M  V30 50 1 50 51
M  V30 51 2 51 52
M  V30 52 1 44 53
M  V30 53 2 53 54
M  V30 54 1 33 55
M  V30 55 2 55 56
M  V30 56 2 21 5
M  V30 57 1 56 31
M  V30 58 1 19 8
M  V30 59 1 41 36
M  V30 60 1 51 45
M  V30 61 1 18 16
M  V30 62 1 53 40
M  V30 63 1 1 57
M  V30 64 1 1 58
M  V30 65 1 1 59
M  V30 66 1 2 60
M  V30 67 1 9 61
M  V30 68 1 10 62
M  V30 69 1 13 63
M  V30 70 1 16 64
M  V30 71 1 17 65
M  V30 72 1 17 66
M  V30 73 1 18 67
M  V30 74 1 18 68
M  V30 75 1 19 69
M  V30 76 1 23 70
M  V30 77 1 23 71
M  V30 78 1 24 72
M  V30 79 1 24 73
M  V30 80 1 25 74
M  V30 81 1 25 75
M  V30 82 1 26 76
M  V30 83 1 26 77
M  V30 84 1 27 78
M  V30 85 1 27 79
M  V30 86 1 28 80
M  V30 87 1 28 81
M  V30 88 1 29 82
M  V30 89 1 29 83
M  V30 90 1 30 84
M  V30 91 1 30 85
M  V30 92 1 32 86
M  V30 93 1 34 87
M  V30 94 1 34 88
M  V30 95 1 37 89
M  V30 96 1 38 90
M  V30 97 1 39 91
M  V30 98 1 45 92
M  V30 99 1 46 93
M  V30 100 1 46 94
M  V30 101 1 47 95
M  V30 102 1 47 96
M  V30 103 1 50 97
M  V30 END BOND
M  V30 END CTAB
M  END
>  <Dataset>  (629) 
ChEMBL_Kinases

>  <Ligand_Instance>  (629) 
nan

>  <PDB_ID>  (629) 
nan

>  <Standardized_SMILES>  (629) 
CNC(=O)c1sc(-c2ccnc(NC(=O)C3CC3)c2)nc1OCCCCCCCCn1cc(COc2cccc3c2C(=O)N(C2CCC(=O)NC2=O)C3=O)nn1

>  <Name>  (629) 
nan

>  <Pocket>  (629) 
nan

>  <ATP_Site>  (629) 
nan

>  <Peripheral>  (629) 
nan

>  <Num_H_Atoms_ProtBoundConf>  (629) 
nan

>  <Num_Resolved_Atoms>  (629) 
nan

>  <Num_Not_Resolved_Atoms>  (629) 
nan

$$$$
CHEMBL4450851
     RDKit          3D

  0  0  0  0  0  0  0  0  0  0999 V3000
M  V30 BEGIN CTAB
M  V30 COUNTS 47 49 0 0 0
M  V30 BEGIN ATOM
M  V30 1 C 2.704612 -5.031778 -1.570235 0
M  V30 2 O 1.682039 -5.081364 -0.600643 0
M  V30 3 C 1.195371 -4.078392 0.169361 0
M  V30 4 C 1.536081 -2.753492 0.193295 0
M  V30 5 C 0.910697 -1.926841 1.051531 0
M  V30 6 C 0.975946 -0.505571 1.235581 0
M  V30 7 C 0.733445 0.279715 0.190482 0
M  V30 8 C 0.395420 -0.019445 -1.171397 0
M  V30 9 O 0.293818 -1.149232 -1.681411 0
M  V30 10 N 0.172460 1.189109 -1.924117 0
M  V30 11 C 0.377500 2.278873 -0.997531 0
M  V30 12 C 0.232633 3.605985 -1.339228 0
M  V30 13 C 0.441376 4.518730 -0.311064 0
M  V30 14 C 0.774216 4.016837 0.950506 0
M  V30 15 N 0.919729 5.047836 1.925909 0
M  V30 16 C -0.389551 5.095081 2.432700 0
M  V30 17 C -1.419391 5.671136 3.354000 0
M  V30 18 O -1.120190 4.202696 1.823167 0
M  V30 19 C 0.908929 2.678662 1.235244 0
M  V30 20 C 0.705279 1.757199 0.235325 0
M  V30 21 C -0.082130 -2.419367 1.921120 0
M  V30 22 C -0.471918 -3.772445 1.940700 0
M  V30 23 O -1.447499 -4.265935 2.792366 0
M  V30 24 C -2.079811 -3.371063 3.671046 0
M  V30 25 C 0.208961 -4.581426 1.026652 0
M  V30 26 O -0.214460 -5.934622 1.076045 0
M  V30 27 C -1.317505 -6.283302 0.216515 0
M  V30 28 H 3.656323 -4.771626 -1.073301 0
M  V30 29 H 2.512311 -4.205793 -2.315832 0
M  V30 30 H 2.840731 -5.980541 -2.094878 0
M  V30 31 H 2.301765 -2.381973 -0.449848 0
M  V30 32 H 1.216399 -0.022416 2.179980 0
M  V30 33 H -0.090072 1.218619 -2.954106 0
M  V30 34 H -0.022387 3.957752 -2.313337 0
M  V30 35 H 0.336969 5.570153 -0.541398 0
M  V30 36 H 1.359114 5.781420 2.502356 0
M  V30 37 H -2.211818 6.155756 2.764022 0
M  V30 38 H -1.881416 4.929593 4.017740 0
M  V30 39 H -0.971344 6.441443 4.020031 0
M  V30 40 H 1.176791 2.374760 2.248554 0
M  V30 41 H -0.652379 -1.832923 2.667090 0
M  V30 42 H -1.369671 -2.929172 4.414036 0
M  V30 43 H -2.518085 -2.517277 3.105496 0
M  V30 44 H -2.902294 -3.819925 4.244051 0
M  V30 45 H -2.019619 -6.982297 0.683459 0
M  V30 46 H -0.927772 -6.738448 -0.714722 0
M  V30 47 H -1.869518 -5.358957 -0.113716 0
M  V30 END ATOM
M  V30 BEGIN BOND
M  V30 1 1 1 2
M  V30 2 1 2 3
M  V30 3 2 3 4
M  V30 4 1 4 5
M  V30 5 1 5 6
M  V30 6 2 6 7
M  V30 7 1 7 8
M  V30 8 2 8 9
M  V30 9 1 8 10
M  V30 10 1 10 11
M  V30 11 2 11 12
M  V30 12 1 12 13
M  V30 13 2 13 14
M  V30 14 1 14 15
M  V30 15 1 15 16
M  V30 16 1 16 17
M  V30 17 2 16 18
M  V30 18 1 14 19
M  V30 19 2 19 20
M  V30 20 2 5 21
M  V30 21 1 21 22
M  V30 22 1 22 23
M  V30 23 1 23 24
M  V30 24 2 22 25
M  V30 25 1 25 26
M  V30 26 1 26 27
M  V30 27 1 25 3
M  V30 28 1 20 7
M  V30 29 1 20 11
M  V30 30 1 1 28
M  V30 31 1 1 29
M  V30 32 1 1 30
M  V30 33 1 4 31
M  V30 34 1 6 32
M  V30 35 1 10 33
M  V30 36 1 12 34
M  V30 37 1 13 35
M  V30 38 1 15 36
M  V30 39 1 17 37
M  V30 40 1 17 38
M  V30 41 1 17 39
M  V30 42 1 19 40
M  V30 43 1 21 41
M  V30 44 1 24 42
M  V30 45 1 24 43
M  V30 46 1 24 44
M  V30 47 1 27 45
M  V30 48 1 27 46
M  V30 49 1 27 47
M  V30 END BOND
M  V30 END CTAB
M  END
>  <Dataset>  (630) 
ChEMBL_Kinases

>  <Ligand_Instance>  (630) 
nan

>  <PDB_ID>  (630) 
nan

>  <Standardized_SMILES>  (630) 
COc1cc(/C=C2\C(=O)Nc3ccc(NC(C)=O)cc32)cc(OC)c1OC

>  <Name>  (630) 
nan

>  <Pocket>  (630) 
nan

>  <ATP_Site>  (630) 
nan

>  <Peripheral>  (630) 
nan

>  <Num_H_Atoms_ProtBoundConf>  (630) 
nan

>  <Num_Resolved_Atoms>  (630) 
nan

>  <Num_Not_Resolved_Atoms>  (630) 
nan

$$$$
CHEMBL4449117
     RDKit          3D

  0  0  0  0  0  0  0  0  0  0999 V3000
M  V30 BEGIN CTAB
M  V30 COUNTS 38 40 0 0 0
M  V30 BEGIN ATOM
M  V30 1 O 1.134865 -2.868190 3.152901 0
M  V30 2 C 0.547485 -2.271362 2.213670 0
M  V30 3 N 0.611765 -2.773259 0.885665 0
M  V30 4 C 1.310724 -3.963190 0.445294 0
M  V30 5 C 2.781259 -3.685184 0.399651 0
M  V30 6 C 3.655774 -3.948289 1.444263 0
M  V30 7 C 4.966601 -3.609627 1.199277 0
M  V30 8 N 5.461963 -3.062645 0.071328 0
M  V30 9 C 4.591758 -2.811904 -0.941712 0
M  V30 10 C 3.236248 -3.116916 -0.799233 0
M  V30 11 C -0.205629 -1.047229 2.508025 0
M  V30 12 C -0.944398 -0.254271 1.646982 0
M  V30 13 C -1.511057 0.818706 2.313689 0
M  V30 14 C -2.325488 1.870496 1.744660 0
M  V30 15 O -3.149864 2.367716 2.588640 0
M  V30 16 C -2.402013 2.471132 0.431242 0
M  V30 17 C -3.533748 3.170045 0.082616 0
M  V30 18 F -4.604208 3.308266 0.916300 0
M  V30 19 C -3.600379 3.769758 -1.178103 0
M  V30 20 C -2.592839 3.707794 -2.109247 0
M  V30 21 C -1.455993 2.995411 -1.734181 0
M  V30 22 C -1.367287 2.391660 -0.489139 0
M  V30 23 F -0.206337 1.756617 -0.234269 0
M  V30 24 C -1.097819 0.660856 3.614572 0
M  V30 25 N -0.336864 -0.437580 3.697732 0
M  V30 26 H 0.078646 -2.189363 0.170522 0
M  V30 27 H 0.951971 -4.194050 -0.578122 0
M  V30 28 H 1.103509 -4.825610 1.122256 0
M  V30 29 H 3.267314 -4.382639 2.334760 0
M  V30 30 H 5.678461 -3.796767 1.981566 0
M  V30 31 H 4.874527 -2.381888 -1.873693 0
M  V30 32 H 2.556995 -2.914955 -1.606720 0
M  V30 33 H -1.004597 -0.553018 0.612623 0
M  V30 34 H -4.504001 4.325516 -1.452623 0
M  V30 35 H -2.596135 4.149370 -3.092959 0
M  V30 36 H -0.635334 2.926991 -2.452437 0
M  V30 37 H -1.351841 1.324573 4.440830 0
M  V30 38 H 0.090685 -0.748105 4.605554 0
M  V30 END ATOM
M  V30 BEGIN BOND
M  V30 1 2 1 2
M  V30 2 1 2 3
M  V30 3 1 3 4
M  V30 4 1 4 5
M  V30 5 2 5 6
M  V30 6 1 6 7
M  V30 7 2 7 8
M  V30 8 1 8 9
M  V30 9 2 9 10
M  V30 10 1 2 11
M  V30 11 2 11 12
M  V30 12 1 12 13
M  V30 13 1 13 14
M  V30 14 2 14 15
M  V30 15 1 14 16
M  V30 16 2 16 17
M  V30 17 1 17 18
M  V30 18 1 17 19
M  V30 19 2 19 20
M  V30 20 1 20 21
M  V30 21 2 21 22
M  V30 22 1 22 23
M  V30 23 2 13 24
M  V30 24 1 24 25
M  V30 25 1 10 5
M  V30 26 1 25 11
M  V30 27 1 22 16
M  V30 28 1 3 26
M  V30 29 1 4 27
M  V30 30 1 4 28
M  V30 31 1 6 29
M  V30 32 1 7 30
M  V30 33 1 9 31
M  V30 34 1 10 32
M  V30 35 1 12 33
M  V30 36 1 19 34
M  V30 37 1 20 35
M  V30 38 1 21 36
M  V30 39 1 24 37
M  V30 40 1 25 38
M  V30 END BOND
M  V30 END CTAB
M  END
>  <Dataset>  (631) 
ChEMBL_Kinases

>  <Ligand_Instance>  (631) 
nan

>  <PDB_ID>  (631) 
nan

>  <Standardized_SMILES>  (631) 
O=C(NCc1ccncc1)c1cc(C(=O)c2c(F)cccc2F)c[nH]1

>  <Name>  (631) 
nan

>  <Pocket>  (631) 
nan

>  <ATP_Site>  (631) 
nan

>  <Peripheral>  (631) 
nan

>  <Num_H_Atoms_ProtBoundConf>  (631) 
nan

>  <Num_Resolved_Atoms>  (631) 
nan

>  <Num_Not_Resolved_Atoms>  (631) 
nan

$$$$
CHEMBL4749743
     RDKit          3D

  0  0  0  0  0  0  0  0  0  0999 V3000
M  V30 BEGIN CTAB
M  V30 COUNTS 65 71 0 0 0
M  V30 BEGIN ATOM
M  V30 1 F 5.504972 3.159563 7.977661 0
M  V30 2 C 5.071735 2.292405 7.032298 0
M  V30 3 C 4.999455 0.920166 7.157791 0
M  V30 4 C 4.543357 0.109699 6.139134 0
M  V30 5 C 4.129589 0.659442 4.918718 0
M  V30 6 C 3.658470 -0.211835 3.850171 0
M  V30 7 C 4.428072 -1.314100 3.536465 0
M  V30 8 C 3.974515 -2.122966 2.514376 0
M  V30 9 C 2.810534 -1.857184 1.829470 0
M  V30 10 C 2.071158 -0.747295 2.173346 0
M  V30 11 N 0.923042 -0.226394 1.717189 0
M  V30 12 C 0.522982 0.886444 2.331448 0
M  V30 13 C -0.592325 1.799153 2.226568 0
M  V30 14 N -0.787554 2.902314 2.992236 0
M  V30 15 N -1.892939 3.528798 2.655454 0
M  V30 16 C -2.517845 2.896281 1.644708 0
M  V30 17 N -3.645883 3.152286 0.981507 0
M  V30 18 C -4.020746 2.317901 -0.004166 0
M  V30 19 C -3.243149 1.213203 -0.319532 0
M  V30 20 C -3.712170 0.357155 -1.402313 0
M  V30 21 C -4.414898 0.878991 -2.464922 0
M  V30 22 N -4.817913 0.018401 -3.438204 0
M  V30 23 C -4.537124 -1.296883 -3.360913 0
M  V30 24 C -3.825079 -1.849738 -2.291793 0
M  V30 25 C -3.650185 -3.316533 -2.443469 0
M  V30 26 N -2.477017 -3.589241 -3.159173 0
M  V30 27 C -1.228168 -3.186144 -2.649112 0
M  V30 28 C -0.583488 -2.309753 -3.735969 0
M  V30 29 C -1.032643 -2.828851 -5.090969 0
M  V30 30 C -1.302948 -4.332287 -5.062009 0
M  V30 31 C -2.435870 -4.658721 -4.076195 0
M  V30 32 C -3.413811 -0.984149 -1.302319 0
M  V30 33 C -2.085082 0.988623 0.393428 0
M  V30 34 C -1.686880 1.824602 1.398470 0
M  V30 35 C 1.536879 1.066535 3.265410 0
M  V30 36 C 2.489242 0.079249 3.182580 0
M  V30 37 C 4.210860 2.032775 4.816207 0
M  V30 38 C 4.666906 2.843714 5.834713 0
M  V30 39 H 5.335682 0.561494 8.128028 0
M  V30 40 H 4.510494 -0.970056 6.302464 0
M  V30 41 H 5.332545 -1.500148 4.085692 0
M  V30 42 H 4.572641 -2.978667 2.271054 0
M  V30 43 H 2.464332 -2.494723 1.032609 0
M  V30 44 H 0.413525 -0.682963 0.943925 0
M  V30 45 H -2.182572 4.406994 3.160576 0
M  V30 46 H -4.952847 2.597886 -0.495269 0
M  V30 47 H -4.635356 1.936768 -2.518315 0
M  V30 48 H -4.934691 -1.840514 -4.224470 0
M  V30 49 H -3.496784 -3.692256 -1.387007 0
M  V30 50 H -4.567806 -3.788472 -2.828193 0
M  V30 51 H -0.563724 -4.092316 -2.610871 0
M  V30 52 H -1.195985 -2.714459 -1.668037 0
M  V30 53 H -0.973741 -1.275910 -3.645068 0
M  V30 54 H 0.506677 -2.306538 -3.654964 0
M  V30 55 H -0.276853 -2.669689 -5.865508 0
M  V30 56 H -2.015292 -2.359771 -5.309784 0
M  V30 57 H -1.605139 -4.580796 -6.103735 0
M  V30 58 H -0.358395 -4.823665 -4.789249 0
M  V30 59 H -2.159405 -5.603790 -3.570404 0
M  V30 60 H -3.392747 -4.792350 -4.619580 0
M  V30 61 H -2.875016 -1.488537 -0.513391 0
M  V30 62 H -1.518258 0.138891 0.126281 0
M  V30 63 H 1.632000 1.861573 4.002706 0
M  V30 64 H 3.913906 2.516449 3.906245 0
M  V30 65 H 4.703693 3.932136 5.680767 0
M  V30 END ATOM
M  V30 BEGIN BOND
M  V30 1 1 1 2
M  V30 2 2 2 3
M  V30 3 1 3 4
M  V30 4 2 4 5
M  V30 5 1 5 6
M  V30 6 2 6 7
M  V30 7 1 7 8
M  V30 8 2 8 9
M  V30 9 1 9 10
M  V30 10 1 10 11
M  V30 11 1 11 12
M  V30 12 1 12 13
M  V30 13 2 13 14
M  V30 14 1 14 15
M  V30 15 1 15 16
M  V30 16 2 16 17
M  V30 17 1 17 18
M  V30 18 2 18 19
M  V30 19 1 19 20
M  V30 20 2 20 21
M  V30 21 1 21 22
M  V30 22 2 22 23
M  V30 23 1 23 24
M  V30 24 1 24 25
M  V30 25 1 25 26
M  V30 26 1 26 27
M  V30 27 1 27 28
M  V30 28 1 28 29
M  V30 29 1 29 30
M  V30 30 1 30 31
M  V30 31 2 24 32
M  V30 32 1 19 33
M  V30 33 2 33 34
M  V30 34 2 12 35
M  V30 35 1 35 36
M  V30 36 1 5 37
M  V30 37 2 37 38
M  V30 38 1 38 2
M  V30 39 1 36 6
M  V30 40 2 36 10
M  V30 41 1 34 13
M  V30 42 1 34 16
M  V30 43 1 32 20
M  V30 44 1 31 26
M  V30 45 1 3 39
M  V30 46 1 4 40
M  V30 47 1 7 41
M  V30 48 1 8 42
M  V30 49 1 9 43
M  V30 50 1 11 44
M  V30 51 1 15 45
M  V30 52 1 18 46
M  V30 53 1 21 47
M  V30 54 1 23 48
M  V30 55 1 25 49
M  V30 56 1 25 50
M  V30 57 1 27 51
M  V30 58 1 27 52
M  V30 59 1 28 53
M  V30 60 1 28 54
M  V30 61 1 29 55
M  V30 62 1 29 56
M  V30 63 1 30 57
M  V30 64 1 30 58
M  V30 65 1 31 59
M  V30 66 1 31 60
M  V30 67 1 32 61
M  V30 68 1 33 62
M  V30 69 1 35 63
M  V30 70 1 37 64
M  V30 71 1 38 65
M  V30 END BOND
M  V30 END CTAB
M  END
>  <Dataset>  (632) 
ChEMBL_Kinases

>  <Ligand_Instance>  (632) 
nan

>  <PDB_ID>  (632) 
nan

>  <Standardized_SMILES>  (632) 
Fc1ccc(-c2cccc3[nH]c(-c4n[nH]c5ncc(-c6cncc(CN7CCCCC7)c6)cc45)cc23)cc1

>  <Name>  (632) 
nan

>  <Pocket>  (632) 
nan

>  <ATP_Site>  (632) 
nan

>  <Peripheral>  (632) 
nan

>  <Num_H_Atoms_ProtBoundConf>  (632) 
nan

>  <Num_Resolved_Atoms>  (632) 
nan

>  <Num_Not_Resolved_Atoms>  (632) 
nan

$$$$
CHEMBL4449045
     RDKit          3D

  0  0  0  0  0  0  0  0  0  0999 V3000
M  V30 BEGIN CTAB
M  V30 COUNTS 40 43 0 0 0
M  V30 BEGIN ATOM
M  V30 1 O -2.722309 -1.156843 3.506631 0
M  V30 2 C -1.418222 -0.897558 3.862690 0 CFG=2
M  V30 3 C -1.249545 0.375920 4.658849 0
M  V30 4 C -0.693101 1.418573 3.684444 0
M  V30 5 C -0.796758 0.784451 2.322683 0
M  V30 6 C -0.588312 -0.681431 2.640260 0 CFG=2
M  V30 7 N -1.030623 -1.521806 1.526856 0
M  V30 8 C -0.307188 -1.411505 0.312556 0
M  V30 9 N 0.724039 -0.558189 0.263916 0
M  V30 10 C 1.468844 -0.394745 -0.867047 0
M  V30 11 C 2.584402 0.547437 -0.869368 0
M  V30 12 C 3.329255 0.707796 -2.018661 0
M  V30 13 C 4.382256 1.579050 -2.066598 0
M  V30 14 N 4.697833 2.301491 -0.952373 0
M  V30 15 C 3.969950 2.145835 0.173329 0
M  V30 16 C 2.886442 1.267737 0.267690 0
M  V30 17 N 1.172611 -1.102291 -1.972179 0
M  V30 18 C 0.147542 -1.984241 -2.005471 0
M  V30 19 C -0.168147 -2.716774 -3.131169 0
M  V30 20 N -1.213413 -3.584927 -3.089678 0
M  V30 21 C -1.946777 -3.737062 -1.954698 0
M  V30 22 C -1.612271 -2.993570 -0.841047 0
M  V30 23 C -0.564538 -2.100929 -0.828326 0
M  V30 24 H -2.991654 -2.070517 3.800905 0
M  V30 25 H -0.983626 -1.772166 4.396731 0
M  V30 26 H -2.226624 0.705105 5.016908 0
M  V30 27 H -0.536947 0.202039 5.485507 0
M  V30 28 H 0.360547 1.651813 3.938624 0
M  V30 29 H -1.282853 2.354153 3.760572 0
M  V30 30 H -1.815572 0.983029 1.936739 0
M  V30 31 H -0.013920 1.206970 1.676391 0
M  V30 32 H 0.466330 -0.826157 2.902285 0
M  V30 33 H -1.847333 -2.136659 1.720431 0
M  V30 34 H 3.071530 0.131248 -2.895718 0
M  V30 35 H 5.001368 1.737230 -2.960994 0
M  V30 36 H 4.189098 2.705547 1.089035 0
M  V30 37 H 2.333306 1.177049 1.191712 0
M  V30 38 H 0.419819 -2.593043 -4.036876 0
M  V30 39 H -2.775002 -4.440527 -1.959524 0
M  V30 40 H -2.216959 -3.149981 0.019816 0
M  V30 END ATOM
M  V30 BEGIN BOND
M  V30 1 1 1 2
M  V30 2 1 2 3
M  V30 3 1 3 4
M  V30 4 1 4 5
M  V30 5 1 5 6
M  V30 6 1 6 7
M  V30 7 1 7 8
M  V30 8 2 8 9
M  V30 9 1 9 10
M  V30 10 1 10 11
M  V30 11 2 11 12
M  V30 12 1 12 13
M  V30 13 2 13 14
M  V30 14 1 14 15
M  V30 15 2 15 16
M  V30 16 2 10 17
M  V30 17 1 17 18
M  V30 18 2 18 19
M  V30 19 1 19 20
M  V30 20 2 20 21
M  V30 21 1 21 22
M  V30 22 2 22 23
M  V30 23 1 6 2
M  V30 24 1 23 8
M  V30 25 1 16 11
M  V30 26 1 23 18
M  V30 27 1 1 24
M  V30 28 1 2 25 CFG=1
M  V30 29 1 3 26
M  V30 30 1 3 27
M  V30 31 1 4 28
M  V30 32 1 4 29
M  V30 33 1 5 30
M  V30 34 1 5 31
M  V30 35 1 6 32 CFG=1
M  V30 36 1 7 33
M  V30 37 1 12 34
M  V30 38 1 13 35
M  V30 39 1 15 36
M  V30 40 1 16 37
M  V30 41 1 19 38
M  V30 42 1 21 39
M  V30 43 1 22 40
M  V30 END BOND
M  V30 END CTAB
M  END
>  <Dataset>  (633) 
ChEMBL_Kinases

>  <Ligand_Instance>  (633) 
nan

>  <PDB_ID>  (633) 
nan

>  <Standardized_SMILES>  (633) 
O[C@@H]1CCC[C@@H]1Nc1nc(-c2ccncc2)nc2cnccc12

>  <Name>  (633) 
nan

>  <Pocket>  (633) 
nan

>  <ATP_Site>  (633) 
nan

>  <Peripheral>  (633) 
nan

>  <Num_H_Atoms_ProtBoundConf>  (633) 
nan

>  <Num_Resolved_Atoms>  (633) 
nan

>  <Num_Not_Resolved_Atoms>  (633) 
nan

$$$$
CHEMBL4749789
     RDKit          3D

  0  0  0  0  0  0  0  0  0  0999 V3000
M  V30 BEGIN CTAB
M  V30 COUNTS 61 64 0 0 0
M  V30 BEGIN ATOM
M  V30 1 C 2.396260 -1.090354 2.371220 0
M  V30 2 N 2.582338 0.290380 1.982927 0
M  V30 3 C 2.798887 1.071931 3.194179 0
M  V30 4 S 3.914562 0.478478 0.914051 0
M  V30 5 O 4.610038 1.771265 1.234892 0
M  V30 6 O 4.869586 -0.666404 1.182105 0
M  V30 7 N 3.418473 0.374631 -0.702768 0
M  V30 8 C 2.490803 1.360294 -1.120513 0
M  V30 9 C 2.865205 2.091816 -2.254658 0
M  V30 10 C 2.051025 3.121886 -2.726094 0
M  V30 11 C 0.849458 3.466310 -2.104291 0
M  V30 12 C 0.568279 2.710538 -1.023585 0
M  V30 13 C -0.687216 2.971373 -0.182819 0
M  V30 14 N -1.223843 2.377606 0.682820 0
M  V30 15 C -2.324802 2.727887 1.313591 0
M  V30 16 C -2.813664 1.765042 2.340536 0
M  V30 17 C -3.054821 0.492210 2.025263 0
M  V30 18 S -2.781301 -0.044241 0.312573 0
M  V30 19 C -3.328800 -1.711776 0.662671 0
M  V30 20 N -3.486286 -2.845443 -0.185235 0
M  V30 21 C -2.981453 -4.173193 0.059192 0
M  V30 22 C -1.509756 -4.345029 -0.069080 0
M  V30 23 C -1.227817 -5.820580 0.250090 0
M  V30 24 O -1.671921 -6.070095 1.537565 0
M  V30 25 C -1.093167 -4.083698 -1.522663 0
M  V30 26 C 0.031448 -3.086827 -1.463965 0
M  V30 27 C 0.654058 -3.426664 -0.109825 0
M  V30 28 C -0.638540 -3.448076 0.732659 0
M  V30 29 N -3.644441 -1.816898 1.906836 0
M  V30 30 C -3.519739 -0.688436 2.689216 0
M  V30 31 O -3.785115 -0.636073 3.928239 0
M  V30 32 C -2.918316 3.908472 0.930561 0
M  V30 33 S -1.717034 4.445498 -0.432599 0
M  V30 34 C 1.316855 1.681166 -0.498170 0
M  V30 35 H 1.332620 -1.419482 2.245432 0
M  V30 36 H 3.000128 -1.769253 1.711071 0
M  V30 37 H 2.678415 -1.209561 3.431731 0
M  V30 38 H 3.478951 1.892145 2.950076 0
M  V30 39 H 3.256812 0.380414 3.947896 0
M  V30 40 H 1.818491 1.413124 3.601958 0
M  V30 41 H 3.757709 -0.355151 -1.364722 0
M  V30 42 H 3.783690 1.873694 -2.780894 0
M  V30 43 H 2.371798 3.668980 -3.608807 0
M  V30 44 H 0.207294 4.242651 -2.435665 0
M  V30 45 H -3.021648 1.965830 3.405121 0
M  V30 46 H -4.033235 -2.606463 -1.079638 0
M  V30 47 H -3.395676 -4.543255 1.020562 0
M  V30 48 H -3.447311 -4.827208 -0.734555 0
M  V30 49 H -1.786940 -6.431279 -0.495451 0
M  V30 50 H -0.136000 -6.027390 0.226509 0
M  V30 51 H -1.778910 -5.220349 2.018337 0
M  V30 52 H -0.802536 -5.034654 -2.003245 0
M  V30 53 H -1.926969 -3.636195 -2.077513 0
M  V30 54 H 0.736655 -3.152338 -2.295811 0
M  V30 55 H -0.391447 -2.053946 -1.359059 0
M  V30 56 H 1.085757 -4.440323 -0.199966 0
M  V30 57 H 1.361425 -2.668817 0.211996 0
M  V30 58 H -1.001843 -2.415726 0.697308 0
M  V30 59 H -0.405232 -3.791343 1.762221 0
M  V30 60 H -3.821991 4.245758 1.413746 0
M  V30 61 H 1.042932 1.106529 0.371874 0
M  V30 END ATOM
M  V30 BEGIN BOND
M  V30 1 1 1 2
M  V30 2 1 2 3
M  V30 3 1 2 4
M  V30 4 2 4 5
M  V30 5 2 4 6
M  V30 6 1 4 7
M  V30 7 1 7 8
M  V30 8 2 8 9
M  V30 9 1 9 10
M  V30 10 2 10 11
M  V30 11 1 11 12
M  V30 12 1 12 13
M  V30 13 2 13 14
M  V30 14 1 14 15
M  V30 15 1 15 16
M  V30 16 2 16 17
M  V30 17 1 17 18
M  V30 18 1 18 19
M  V30 19 1 19 20
M  V30 20 1 20 21
M  V30 21 1 21 22
M  V30 22 1 22 23
M  V30 23 1 23 24
M  V30 24 1 22 25
M  V30 25 1 25 26
M  V30 26 1 26 27
M  V30 27 1 27 28
M  V30 28 2 19 29
M  V30 29 1 29 30
M  V30 30 2 30 31
M  V30 31 2 15 32
M  V30 32 1 32 33
M  V30 33 2 12 34
M  V30 34 1 34 8
M  V30 35 1 33 13
M  V30 36 1 30 17
M  V30 37 1 28 22
M  V30 38 1 1 35
M  V30 39 1 1 36
M  V30 40 1 1 37
M  V30 41 1 3 38
M  V30 42 1 3 39
M  V30 43 1 3 40
M  V30 44 1 7 41
M  V30 45 1 9 42
M  V30 46 1 10 43
M  V30 47 1 11 44
M  V30 48 1 16 45
M  V30 49 1 20 46
M  V30 50 1 21 47
M  V30 51 1 21 48
M  V30 52 1 23 49
M  V30 53 1 23 50
M  V30 54 1 24 51
M  V30 55 1 25 52
M  V30 56 1 25 53
M  V30 57 1 26 54
M  V30 58 1 26 55
M  V30 59 1 27 56
M  V30 60 1 27 57
M  V30 61 1 28 58
M  V30 62 1 28 59
M  V30 63 1 32 60
M  V30 64 1 34 61
M  V30 END BOND
M  V30 END CTAB
M  END
>  <Dataset>  (634) 
ChEMBL_Kinases

>  <Ligand_Instance>  (634) 
nan

>  <PDB_ID>  (634) 
nan

>  <Standardized_SMILES>  (634) 
CN(C)S(=O)(=O)Nc1cccc(-c2nc(/C=C3\SC(NCC4(CO)CCCC4)=NC3=O)cs2)c1

>  <Name>  (634) 
nan

>  <Pocket>  (634) 
nan

>  <ATP_Site>  (634) 
nan

>  <Peripheral>  (634) 
nan

>  <Num_H_Atoms_ProtBoundConf>  (634) 
nan

>  <Num_Resolved_Atoms>  (634) 
nan

>  <Num_Not_Resolved_Atoms>  (634) 
nan

$$$$
CHEMBL4449010
     RDKit          3D

  0  0  0  0  0  0  0  0  0  0999 V3000
M  V30 BEGIN CTAB
M  V30 COUNTS 42 43 0 0 0
M  V30 BEGIN ATOM
M  V30 1 O 2.863679 -4.800627 0.406244 0
M  V30 2 C 1.671985 -4.857946 0.874632 0
M  V30 3 C 0.341692 -4.365018 0.414478 0
M  V30 4 C 0.454426 -3.596159 -0.880075 0
M  V30 5 C 1.334988 -2.388973 -0.671938 0
M  V30 6 C 1.502679 -1.597719 -1.962568 0
M  V30 7 C 2.380243 -0.384663 -1.738023 0
M  V30 8 N 1.714262 0.468630 -0.771686 0
M  V30 9 C 2.338611 1.659420 -0.303799 0
M  V30 10 S 3.838686 2.007069 -0.880127 0
M  V30 11 N 1.747472 2.561099 0.625410 0
M  V30 12 C 0.490033 2.512753 1.254804 0
M  V30 13 C -0.249973 3.699334 1.129142 0
M  V30 14 C -1.509672 3.919701 1.644880 0
M  V30 15 C -2.079393 2.872331 2.343763 0
M  V30 16 C -1.394018 1.683949 2.496385 0
M  V30 17 C -0.135094 1.513999 1.960069 0
M  V30 18 C -2.263453 0.798257 3.273534 0
M  V30 19 O -1.992568 -0.383847 3.623544 0
M  V30 20 N -3.458738 1.525180 3.552100 0
M  V30 21 C -3.391868 2.829410 2.991139 0
M  V30 22 O -4.237020 3.754984 3.020933 0
M  V30 23 N 1.755594 -5.568120 2.099025 0
M  V30 24 O 2.885565 -6.068915 2.631734 0
M  V30 25 H -0.113118 -3.797990 1.239914 0
M  V30 26 H -0.347326 -5.238421 0.230041 0
M  V30 27 H -0.541332 -3.273431 -1.245346 0
M  V30 28 H 0.902383 -4.292461 -1.622969 0
M  V30 29 H 0.892121 -1.728837 0.098935 0
M  V30 30 H 2.317606 -2.695100 -0.319871 0
M  V30 31 H 0.479583 -1.298215 -2.259975 0
M  V30 32 H 1.925937 -2.267144 -2.743910 0
M  V30 33 H 2.330557 0.202014 -2.707128 0
M  V30 34 H 3.408160 -0.638640 -1.492677 0
M  V30 35 H 0.758466 0.285800 -0.357856 0
M  V30 36 H 2.321080 3.409939 0.914939 0
M  V30 37 H 0.150847 4.566352 0.582189 0
M  V30 38 H -2.026627 4.854852 1.510295 0
M  V30 39 H 0.436333 0.612793 2.049390 0
M  V30 40 H -4.266445 1.161025 4.088123 0
M  V30 41 H 0.950594 -5.784182 2.729655 0
M  V30 42 H 3.677955 -5.665031 2.204363 0
M  V30 END ATOM
M  V30 BEGIN BOND
M  V30 1 2 1 2
M  V30 2 1 2 3
M  V30 3 1 3 4
M  V30 4 1 4 5
M  V30 5 1 5 6
M  V30 6 1 6 7
M  V30 7 1 7 8
M  V30 8 1 8 9
M  V30 9 2 9 10
M  V30 10 1 9 11
M  V30 11 1 11 12
M  V30 12 2 12 13
M  V30 13 1 13 14
M  V30 14 2 14 15
M  V30 15 1 15 16
M  V30 16 2 16 17
M  V30 17 1 16 18
M  V30 18 2 18 19
M  V30 19 1 18 20
M  V30 20 1 20 21
M  V30 21 2 21 22
M  V30 22 1 2 23
M  V30 23 1 23 24
M  V30 24 1 17 12
M  V30 25 1 21 15
M  V30 26 1 3 25
M  V30 27 1 3 26
M  V30 28 1 4 27
M  V30 29 1 4 28
M  V30 30 1 5 29
M  V30 31 1 5 30
M  V30 32 1 6 31
M  V30 33 1 6 32
M  V30 34 1 7 33
M  V30 35 1 7 34
M  V30 36 1 8 35
M  V30 37 1 11 36
M  V30 38 1 13 37
M  V30 39 1 14 38
M  V30 40 1 17 39
M  V30 41 1 20 40
M  V30 42 1 23 41
M  V30 43 1 24 42
M  V30 END BOND
M  V30 END CTAB
M  END
>  <Dataset>  (635) 
ChEMBL_Kinases

>  <Ligand_Instance>  (635) 
nan

>  <PDB_ID>  (635) 
nan

>  <Standardized_SMILES>  (635) 
O=C(CCCCCNC(=S)Nc1ccc2c(c1)C(=O)NC2=O)NO

>  <Name>  (635) 
nan

>  <Pocket>  (635) 
nan

>  <ATP_Site>  (635) 
nan

>  <Peripheral>  (635) 
nan

>  <Num_H_Atoms_ProtBoundConf>  (635) 
nan

>  <Num_Resolved_Atoms>  (635) 
nan

>  <Num_Not_Resolved_Atoms>  (635) 
nan

$$$$
CHEMBL444885
     RDKit          3D

  0  0  0  0  0  0  0  0  0  0999 V3000
M  V30 BEGIN CTAB
M  V30 COUNTS 31 33 0 0 0
M  V30 BEGIN ATOM
M  V30 1 C -1.978225 -2.719235 3.191922 0
M  V30 2 C -0.498122 -2.700277 3.014639 0
M  V30 3 N -0.050471 -2.465483 1.665742 0
M  V30 4 N 0.185711 -3.404662 0.738349 0
M  V30 5 C 0.589470 -2.851417 -0.408981 0
M  V30 6 C 0.946624 -3.578951 -1.670808 0
M  V30 7 C 0.616186 -1.478617 -0.213748 0
M  V30 8 C 0.964358 -0.489663 -1.099244 0
M  V30 9 O 1.328700 -0.657888 -2.269999 0
M  V30 10 C 0.886360 0.800469 -0.594118 0
M  V30 11 C 1.207138 1.891120 -1.373529 0
M  V30 12 C 1.120569 3.162665 -0.845452 0
M  V30 13 Cl 1.536861 4.547290 -1.863202 0
M  V30 14 C 0.710868 3.371000 0.474955 0
M  V30 15 C 0.378757 2.282910 1.290247 0
M  V30 16 C 0.486023 1.039770 0.703360 0
M  V30 17 N 0.150648 0.018087 1.542297 0
M  V30 18 O -0.253135 0.204836 2.839856 0
M  V30 19 C 0.213615 -1.258240 1.086859 0
M  V30 20 H -2.375210 -1.724430 3.536727 0
M  V30 21 H -2.564426 -3.060028 2.337204 0
M  V30 22 H -2.256939 -3.410325 4.039403 0
M  V30 23 H -0.049177 -2.022123 3.753556 0
M  V30 24 H -0.119690 -3.723955 3.298810 0
M  V30 25 H 0.037144 -3.668162 -2.299429 0
M  V30 26 H 1.664589 -2.988153 -2.250586 0
M  V30 27 H 1.305467 -4.597776 -1.471266 0
M  V30 28 H 1.525273 1.792335 -2.386059 0
M  V30 29 H 0.649262 4.391872 0.874277 0
M  V30 30 H 0.064929 2.443063 2.301787 0
M  V30 31 H -1.268518 0.329656 2.971897 0
M  V30 END ATOM
M  V30 BEGIN BOND
M  V30 1 1 1 2
M  V30 2 1 2 3
M  V30 3 1 3 4
M  V30 4 2 4 5
M  V30 5 1 5 6
M  V30 6 1 5 7
M  V30 7 1 7 8
M  V30 8 2 8 9
M  V30 9 1 8 10
M  V30 10 2 10 11
M  V30 11 1 11 12
M  V30 12 1 12 13
M  V30 13 2 12 14
M  V30 14 1 14 15
M  V30 15 2 15 16
M  V30 16 1 16 17
M  V30 17 1 17 18
M  V30 18 1 17 19
M  V30 19 1 19 3
M  V30 20 2 19 7
M  V30 21 1 16 10
M  V30 22 1 1 20
M  V30 23 1 1 21
M  V30 24 1 1 22
M  V30 25 1 2 23
M  V30 26 1 2 24
M  V30 27 1 6 25
M  V30 28 1 6 26
M  V30 29 1 6 27
M  V30 30 1 11 28
M  V30 31 1 14 29
M  V30 32 1 15 30
M  V30 33 1 18 31
M  V30 END BOND
M  V30 END CTAB
M  END
>  <Dataset>  (636) 
ChEMBL_Kinases

>  <Ligand_Instance>  (636) 
nan

>  <PDB_ID>  (636) 
nan

>  <Standardized_SMILES>  (636) 
CCn1nc(C)c2c(=O)c3cc(Cl)ccc3n(O)c21

>  <Name>  (636) 
nan

>  <Pocket>  (636) 
nan

>  <ATP_Site>  (636) 
nan

>  <Peripheral>  (636) 
nan

>  <Num_H_Atoms_ProtBoundConf>  (636) 
nan

>  <Num_Resolved_Atoms>  (636) 
nan

>  <Num_Not_Resolved_Atoms>  (636) 
nan

$$$$
CHEMBL444884
     RDKit          3D

  0  0  0  0  0  0  0  0  0  0999 V3000
M  V30 BEGIN CTAB
M  V30 COUNTS 25 26 0 0 0
M  V30 BEGIN ATOM
M  V30 1 N -0.447249 -2.028034 4.988453 0
M  V30 2 C 0.458861 -2.534204 4.019976 0
M  V30 3 O 1.189875 -3.536985 4.160590 0
M  V30 4 C 0.558416 -1.833459 2.740456 0
M  V30 5 S -0.374464 -0.381031 2.293091 0
M  V30 6 C 0.344538 -0.219761 0.651418 0
M  V30 7 C 0.026958 0.804122 -0.322129 0
M  V30 8 C 0.647973 0.833448 -1.569604 0
M  V30 9 C 0.321530 1.817176 -2.463791 0
M  V30 10 C -0.612597 2.802685 -2.184556 0
M  V30 11 Cl -1.043134 4.059505 -3.300933 0
M  V30 12 C -1.183304 2.708461 -0.933766 0
M  V30 13 C -0.913364 1.747027 0.035194 0
M  V30 14 C 1.203616 -1.240672 0.572313 0
M  V30 15 C 1.360418 -2.113185 1.622176 0
M  V30 16 N 2.237626 -3.234706 1.664032 0
M  V30 17 H 0.107731 -1.298816 5.520944 0
M  V30 18 H -1.441142 -2.204837 5.257863 0
M  V30 19 H 1.363967 0.063648 -1.761253 0
M  V30 20 H 0.814354 1.820684 -3.423135 0
M  V30 21 H -1.921911 3.456378 -0.664391 0
M  V30 22 H -1.431364 1.781594 0.984161 0
M  V30 23 H 1.790758 -1.378566 -0.350137 0
M  V30 24 H 3.092710 -3.263140 2.250556 0
M  V30 25 H 1.934648 -4.031968 1.042436 0
M  V30 END ATOM
M  V30 BEGIN BOND
M  V30 1 1 1 2
M  V30 2 2 2 3
M  V30 3 1 2 4
M  V30 4 1 4 5
M  V30 5 1 5 6
M  V30 6 1 6 7
M  V30 7 2 7 8
M  V30 8 1 8 9
M  V30 9 2 9 10
M  V30 10 1 10 11
M  V30 11 1 10 12
M  V30 12 2 12 13
M  V30 13 2 6 14
M  V30 14 1 14 15
M  V30 15 1 15 16
M  V30 16 2 15 4
M  V30 17 1 13 7
M  V30 18 1 1 17
M  V30 19 1 1 18
M  V30 20 1 8 19
M  V30 21 1 9 20
M  V30 22 1 12 21
M  V30 23 1 13 22
M  V30 24 1 14 23
M  V30 25 1 16 24
M  V30 26 1 16 25
M  V30 END BOND
M  V30 END CTAB
M  END
>  <Dataset>  (637) 
ChEMBL_Kinases

>  <Ligand_Instance>  (637) 
nan

>  <PDB_ID>  (637) 
nan

>  <Standardized_SMILES>  (637) 
NC(=O)c1sc(-c2ccc(Cl)cc2)cc1N

>  <Name>  (637) 
nan

>  <Pocket>  (637) 
nan

>  <ATP_Site>  (637) 
nan

>  <Peripheral>  (637) 
nan

>  <Num_H_Atoms_ProtBoundConf>  (637) 
nan

>  <Num_Resolved_Atoms>  (637) 
nan

>  <Num_Not_Resolved_Atoms>  (637) 
nan

$$$$
CHEMBL4749819
     RDKit          3D

  0  0  0  0  0  0  0  0  0  0999 V3000
M  V30 BEGIN CTAB
M  V30 COUNTS 59 62 0 0 0
M  V30 BEGIN ATOM
M  V30 1 C 2.110242 0.761869 2.821244 0
M  V30 2 C 2.931928 1.978644 2.926138 0
M  V30 3 C 3.590218 2.168578 4.145137 0
M  V30 4 C 4.391590 3.265351 4.369320 0
M  V30 5 C 4.502760 4.156174 3.325122 0
M  V30 6 N 5.339955 5.274042 3.600620 0
M  V30 7 C 3.850808 3.949990 2.144361 0
M  V30 8 C 3.043436 2.869835 1.882547 0
M  V30 9 C 2.399140 2.723741 0.593741 0
M  V30 10 C 2.698426 3.614456 -0.388137 0
M  V30 11 C 2.182619 3.593803 -1.681183 0
M  V30 12 N 1.315885 2.600356 -1.962543 0
M  V30 13 C 0.985704 1.684642 -1.009191 0
M  V30 14 N 0.085010 0.663991 -1.404321 0
M  V30 15 C -0.530203 -0.354263 -0.627788 0
M  V30 16 C -0.624147 -0.342962 0.746773 0
M  V30 17 C -1.178586 -1.304038 1.556351 0
M  V30 18 C -1.690380 -2.390584 0.877481 0
M  V30 19 C -1.647030 -2.498264 -0.498562 0
M  V30 20 C -1.067397 -1.479497 -1.240442 0
M  V30 21 N -2.198475 -3.658063 -1.138855 0
M  V30 22 C -2.719898 -3.507361 -2.477608 0
M  V30 23 C -1.992951 -4.330908 -3.514741 0
M  V30 24 C -4.220053 -3.844974 -2.477767 0
M  V30 25 C -2.189884 -4.871378 -0.413807 0 CFG=2
M  V30 26 C -2.838003 -6.063893 -0.971538 0
M  V30 27 C -2.815637 -4.575684 0.927140 0
M  V30 28 O -3.762800 -5.197548 1.515793 0
M  V30 29 N -2.288935 -3.448200 1.652186 0
M  V30 30 C -2.332390 -3.328960 3.115483 0
M  V30 31 N 1.532336 1.794118 0.188481 0
M  V30 32 H 1.058735 0.960333 3.138530 0
M  V30 33 H 2.115597 0.278215 1.836521 0
M  V30 34 H 2.493474 0.015239 3.562234 0
M  V30 35 H 3.477482 1.433537 4.957260 0
M  V30 36 H 4.867814 3.355868 5.320544 0
M  V30 37 H 6.365489 5.186084 3.343440 0
M  V30 38 H 5.264850 6.231161 4.007241 0
M  V30 39 H 4.057881 4.745583 1.464460 0
M  V30 40 H 3.373605 4.470053 -0.336731 0
M  V30 41 H 2.382683 4.262993 -2.482383 0
M  V30 42 H -0.198201 0.623720 -2.423291 0
M  V30 43 H -0.210008 0.550298 1.177697 0
M  V30 44 H -1.197070 -1.189389 2.634365 0
M  V30 45 H -1.029673 -1.565024 -2.335470 0
M  V30 46 H -2.722924 -2.466003 -2.833512 0
M  V30 47 H -1.576136 -3.705710 -4.347091 0
M  V30 48 H -1.077227 -4.838311 -3.095178 0
M  V30 49 H -2.666134 -5.051051 -4.032366 0
M  V30 50 H -4.392110 -4.896932 -2.749190 0
M  V30 51 H -4.566111 -3.658038 -1.439781 0
M  V30 52 H -4.775448 -3.183388 -3.140925 0
M  V30 53 H -1.128463 -5.134437 -0.173449 0
M  V30 54 H -2.628884 -6.329858 -2.004188 0
M  V30 55 H -3.928205 -6.041050 -0.703383 0
M  V30 56 H -2.487338 -6.965979 -0.386906 0
M  V30 57 H -2.597843 -4.329981 3.520501 0
M  V30 58 H -1.352212 -3.037136 3.524806 0
M  V30 59 H -3.118040 -2.638745 3.424361 0
M  V30 END ATOM
M  V30 BEGIN BOND
M  V30 1 1 1 2
M  V30 2 2 2 3
M  V30 3 1 3 4
M  V30 4 2 4 5
M  V30 5 1 5 6
M  V30 6 1 5 7
M  V30 7 2 7 8
M  V30 8 1 8 9
M  V30 9 2 9 10
M  V30 10 1 10 11
M  V30 11 2 11 12
M  V30 12 1 12 13
M  V30 13 1 13 14
M  V30 14 1 14 15
M  V30 15 2 15 16
M  V30 16 1 16 17
M  V30 17 2 17 18
M  V30 18 1 18 19
M  V30 19 2 19 20
M  V30 20 1 19 21
M  V30 21 1 21 22
M  V30 22 1 22 23
M  V30 23 1 22 24
M  V30 24 1 21 25
M  V30 25 1 25 26
M  V30 26 1 25 27
M  V30 27 2 27 28
M  V30 28 1 27 29
M  V30 29 1 29 30
M  V30 30 2 13 31
M  V30 31 1 8 2
M  V30 32 1 31 9
M  V30 33 1 20 15
M  V30 34 1 29 18
M  V30 35 1 1 32
M  V30 36 1 1 33
M  V30 37 1 1 34
M  V30 38 1 3 35
M  V30 39 1 4 36
M  V30 40 1 6 37
M  V30 41 1 6 38
M  V30 42 1 7 39
M  V30 43 1 10 40
M  V30 44 1 11 41
M  V30 45 1 14 42
M  V30 46 1 16 43
M  V30 47 1 17 44
M  V30 48 1 20 45
M  V30 49 1 22 46
M  V30 50 1 23 47
M  V30 51 1 23 48
M  V30 52 1 23 49
M  V30 53 1 24 50
M  V30 54 1 24 51
M  V30 55 1 24 52
M  V30 56 1 25 53 CFG=1
M  V30 57 1 26 54
M  V30 58 1 26 55
M  V30 59 1 26 56
M  V30 60 1 30 57
M  V30 61 1 30 58
M  V30 62 1 30 59
M  V30 END BOND
M  V30 END CTAB
M  END
>  <Dataset>  (638) 
ChEMBL_Kinases

>  <Ligand_Instance>  (638) 
nan

>  <PDB_ID>  (638) 
nan

>  <Standardized_SMILES>  (638) 
Cc1ccc(N)cc1-c1ccnc(Nc2ccc3c(c2)N(C(C)C)[C@H](C)C(=O)N3C)n1

>  <Name>  (638) 
nan

>  <Pocket>  (638) 
nan

>  <ATP_Site>  (638) 
nan

>  <Peripheral>  (638) 
nan

>  <Num_H_Atoms_ProtBoundConf>  (638) 
nan

>  <Num_Resolved_Atoms>  (638) 
nan

>  <Num_Not_Resolved_Atoms>  (638) 
nan

$$$$
CHEMBL4448758
     RDKit          3D

  0  0  0  0  0  0  0  0  0  0999 V3000
M  V30 BEGIN CTAB
M  V30 COUNTS 51 54 0 0 0
M  V30 BEGIN ATOM
M  V30 1 C 0.580221 0.123360 2.056798 0
M  V30 2 C 0.910282 0.248815 0.609103 0
M  V30 3 C -0.038222 1.308773 0.019689 0
M  V30 4 C 2.290106 0.693301 0.263281 0
M  V30 5 N 3.391182 -0.078004 0.661832 0
M  V30 6 C 3.762954 -0.154290 2.015771 0
M  V30 7 C 4.197788 1.167695 2.608417 0
M  V30 8 O 5.093580 1.842377 1.795722 0
M  V30 9 C 4.870989 1.772215 0.453240 0
M  V30 10 C 4.578320 0.384308 -0.068452 0
M  V30 11 N 0.565967 -1.004167 -0.101667 0
M  V30 12 C -0.724017 -1.587847 -0.092815 0
M  V30 13 N -1.737770 -1.050852 0.579245 0
M  V30 14 C -2.952036 -1.637485 0.574258 0
M  V30 15 C -4.116800 -1.100754 1.296815 0
M  V30 16 C -4.060947 0.054823 2.047374 0
M  V30 17 C -5.137455 0.577341 2.734748 0
M  V30 18 N -6.320573 -0.068137 2.679262 0
M  V30 19 C -6.430711 -1.200126 1.961541 0
M  V30 20 C -5.363016 -1.730840 1.271742 0
M  V30 21 N -3.171607 -2.776005 -0.106765 0
M  V30 22 C -2.192985 -3.354387 -0.794888 0
M  V30 23 C -2.441517 -4.518582 -1.482605 0
M  V30 24 N -1.442748 -5.095372 -2.175147 0
M  V30 25 C -0.202432 -4.575707 -2.222822 0
M  V30 26 C 0.007504 -3.406370 -1.519591 0
M  V30 27 C -0.951892 -2.746856 -0.784464 0
M  V30 28 H 0.671996 -0.911180 2.468936 0
M  V30 29 H -0.520310 0.402205 2.227810 0
M  V30 30 H 1.141072 0.864298 2.649367 0
M  V30 31 H -0.897417 0.856602 -0.500429 0
M  V30 32 H 0.502511 1.928639 -0.744139 0
M  V30 33 H -0.389436 1.972508 0.832794 0
M  V30 34 H 2.351804 1.772525 0.634365 0
M  V30 35 H 2.323055 0.739159 -0.877294 0
M  V30 36 H 2.971170 -0.585720 2.635464 0
M  V30 37 H 4.628961 -0.896994 2.074813 0
M  V30 38 H 3.311036 1.767676 2.867434 0
M  V30 39 H 4.726101 0.937963 3.556704 0
M  V30 40 H 4.140177 2.499663 0.042795 0
M  V30 41 H 5.845294 2.060739 -0.047248 0
M  V30 42 H 5.462375 -0.244340 0.230889 0
M  V30 43 H 4.437545 0.413976 -1.146168 0
M  V30 44 H 1.378915 -1.405980 -0.605950 0
M  V30 45 H -3.112179 0.591097 2.104219 0
M  V30 46 H -5.086972 1.485944 3.322867 0
M  V30 47 H -7.337582 -1.763235 1.873876 0
M  V30 48 H -5.436364 -2.631155 0.697454 0
M  V30 49 H -3.413850 -4.970975 -1.476327 0
M  V30 50 H 0.569924 -5.065341 -2.787867 0
M  V30 51 H 1.015712 -3.032010 -1.589322 0
M  V30 END ATOM
M  V30 BEGIN BOND
M  V30 1 1 1 2
M  V30 2 1 2 3
M  V30 3 1 2 4
M  V30 4 1 4 5
M  V30 5 1 5 6
M  V30 6 1 6 7
M  V30 7 1 7 8
M  V30 8 1 8 9
M  V30 9 1 9 10
M  V30 10 1 2 11
M  V30 11 1 11 12
M  V30 12 2 12 13
M  V30 13 1 13 14
M  V30 14 1 14 15
M  V30 15 2 15 16
M  V30 16 1 16 17
M  V30 17 2 17 18
M  V30 18 1 18 19
M  V30 19 2 19 20
M  V30 20 2 14 21
M  V30 21 1 21 22
M  V30 22 2 22 23
M  V30 23 1 23 24
M  V30 24 2 24 25
M  V30 25 1 25 26
M  V30 26 2 26 27
M  V30 27 1 10 5
M  V30 28 1 27 12
M  V30 29 1 20 15
M  V30 30 1 27 22
M  V30 31 1 1 28
M  V30 32 1 1 29
M  V30 33 1 1 30
M  V30 34 1 3 31
M  V30 35 1 3 32
M  V30 36 1 3 33
M  V30 37 1 4 34
M  V30 38 1 4 35
M  V30 39 1 6 36
M  V30 40 1 6 37
M  V30 41 1 7 38
M  V30 42 1 7 39
M  V30 43 1 9 40
M  V30 44 1 9 41
M  V30 45 1 10 42
M  V30 46 1 10 43
M  V30 47 1 11 44
M  V30 48 1 16 45
M  V30 49 1 17 46
M  V30 50 1 19 47
M  V30 51 1 20 48
M  V30 52 1 23 49
M  V30 53 1 25 50
M  V30 54 1 26 51
M  V30 END BOND
M  V30 END CTAB
M  END
>  <Dataset>  (639) 
ChEMBL_Kinases

>  <Ligand_Instance>  (639) 
nan

>  <PDB_ID>  (639) 
nan

>  <Standardized_SMILES>  (639) 
CC(C)(CN1CCOCC1)Nc1nc(-c2ccncc2)nc2cnccc12

>  <Name>  (639) 
nan

>  <Pocket>  (639) 
nan

>  <ATP_Site>  (639) 
nan

>  <Peripheral>  (639) 
nan

>  <Num_H_Atoms_ProtBoundConf>  (639) 
nan

>  <Num_Resolved_Atoms>  (639) 
nan

>  <Num_Not_Resolved_Atoms>  (639) 
nan

$$$$
CHEMBL444874
     RDKit          3D

  0  0  0  0  0  0  0  0  0  0999 V3000
M  V30 BEGIN CTAB
M  V30 COUNTS 43 46 0 0 0
M  V30 BEGIN ATOM
M  V30 1 C 2.313019 -0.886013 6.724330 0
M  V30 2 C 1.923339 -0.245370 5.438745 0
M  V30 3 C 0.917588 0.698853 5.458377 0
M  V30 4 C 0.558136 1.290009 4.276869 0
M  V30 5 C 1.166495 0.976723 3.056343 0
M  V30 6 C 2.180109 0.017441 3.071763 0
M  V30 7 N 2.809712 -0.310701 1.820374 0
M  V30 8 C 2.353746 0.381563 0.662887 0
M  V30 9 N 2.960941 1.536199 0.292623 0
M  V30 10 C 2.549629 2.216832 -0.802466 0
M  V30 11 C 1.501516 1.730085 -1.549403 0
M  V30 12 C 1.072220 2.492311 -2.746492 0
M  V30 13 F 1.176449 1.775979 -3.915580 0
M  V30 14 F 1.828194 3.640087 -2.883286 0
M  V30 15 F -0.242324 2.923315 -2.639302 0
M  V30 16 C 0.865857 0.558847 -1.196027 0
M  V30 17 N -0.216641 0.064916 -1.971869 0
M  V30 18 C -1.012065 -1.098966 -1.795025 0
M  V30 19 C -2.013823 -1.425153 -2.684929 0
M  V30 20 C -2.803476 -2.538777 -2.545332 0
M  V30 21 C -2.618407 -3.392309 -1.483879 0
M  V30 22 N -3.232645 -4.527564 -1.111029 0
M  V30 23 C -2.665296 -4.981505 0.019970 0
M  V30 24 N -1.675357 -4.099304 0.349238 0
M  V30 25 C -1.631502 -3.111521 -0.567784 0
M  V30 26 C -0.863355 -1.981354 -0.749368 0
M  V30 27 N 1.340062 -0.043707 -0.101109 0
M  V30 28 C 2.555188 -0.586955 4.247460 0
M  V30 29 H 2.332015 -0.133579 7.529912 0
M  V30 30 H 3.309155 -1.345823 6.626651 0
M  V30 31 H 1.599000 -1.712845 6.968536 0
M  V30 32 H 0.400369 0.993664 6.362404 0
M  V30 33 H -0.227486 2.034343 4.262945 0
M  V30 34 H 0.827318 1.487676 2.159492 0
M  V30 35 H 3.567285 -1.040508 1.837955 0
M  V30 36 H 3.025229 3.144426 -1.113941 0
M  V30 37 H -0.482668 0.650706 -2.819763 0
M  V30 38 H -2.196398 -0.779722 -3.539650 0
M  V30 39 H -3.564411 -2.733634 -3.273660 0
M  V30 40 H -4.030739 -4.992795 -1.618381 0
M  V30 41 H -2.893254 -5.867624 0.614788 0
M  V30 42 H -0.127835 -1.836808 -0.002451 0
M  V30 43 H 3.340079 -1.320821 4.217854 0
M  V30 END ATOM
M  V30 BEGIN BOND
M  V30 1 1 1 2
M  V30 2 2 2 3
M  V30 3 1 3 4
M  V30 4 2 4 5
M  V30 5 1 5 6
M  V30 6 1 6 7
M  V30 7 1 7 8
M  V30 8 2 8 9
M  V30 9 1 9 10
M  V30 10 2 10 11
M  V30 11 1 11 12
M  V30 12 1 12 13
M  V30 13 1 12 14
M  V30 14 1 12 15
M  V30 15 1 11 16
M  V30 16 1 16 17
M  V30 17 1 17 18
M  V30 18 2 18 19
M  V30 19 1 19 20
M  V30 20 2 20 21
M  V30 21 1 21 22
M  V30 22 1 22 23
M  V30 23 2 23 24
M  V30 24 1 24 25
M  V30 25 2 25 26
M  V30 26 2 16 27
M  V30 27 2 6 28
M  V30 28 1 28 2
M  V30 29 1 27 8
M  V30 30 1 26 18
M  V30 31 1 25 21
M  V30 32 1 1 29
M  V30 33 1 1 30
M  V30 34 1 1 31
M  V30 35 1 3 32
M  V30 36 1 4 33
M  V30 37 1 5 34
M  V30 38 1 7 35
M  V30 39 1 10 36
M  V30 40 1 17 37
M  V30 41 1 19 38
M  V30 42 1 20 39
M  V30 43 1 22 40
M  V30 44 1 23 41
M  V30 45 1 26 42
M  V30 46 1 28 43
M  V30 END BOND
M  V30 END CTAB
M  END
>  <Dataset>  (640) 
ChEMBL_Kinases

>  <Ligand_Instance>  (640) 
nan

>  <PDB_ID>  (640) 
nan

>  <Standardized_SMILES>  (640) 
Cc1cccc(Nc2ncc(C(F)(F)F)c(Nc3ccc4[nH]cnc4c3)n2)c1

>  <Name>  (640) 
nan

>  <Pocket>  (640) 
nan

>  <ATP_Site>  (640) 
nan

>  <Peripheral>  (640) 
nan

>  <Num_H_Atoms_ProtBoundConf>  (640) 
nan

>  <Num_Resolved_Atoms>  (640) 
nan

>  <Num_Not_Resolved_Atoms>  (640) 
nan

$$$$
CHEMBL4749403
     RDKit          3D

  0  0  0  0  0  0  0  0  0  0999 V3000
M  V30 BEGIN CTAB
M  V30 COUNTS 76 81 0 0 0
M  V30 BEGIN ATOM
M  V30 1 C 4.601793 0.387327 -1.131000 0
M  V30 2 C 5.150757 1.546898 -0.329890 0
M  V30 3 C 4.871659 1.370653 1.148900 0 CFG=2
M  V30 4 C 5.522988 0.115851 1.581790 0
M  V30 5 N 6.845301 -0.133777 1.410014 0
M  V30 6 N 7.085784 -1.333497 1.909028 0
M  V30 7 C 5.959999 -1.889966 2.408548 0
M  V30 8 N 5.021101 -0.971686 2.189987 0
M  V30 9 C 3.631455 -0.896778 2.454301 0
M  V30 10 C 3.016010 -1.962700 3.081790 0
M  V30 11 N 1.701997 -1.915269 3.346571 0
M  V30 12 C 0.965339 -0.842842 3.011039 0
M  V30 13 N -0.434365 -0.548716 3.178251 0
M  V30 14 C -1.465016 -0.842077 2.216047 0
M  V30 15 C -0.956875 -1.483799 1.081689 0
M  V30 16 C -1.764144 -1.858263 0.029397 0
M  V30 17 C -3.105059 -1.567525 0.150580 0
M  V30 18 C -4.108594 -1.879934 -0.858852 0
M  V30 19 O -5.343642 -1.629113 -0.834336 0
M  V30 20 N -3.758320 -2.550461 -2.061583 0
M  V30 21 C -4.547958 -2.956864 -3.182363 0
M  V30 22 C -3.966503 -2.319102 -4.425027 0
M  V30 23 C -2.837197 -3.191067 -4.955847 0
M  V30 24 N -3.272141 -4.514430 -5.322057 0
M  V30 25 C -2.422591 -5.493113 -4.676843 0
M  V30 26 C -4.630114 -4.724126 -4.859512 0
M  V30 27 C -4.612452 -4.447393 -3.372968 0
M  V30 28 C -3.646608 -0.935004 1.254547 0
M  V30 29 C -2.833159 -0.564731 2.300346 0
M  V30 30 O -3.099698 0.067221 3.498947 0
M  V30 31 C -4.433459 0.437955 3.781680 0
M  V30 32 N 1.609504 0.167056 2.403113 0
M  V30 33 C 2.895307 0.215414 2.099909 0
M  V30 34 N 3.462045 1.355394 1.452426 0
M  V30 35 C 2.711144 2.506823 1.068465 0
M  V30 36 C 1.976015 3.166496 2.170050 0
M  V30 37 C 0.646490 3.011237 2.517310 0
M  V30 38 C 0.102358 3.685380 3.591959 0
M  V30 39 C 0.846025 4.543437 4.371145 0
M  V30 40 F 0.227877 5.159487 5.404352 0
M  V30 41 C 2.185031 4.726210 4.053801 0
M  V30 42 C 2.691525 4.034525 2.972641 0
M  V30 43 H 3.831599 -0.193676 -0.574857 0
M  V30 44 H 4.183024 0.738363 -2.091371 0
M  V30 45 H 5.415860 -0.332359 -1.400034 0
M  V30 46 H 4.751063 2.515113 -0.647272 0
M  V30 47 H 6.250653 1.558185 -0.454300 0
M  V30 48 H 5.306086 2.252177 1.659785 0
M  V30 49 H 5.766608 -2.840740 2.886566 0
M  V30 50 H 3.522239 -2.863829 3.388311 0
M  V30 51 H -0.802628 -0.095702 4.026783 0
M  V30 52 H 0.096064 -1.736864 0.944462 0
M  V30 53 H -1.408591 -2.354534 -0.861452 0
M  V30 54 H -2.769224 -2.850597 -2.270786 0
M  V30 55 H -5.591725 -2.606786 -3.049168 0
M  V30 56 H -4.715257 -2.083780 -5.180322 0
M  V30 57 H -3.461010 -1.344214 -4.160621 0
M  V30 58 H -2.080605 -3.250267 -4.146205 0
M  V30 59 H -2.333890 -2.669048 -5.810857 0
M  V30 60 H -2.989322 -6.342197 -4.264388 0
M  V30 61 H -1.590854 -5.819275 -5.361227 0
M  V30 62 H -1.879832 -5.039561 -3.804921 0
M  V30 63 H -4.887960 -5.766825 -5.097991 0
M  V30 64 H -5.344267 -4.016368 -5.366946 0
M  V30 65 H -5.565948 -4.841650 -2.970803 0
M  V30 66 H -3.734556 -4.977843 -2.955385 0
M  V30 67 H -4.673655 -0.677060 1.424501 0
M  V30 68 H -4.461546 1.298841 4.513604 0
M  V30 69 H -4.993119 0.721838 2.848969 0
M  V30 70 H -5.008849 -0.387674 4.254922 0
M  V30 71 H 1.930208 2.214385 0.321169 0
M  V30 72 H 3.363033 3.290807 0.621512 0
M  V30 73 H 0.058456 2.349950 1.902160 0
M  V30 74 H -0.960332 3.515843 3.813307 0
M  V30 75 H 2.780523 5.396242 4.653918 0
M  V30 76 H 3.740748 4.214141 2.768046 0
M  V30 END ATOM
M  V30 BEGIN BOND
M  V30 1 1 1 2
M  V30 2 1 2 3
M  V30 3 1 3 4
M  V30 4 2 4 5
M  V30 5 1 5 6
M  V30 6 2 6 7
M  V30 7 1 7 8
M  V30 8 1 8 9
M  V30 9 2 9 10
M  V30 10 1 10 11
M  V30 11 2 11 12
M  V30 12 1 12 13
M  V30 13 1 13 14
M  V30 14 2 14 15
M  V30 15 1 15 16
M  V30 16 2 16 17
M  V30 17 1 17 18
M  V30 18 2 18 19
M  V30 19 1 18 20
M  V30 20 1 20 21
M  V30 21 1 21 22
M  V30 22 1 22 23
M  V30 23 1 23 24
M  V30 24 1 24 25
M  V30 25 1 24 26
M  V30 26 1 26 27
M  V30 27 1 17 28
M  V30 28 2 28 29
M  V30 29 1 29 30
M  V30 30 1 30 31
M  V30 31 1 12 32
M  V30 32 2 32 33
M  V30 33 1 33 34
M  V30 34 1 34 35
M  V30 35 1 35 36
M  V30 36 2 36 37
M  V30 37 1 37 38
M  V30 38 2 38 39
M  V30 39 1 39 40
M  V30 40 1 39 41
M  V30 41 2 41 42
M  V30 42 1 34 3
M  V30 43 1 42 36
M  V30 44 1 8 4
M  V30 45 1 33 9
M  V30 46 1 29 14
M  V30 47 1 27 21
M  V30 48 1 1 43
M  V30 49 1 1 44
M  V30 50 1 1 45
M  V30 51 1 2 46
M  V30 52 1 2 47
M  V30 53 1 3 48 CFG=1
M  V30 54 1 7 49
M  V30 55 1 10 50
M  V30 56 1 13 51
M  V30 57 1 15 52
M  V30 58 1 16 53
M  V30 59 1 20 54
M  V30 60 1 21 55
M  V30 61 1 22 56
M  V30 62 1 22 57
M  V30 63 1 23 58
M  V30 64 1 23 59
M  V30 65 1 25 60
M  V30 66 1 25 61
M  V30 67 1 25 62
M  V30 68 1 26 63
M  V30 69 1 26 64
M  V30 70 1 27 65
M  V30 71 1 27 66
M  V30 72 1 28 67
M  V30 73 1 31 68
M  V30 74 1 31 69
M  V30 75 1 31 70
M  V30 76 1 35 71
M  V30 77 1 35 72
M  V30 78 1 37 73
M  V30 79 1 38 74
M  V30 80 1 41 75
M  V30 81 1 42 76
M  V30 END BOND
M  V30 END CTAB
M  END
>  <Dataset>  (641) 
ChEMBL_Kinases

>  <Ligand_Instance>  (641) 
nan

>  <PDB_ID>  (641) 
nan

>  <Standardized_SMILES>  (641) 
CC[C@@H]1c2nncn2-c2cnc(Nc3ccc(C(=O)NC4CCN(C)CC4)cc3OC)nc2N1Cc1ccc(F)cc1

>  <Name>  (641) 
nan

>  <Pocket>  (641) 
nan

>  <ATP_Site>  (641) 
nan

>  <Peripheral>  (641) 
nan

>  <Num_H_Atoms_ProtBoundConf>  (641) 
nan

>  <Num_Resolved_Atoms>  (641) 
nan

>  <Num_Not_Resolved_Atoms>  (641) 
nan

$$$$
CHEMBL4448695
     RDKit          3D

  0  0  0  0  0  0  0  0  0  0999 V3000
M  V30 BEGIN CTAB
M  V30 COUNTS 50 53 0 0 0
M  V30 BEGIN ATOM
M  V30 1 C 6.232799 -3.381659 3.205464 0
M  V30 2 N 4.836466 -3.636806 2.902357 0
M  V30 3 C 4.197184 -4.925282 3.092077 0
M  V30 4 C 4.051427 -2.565042 2.391365 0
M  V30 5 C 4.590758 -1.309251 2.184015 0
M  V30 6 C 3.829958 -0.249949 1.682966 0
M  V30 7 C 2.498291 -0.457356 1.383893 0
M  V30 8 C 1.594917 0.559894 0.856297 0
M  V30 9 C 1.988013 1.856056 0.598095 0
M  V30 10 C 1.163817 2.844430 0.099732 0
M  V30 11 N 1.610309 4.089170 -0.129792 0
M  V30 12 C 0.788704 5.054740 -0.621164 0
M  V30 13 C -0.538457 4.691386 -0.875218 0
M  V30 14 N -1.017288 3.444161 -0.653633 0
M  V30 15 C -0.150773 2.516208 -0.160786 0
M  V30 16 C -0.542866 1.218738 0.098048 0
M  V30 17 N -1.903612 0.810989 -0.152409 0
M  V30 18 C -2.337885 -0.547906 0.112297 0
M  V30 19 C -3.796232 -0.782424 -0.212592 0 CFG=1
M  V30 20 C -3.994950 -0.595161 -1.703183 0
M  V30 21 N -5.395926 -0.713152 -2.054542 0
M  V30 22 C -6.086334 -1.655983 -1.199256 0
M  V30 23 C -5.143282 -2.649540 -0.569912 0
M  V30 24 O -4.072706 -2.101647 0.082991 0
M  V30 25 N 0.310971 0.299909 0.584848 0
M  V30 26 C 1.988634 -1.722056 1.601713 0
M  V30 27 N 2.750319 -2.722698 2.086531 0
M  V30 28 H 6.830024 -3.209178 2.293037 0
M  V30 29 H 6.279048 -2.524451 3.916322 0
M  V30 30 H 6.599868 -4.263211 3.785975 0
M  V30 31 H 4.155949 -5.529313 2.151455 0
M  V30 32 H 3.109930 -4.771884 3.353003 0
M  V30 33 H 4.614077 -5.519766 3.915061 0
M  V30 34 H 5.628649 -1.165738 2.422157 0
M  V30 35 H 4.242275 0.728975 1.519229 0
M  V30 36 H 3.000947 2.162865 0.783735 0
M  V30 37 H 1.155371 6.050392 -0.802245 0
M  V30 38 H -1.147271 5.504830 -1.266857 0
M  V30 39 H -2.582120 1.521588 -0.533621 0
M  V30 40 H -1.702553 -1.265536 -0.440801 0
M  V30 41 H -2.213081 -0.793326 1.203622 0
M  V30 42 H -4.462729 -0.128530 0.385024 0
M  V30 43 H -3.459172 -1.452188 -2.187687 0
M  V30 44 H -3.574112 0.387303 -1.981801 0
M  V30 45 H -5.880237 0.220436 -1.913352 0
M  V30 46 H -6.784776 -2.245434 -1.840236 0
M  V30 47 H -6.687112 -1.154850 -0.436208 0
M  V30 48 H -5.767102 -3.225717 0.167221 0
M  V30 49 H -4.856988 -3.413205 -1.334187 0
M  V30 50 H 0.950381 -1.925268 1.380212 0
M  V30 END ATOM
M  V30 BEGIN BOND
M  V30 1 1 1 2
M  V30 2 1 2 3
M  V30 3 1 2 4
M  V30 4 2 4 5
M  V30 5 1 5 6
M  V30 6 2 6 7
M  V30 7 1 7 8
M  V30 8 2 8 9
M  V30 9 1 9 10
M  V30 10 2 10 11
M  V30 11 1 11 12
M  V30 12 2 12 13
M  V30 13 1 13 14
M  V30 14 2 14 15
M  V30 15 1 15 16
M  V30 16 1 16 17
M  V30 17 1 17 18
M  V30 18 1 18 19
M  V30 19 1 19 20
M  V30 20 1 20 21
M  V30 21 1 21 22
M  V30 22 1 22 23
M  V30 23 1 23 24
M  V30 24 2 16 25
M  V30 25 1 7 26
M  V30 26 2 26 27
M  V30 27 1 27 4
M  V30 28 1 25 8
M  V30 29 1 15 10
M  V30 30 1 24 19
M  V30 31 1 1 28
M  V30 32 1 1 29
M  V30 33 1 1 30
M  V30 34 1 3 31
M  V30 35 1 3 32
M  V30 36 1 3 33
M  V30 37 1 5 34
M  V30 38 1 6 35
M  V30 39 1 9 36
M  V30 40 1 12 37
M  V30 41 1 13 38
M  V30 42 1 17 39
M  V30 43 1 18 40
M  V30 44 1 18 41
M  V30 45 1 19 42 CFG=1
M  V30 46 1 20 43
M  V30 47 1 20 44
M  V30 48 1 21 45
M  V30 49 1 22 46
M  V30 50 1 22 47
M  V30 51 1 23 48
M  V30 52 1 23 49
M  V30 53 1 26 50
M  V30 END BOND
M  V30 END CTAB
M  END
>  <Dataset>  (642) 
ChEMBL_Kinases

>  <Ligand_Instance>  (642) 
nan

>  <PDB_ID>  (642) 
nan

>  <Standardized_SMILES>  (642) 
CN(C)c1ccc(-c2cc3nccnc3c(NC[C@H]3CNCCO3)n2)cn1

>  <Name>  (642) 
nan

>  <Pocket>  (642) 
nan

>  <ATP_Site>  (642) 
nan

>  <Peripheral>  (642) 
nan

>  <Num_H_Atoms_ProtBoundConf>  (642) 
nan

>  <Num_Resolved_Atoms>  (642) 
nan

>  <Num_Not_Resolved_Atoms>  (642) 
nan

$$$$
CHEMBL4448678
     RDKit          3D

  0  0  0  0  0  0  0  0  0  0999 V3000
M  V30 BEGIN CTAB
M  V30 COUNTS 45 48 0 0 0
M  V30 BEGIN ATOM
M  V30 1 N -0.304581 -4.539158 -2.307141 0
M  V30 2 C -0.087158 -4.112184 -0.971578 0
M  V30 3 O -0.076064 -5.146646 -0.244961 0
M  V30 4 C 0.078748 -2.730879 -0.611347 0
M  V30 5 C 0.015116 -1.779923 -1.625619 0
M  V30 6 C 0.178716 -0.466802 -1.256880 0
M  V30 7 C 0.118250 0.577651 -2.299855 0
M  V30 8 C -0.697391 0.410281 -3.412039 0
M  V30 9 C -0.706513 1.428744 -4.351154 0
M  V30 10 C 0.065508 2.581092 -4.201230 0
M  V30 11 C 0.875054 2.721548 -3.074265 0
M  V30 12 C 0.890214 1.707562 -2.129729 0
M  V30 13 C 0.395847 -0.092899 0.048835 0
M  V30 14 C 0.461355 -1.043288 1.075769 0
M  V30 15 C 0.664321 -0.989742 2.465331 0
M  V30 16 C 0.869853 0.318447 3.091909 0
M  V30 17 C -0.463830 0.927003 3.451681 0
M  V30 18 C -0.766276 0.756735 4.897703 0
M  V30 19 C -0.259904 -0.513049 5.454687 0
M  V30 20 O -0.936117 -1.480853 5.830401 0
M  V30 21 C 1.210771 -0.418723 5.482574 0
M  V30 22 C 1.753777 0.324783 4.304917 0
M  V30 23 C 0.601282 -2.316673 2.809552 0
M  V30 24 N 0.383577 -3.132482 1.767166 0
M  V30 25 C 0.295808 -2.356860 0.693691 0
M  V30 26 H 0.198092 -5.264814 -2.891709 0
M  V30 27 H -0.868708 -4.437084 -3.178273 0
M  V30 28 H -0.153951 -2.055778 -2.650369 0
M  V30 29 H -1.293818 -0.480010 -3.528851 0
M  V30 30 H -1.345867 1.312864 -5.237632 0
M  V30 31 H -0.021982 3.318602 -5.005002 0
M  V30 32 H 1.427867 3.648819 -3.059763 0
M  V30 33 H 1.543157 1.881006 -1.275814 0
M  V30 34 H 0.520740 0.954593 0.304365 0
M  V30 35 H 1.404174 1.023191 2.367720 0
M  V30 36 H -0.462442 2.040840 3.258931 0
M  V30 37 H -1.236898 0.453384 2.785752 0
M  V30 38 H -1.873074 0.786867 5.032359 0
M  V30 39 H -0.397453 1.612104 5.518100 0
M  V30 40 H 1.452680 0.129718 6.454394 0
M  V30 41 H 1.676489 -1.442141 5.588385 0
M  V30 42 H 1.888265 1.391925 4.650648 0
M  V30 43 H 2.788227 -0.069276 4.048429 0
M  V30 44 H 0.717762 -2.641213 3.811098 0
M  V30 45 H 0.305212 -4.170287 1.838961 0
M  V30 END ATOM
M  V30 BEGIN BOND
M  V30 1 1 1 2
M  V30 2 2 2 3
M  V30 3 1 2 4
M  V30 4 2 4 5
M  V30 5 1 5 6
M  V30 6 1 6 7
M  V30 7 2 7 8
M  V30 8 1 8 9
M  V30 9 2 9 10
M  V30 10 1 10 11
M  V30 11 2 11 12
M  V30 12 2 6 13
M  V30 13 1 13 14
M  V30 14 1 14 15
M  V30 15 1 15 16
M  V30 16 1 16 17
M  V30 17 1 17 18
M  V30 18 1 18 19
M  V30 19 2 19 20
M  V30 20 1 19 21
M  V30 21 1 21 22
M  V30 22 2 15 23
M  V30 23 1 23 24
M  V30 24 1 24 25
M  V30 25 1 25 4
M  V30 26 1 12 7
M  V30 27 2 25 14
M  V30 28 1 22 16
M  V30 29 1 1 26
M  V30 30 1 1 27
M  V30 31 1 5 28
M  V30 32 1 8 29
M  V30 33 1 9 30
M  V30 34 1 10 31
M  V30 35 1 11 32
M  V30 36 1 12 33
M  V30 37 1 13 34
M  V30 38 1 16 35
M  V30 39 1 17 36
M  V30 40 1 17 37
M  V30 41 1 18 38
M  V30 42 1 18 39
M  V30 43 1 21 40
M  V30 44 1 21 41
M  V30 45 1 22 42
M  V30 46 1 22 43
M  V30 47 1 23 44
M  V30 48 1 24 45
M  V30 END BOND
M  V30 END CTAB
M  END
>  <Dataset>  (643) 
ChEMBL_Kinases

>  <Ligand_Instance>  (643) 
nan

>  <PDB_ID>  (643) 
nan

>  <Standardized_SMILES>  (643) 
NC(=O)c1cc(-c2ccccc2)cc2c(C3CCC(=O)CC3)c[nH]c12

>  <Name>  (643) 
nan

>  <Pocket>  (643) 
nan

>  <ATP_Site>  (643) 
nan

>  <Peripheral>  (643) 
nan

>  <Num_H_Atoms_ProtBoundConf>  (643) 
nan

>  <Num_Resolved_Atoms>  (643) 
nan

>  <Num_Not_Resolved_Atoms>  (643) 
nan

$$$$
CHEMBL4448628
     RDKit          3D

  0  0  0  0  0  0  0  0  0  0999 V3000
M  V30 BEGIN CTAB
M  V30 COUNTS 36 38 0 0 0
M  V30 BEGIN ATOM
M  V30 1 C 1.445325 -3.528098 2.409088 0
M  V30 2 C 0.214525 -3.153938 1.572302 0
M  V30 3 C 0.086360 -4.208202 0.451876 0
M  V30 4 C -0.958015 -3.491497 2.490094 0
M  V30 5 N 0.235785 -1.868473 1.045649 0
M  V30 6 C 0.257635 -0.548390 0.504801 0
M  V30 7 N 1.170626 -0.021760 -0.322138 0
M  V30 8 C 1.197788 1.198851 -0.830846 0
M  V30 9 C 2.281332 1.584191 -1.714684 0
M  V30 10 N 3.317825 0.831762 -2.106689 0
M  V30 11 O 4.079793 1.553427 -2.908431 0
M  V30 12 N 3.571512 2.738473 -3.044938 0
M  V30 13 C 2.442920 2.809574 -2.316714 0
M  V30 14 N 1.520137 3.875244 -2.128377 0
M  V30 15 N 0.177154 1.955915 -0.446889 0
M  V30 16 C -0.814327 1.585819 0.370237 0
M  V30 17 C -1.779486 2.555350 0.632469 0
M  V30 18 N -2.779109 2.162306 1.465245 0
M  V30 19 C -2.816572 0.933153 1.984266 0
M  V30 20 C -1.834053 0.016695 1.689102 0
M  V30 21 C -0.770798 0.298048 0.858155 0
M  V30 22 H 2.356980 -3.564258 1.759754 0
M  V30 23 H 1.232019 -4.510455 2.884624 0
M  V30 24 H 1.541767 -2.740014 3.182703 0
M  V30 25 H -0.978393 -4.325591 0.163246 0
M  V30 26 H 0.639430 -3.841362 -0.430465 0
M  V30 27 H 0.557945 -5.167135 0.743606 0
M  V30 28 H -0.945346 -2.929805 3.423558 0
M  V30 29 H -0.809748 -4.563757 2.738996 0
M  V30 30 H -1.908725 -3.435336 1.917579 0
M  V30 31 H 1.138341 -2.211204 0.590692 0
M  V30 32 H 1.518725 4.218452 -1.121854 0
M  V30 33 H 0.829790 4.445495 -2.655007 0
M  V30 34 H -1.710071 3.532067 0.193086 0
M  V30 35 H -3.619261 0.643298 2.642683 0
M  V30 36 H -1.876144 -0.955717 2.108204 0
M  V30 END ATOM
M  V30 BEGIN BOND
M  V30 1 1 1 2
M  V30 2 1 2 3
M  V30 3 1 2 4
M  V30 4 1 2 5
M  V30 5 1 5 6
M  V30 6 2 6 7
M  V30 7 1 7 8
M  V30 8 1 8 9
M  V30 9 2 9 10
M  V30 10 1 10 11
M  V30 11 1 11 12
M  V30 12 2 12 13
M  V30 13 1 13 14
M  V30 14 2 8 15
M  V30 15 1 15 16
M  V30 16 2 16 17
M  V30 17 1 17 18
M  V30 18 2 18 19
M  V30 19 1 19 20
M  V30 20 2 20 21
M  V30 21 1 21 6
M  V30 22 1 13 9
M  V30 23 1 21 16
M  V30 24 1 1 22
M  V30 25 1 1 23
M  V30 26 1 1 24
M  V30 27 1 3 25
M  V30 28 1 3 26
M  V30 29 1 3 27
M  V30 30 1 4 28
M  V30 31 1 4 29
M  V30 32 1 4 30
M  V30 33 1 5 31
M  V30 34 1 14 32
M  V30 35 1 14 33
M  V30 36 1 17 34
M  V30 37 1 19 35
M  V30 38 1 20 36
M  V30 END BOND
M  V30 END CTAB
M  END
>  <Dataset>  (644) 
ChEMBL_Kinases

>  <Ligand_Instance>  (644) 
nan

>  <PDB_ID>  (644) 
nan

>  <Standardized_SMILES>  (644) 
CC(C)(C)Nc1nc(-c2nonc2N)nc2cnccc12

>  <Name>  (644) 
nan

>  <Pocket>  (644) 
nan

>  <ATP_Site>  (644) 
nan

>  <Peripheral>  (644) 
nan

>  <Num_H_Atoms_ProtBoundConf>  (644) 
nan

>  <Num_Resolved_Atoms>  (644) 
nan

>  <Num_Not_Resolved_Atoms>  (644) 
nan

$$$$
CHEMBL4448579
     RDKit          3D

  0  0  0  0  0  0  0  0  0  0999 V3000
M  V30 BEGIN CTAB
M  V30 COUNTS 62 65 0 0 0
M  V30 BEGIN ATOM
M  V30 1 C 2.931274 -1.790321 4.974443 0
M  V30 2 O 1.748270 -1.237784 4.560441 0
M  V30 3 C 1.780160 0.101293 4.252615 0
M  V30 4 C 2.752691 0.431628 3.156268 0
M  V30 5 N 2.843834 1.764018 2.768857 0
M  V30 6 C 3.736714 2.094629 1.712690 0
M  V30 7 C 2.933724 2.518821 0.489132 0
M  V30 8 N 1.519233 2.398509 0.729584 0
M  V30 9 C 0.445793 1.612287 0.165058 0
M  V30 10 C -0.616698 2.456946 -0.144357 0
M  V30 11 C -1.720183 1.824457 -0.655922 0
M  V30 12 C -1.648743 0.489428 -0.795597 0
M  V30 13 O -2.585318 -0.462481 -1.275071 0
M  V30 14 C -3.852768 -0.217425 -1.750643 0
M  V30 15 C -4.555653 -1.478663 -2.155126 0
M  V30 16 C -4.417796 -1.954077 -3.448049 0
M  V30 17 C -5.068203 -3.126466 -3.770059 0
M  V30 18 C -5.817301 -3.765601 -2.805696 0
M  V30 19 C -5.956197 -3.294145 -1.519032 0
M  V30 20 C -5.306792 -2.103630 -1.157974 0
M  V30 21 C -0.862047 -0.597549 -0.625410 0
M  V30 22 C -0.034804 -1.740432 -0.446434 0
M  V30 23 O -1.090057 -2.253172 -0.984054 0
M  V30 24 N 1.072543 -2.511081 -0.087606 0
M  V30 25 C 0.831157 -3.875257 -0.403402 0
M  V30 26 C 1.135702 -4.638960 -1.500847 0
M  V30 27 C 0.728740 -5.941437 -1.493133 0
M  V30 28 N 0.062269 -6.493979 -0.489255 0
M  V30 29 N -0.239391 -5.766731 0.578502 0
M  V30 30 C 0.137684 -4.469647 0.630106 0
M  V30 31 C 0.300936 0.195796 -0.071348 0
M  V30 32 C 1.185218 3.253223 1.868273 0
M  V30 33 C 1.879534 2.717224 3.117995 0
M  V30 34 H 3.367757 -1.358775 5.865986 0
M  V30 35 H 2.712629 -2.882439 5.166768 0
M  V30 36 H 3.686942 -1.813383 4.137295 0
M  V30 37 H 0.743807 0.349857 3.882555 0
M  V30 38 H 1.936643 0.750109 5.120365 0
M  V30 39 H 2.632880 -0.234194 2.283441 0
M  V30 40 H 3.769092 0.137507 3.575647 0
M  V30 41 H 4.381691 2.933571 2.041152 0
M  V30 42 H 4.391750 1.230937 1.511102 0
M  V30 43 H 3.295616 1.890642 -0.360315 0
M  V30 44 H 3.164970 3.566627 0.241754 0
M  V30 45 H -0.843534 3.491170 -0.103591 0
M  V30 46 H -2.725580 2.065417 -1.018556 0
M  V30 47 H -4.530535 0.339172 -1.072867 0
M  V30 48 H -3.779988 0.397338 -2.692299 0
M  V30 49 H -3.807467 -1.393276 -4.156982 0
M  V30 50 H -4.924392 -3.453444 -4.789995 0
M  V30 51 H -6.315381 -4.681513 -3.086776 0
M  V30 52 H -6.544847 -3.799846 -0.765485 0
M  V30 53 H -5.364341 -1.653984 -0.153077 0
M  V30 54 H 1.689971 -1.790842 0.287252 0
M  V30 55 H 1.682046 -4.061000 -2.241718 0
M  V30 56 H 1.021596 -6.464370 -2.414766 0
M  V30 57 H -0.193109 -4.031192 1.567961 0
M  V30 58 H 1.370672 0.048530 0.316210 0
M  V30 59 H 0.109166 3.270578 2.078519 0
M  V30 60 H 1.501037 4.276992 1.603281 0
M  V30 61 H 1.156895 2.316490 3.828249 0
M  V30 62 H 2.359306 3.591659 3.607649 0
M  V30 END ATOM
M  V30 BEGIN BOND
M  V30 1 1 1 2
M  V30 2 1 2 3
M  V30 3 1 3 4
M  V30 4 1 4 5
M  V30 5 1 5 6
M  V30 6 1 6 7
M  V30 7 1 7 8
M  V30 8 1 8 9
M  V30 9 2 9 10
M  V30 10 1 10 11
M  V30 11 2 11 12
M  V30 12 1 12 13
M  V30 13 1 13 14
M  V30 14 1 14 15
M  V30 15 2 15 16
M  V30 16 1 16 17
M  V30 17 2 17 18
M  V30 18 1 18 19
M  V30 19 2 19 20
M  V30 20 1 12 21
M  V30 21 1 21 22
M  V30 22 2 22 23
M  V30 23 1 22 24
M  V30 24 1 24 25
M  V30 25 2 25 26
M  V30 26 1 26 27
M  V30 27 2 27 28
M  V30 28 1 28 29
M  V30 29 2 29 30
M  V30 30 2 21 31
M  V30 31 1 8 32
M  V30 32 1 32 33
M  V30 33 1 33 5
M  V30 34 1 31 9
M  V30 35 1 20 15
M  V30 36 1 30 25
M  V30 37 1 1 34
M  V30 38 1 1 35
M  V30 39 1 1 36
M  V30 40 1 3 37
M  V30 41 1 3 38
M  V30 42 1 4 39
M  V30 43 1 4 40
M  V30 44 1 6 41
M  V30 45 1 6 42
M  V30 46 1 7 43
M  V30 47 1 7 44
M  V30 48 1 10 45
M  V30 49 1 11 46
M  V30 50 1 14 47
M  V30 51 1 14 48
M  V30 52 1 16 49
M  V30 53 1 17 50
M  V30 54 1 18 51
M  V30 55 1 19 52
M  V30 56 1 20 53
M  V30 57 1 24 54
M  V30 58 1 26 55
M  V30 59 1 27 56
M  V30 60 1 30 57
M  V30 61 1 31 58
M  V30 62 1 32 59
M  V30 63 1 32 60
M  V30 64 1 33 61
M  V30 65 1 33 62
M  V30 END BOND
M  V30 END CTAB
M  END
>  <Dataset>  (645) 
ChEMBL_Kinases

>  <Ligand_Instance>  (645) 
nan

>  <PDB_ID>  (645) 
nan

>  <Standardized_SMILES>  (645) 
COCCN1CCN(c2ccc(OCc3ccccc3)c(C(=O)Nc3ccnnc3)c2)CC1

>  <Name>  (645) 
nan

>  <Pocket>  (645) 
nan

>  <ATP_Site>  (645) 
nan

>  <Peripheral>  (645) 
nan

>  <Num_H_Atoms_ProtBoundConf>  (645) 
nan

>  <Num_Resolved_Atoms>  (645) 
nan

>  <Num_Not_Resolved_Atoms>  (645) 
nan

$$$$
CHEMBL4448572
     RDKit          3D

  0  0  0  0  0  0  0  0  0  0999 V3000
M  V30 BEGIN CTAB
M  V30 COUNTS 45 47 0 0 0
M  V30 BEGIN ATOM
M  V30 1 C 2.462463 -3.198203 4.662415 0
M  V30 2 O 3.210694 -2.503561 3.727540 0
M  V30 3 C 4.407578 -2.080121 4.291468 0
M  V30 4 C 5.278188 -1.325685 3.365003 0
M  V30 5 N 4.779430 -0.125468 2.800211 0
M  V30 6 C 3.649488 0.033807 1.985963 0
M  V30 7 O 2.944444 -0.927568 1.667051 0
M  V30 8 N 3.191650 1.279596 1.445414 0
M  V30 9 C 2.035270 1.389579 0.621615 0
M  V30 10 N 0.840371 1.612811 1.230689 0
M  V30 11 C -0.131063 1.686902 0.295010 0
M  V30 12 C -1.507517 1.893936 0.328921 0
M  V30 13 C -2.184147 1.903775 -0.879241 0
M  V30 14 O -3.571284 2.117195 -0.781425 0
M  V30 15 S -4.654391 0.813184 -0.612214 0
M  V30 16 O -5.914868 1.001164 -1.400445 0
M  V30 17 O -5.075775 0.800176 0.843014 0
M  V30 18 C -3.875239 -0.716508 -0.934609 0
M  V30 19 C -3.852903 -1.241592 -2.217274 0
M  V30 20 F -4.422979 -0.604652 -3.257505 0
M  V30 21 C -3.235346 -2.460443 -2.489812 0
M  V30 22 C -2.642709 -3.149130 -1.478587 0
M  V30 23 C -2.670644 -2.624291 -0.223340 0
M  V30 24 C -3.270183 -1.415055 0.109900 0
M  V30 25 F -3.300915 -0.888392 1.356606 0
M  V30 26 C -1.576742 1.721114 -2.110606 0
M  V30 27 C -0.205982 1.517904 -2.104858 0
M  V30 28 C 0.498460 1.502274 -0.918794 0
M  V30 29 N 1.817963 1.321869 -0.710637 0
M  V30 30 H 2.228562 -2.555447 5.541953 0
M  V30 31 H 2.903318 -4.126804 5.024621 0
M  V30 32 H 1.457524 -3.432909 4.214722 0
M  V30 33 H 4.265389 -1.601963 5.282310 0
M  V30 34 H 4.950737 -3.032937 4.533857 0
M  V30 35 H 6.218210 -1.081727 3.919691 0
M  V30 36 H 5.611907 -2.037049 2.571658 0
M  V30 37 H 5.259858 0.811096 2.963982 0
M  V30 38 H 3.730375 2.129971 1.668445 0
M  V30 39 H -2.008276 2.039162 1.272550 0
M  V30 40 H -3.222119 -2.868264 -3.505747 0
M  V30 41 H -2.137077 -4.109609 -1.602586 0
M  V30 42 H -2.220054 -3.104885 0.659314 0
M  V30 43 H -2.167601 1.741138 -3.013283 0
M  V30 44 H 0.313867 1.368822 -3.062099 0
M  V30 45 H 2.620902 1.153784 -1.360716 0
M  V30 END ATOM
M  V30 BEGIN BOND
M  V30 1 1 1 2
M  V30 2 1 2 3
M  V30 3 1 3 4
M  V30 4 1 4 5
M  V30 5 1 5 6
M  V30 6 2 6 7
M  V30 7 1 6 8
M  V30 8 1 8 9
M  V30 9 2 9 10
M  V30 10 1 10 11
M  V30 11 2 11 12
M  V30 12 1 12 13
M  V30 13 1 13 14
M  V30 14 1 14 15
M  V30 15 2 15 16
M  V30 16 2 15 17
M  V30 17 1 15 18
M  V30 18 2 18 19
M  V30 19 1 19 20
M  V30 20 1 19 21
M  V30 21 2 21 22
M  V30 22 1 22 23
M  V30 23 2 23 24
M  V30 24 1 24 25
M  V30 25 2 13 26
M  V30 26 1 26 27
M  V30 27 2 27 28
M  V30 28 1 28 29
M  V30 29 1 29 9
M  V30 30 1 28 11
M  V30 31 1 24 18
M  V30 32 1 1 30
M  V30 33 1 1 31
M  V30 34 1 1 32
M  V30 35 1 3 33
M  V30 36 1 3 34
M  V30 37 1 4 35
M  V30 38 1 4 36
M  V30 39 1 5 37
M  V30 40 1 8 38
M  V30 41 1 12 39
M  V30 42 1 21 40
M  V30 43 1 22 41
M  V30 44 1 23 42
M  V30 45 1 26 43
M  V30 46 1 27 44
M  V30 47 1 29 45
M  V30 END BOND
M  V30 END CTAB
M  END
>  <Dataset>  (646) 
ChEMBL_Kinases

>  <Ligand_Instance>  (646) 
nan

>  <PDB_ID>  (646) 
nan

>  <Standardized_SMILES>  (646) 
COCCNC(=O)Nc1nc2cc(OS(=O)(=O)c3c(F)cccc3F)ccc2[nH]1

>  <Name>  (646) 
nan

>  <Pocket>  (646) 
nan

>  <ATP_Site>  (646) 
nan

>  <Peripheral>  (646) 
nan

>  <Num_H_Atoms_ProtBoundConf>  (646) 
nan

>  <Num_Resolved_Atoms>  (646) 
nan

>  <Num_Not_Resolved_Atoms>  (646) 
nan

$$$$
CHEMBL4448569
     RDKit          3D

  0  0  0  0  0  0  0  0  0  0999 V3000
M  V30 BEGIN CTAB
M  V30 COUNTS 34 37 0 0 0
M  V30 BEGIN ATOM
M  V30 1 F -0.499237 0.096020 5.513793 0
M  V30 2 C -0.211878 -0.969089 4.683428 0
M  V30 3 F -1.291229 -1.846936 4.786073 0
M  V30 4 F 0.942475 -1.623914 5.030076 0
M  V30 5 C -0.177692 -0.518740 3.215906 0
M  V30 6 N 0.113159 -1.535545 2.230275 0
M  V30 7 C 0.142219 -1.291867 0.834982 0
M  V30 8 N -0.099184 -0.098161 0.278537 0
M  V30 9 C -0.075627 0.142407 -1.020341 0
M  V30 10 C -0.350007 1.472522 -1.552561 0
M  V30 11 C -0.491633 2.623887 -0.806533 0
M  V30 12 N -0.737616 3.636497 -1.678086 0
M  V30 13 N -0.754513 3.162815 -2.930736 0
M  V30 14 C -0.518800 1.838703 -2.872336 0
M  V30 15 N 0.210062 -0.865083 -1.897539 0
M  V30 16 C 0.469483 -2.111092 -1.439595 0
M  V30 17 C 0.758780 -3.136841 -2.313835 0
M  V30 18 N 1.017232 -4.378006 -1.865961 0
M  V30 19 C 0.992682 -4.626078 -0.523909 0
M  V30 20 C 0.700545 -3.580567 0.322520 0
M  V30 21 C 0.427385 -2.291856 -0.062796 0
M  V30 22 C -1.016599 0.644296 2.896650 0
M  V30 23 C 0.465964 0.818001 2.949115 0
M  V30 24 H 0.301393 -2.469884 2.633702 0
M  V30 25 H -0.423073 2.727343 0.283092 0
M  V30 26 H -0.915282 3.675600 -3.827758 0
M  V30 27 H -0.470797 1.174386 -3.726960 0
M  V30 28 H 0.764655 -2.881573 -3.376277 0
M  V30 29 H 1.204146 -5.631593 -0.195610 0
M  V30 30 H 0.703139 -3.865749 1.350183 0
M  V30 31 H -1.558283 0.724013 1.939231 0
M  V30 32 H -1.572628 1.134184 3.731811 0
M  V30 33 H 1.025707 0.994273 2.018280 0
M  V30 34 H 0.923442 1.314143 3.851419 0
M  V30 END ATOM
M  V30 BEGIN BOND
M  V30 1 1 1 2
M  V30 2 1 2 3
M  V30 3 1 2 4
M  V30 4 1 2 5
M  V30 5 1 5 6
M  V30 6 1 6 7
M  V30 7 2 7 8
M  V30 8 1 8 9
M  V30 9 1 9 10
M  V30 10 1 10 11
M  V30 11 2 11 12
M  V30 12 1 12 13
M  V30 13 1 13 14
M  V30 14 2 9 15
M  V30 15 1 15 16
M  V30 16 2 16 17
M  V30 17 1 17 18
M  V30 18 2 18 19
M  V30 19 1 19 20
M  V30 20 2 20 21
M  V30 21 1 5 22
M  V30 22 1 22 23
M  V30 23 1 23 5
M  V30 24 1 21 7
M  V30 25 2 14 10
M  V30 26 1 21 16
M  V30 27 1 6 24
M  V30 28 1 11 25
M  V30 29 1 13 26
M  V30 30 1 14 27
M  V30 31 1 17 28
M  V30 32 1 19 29
M  V30 33 1 20 30
M  V30 34 1 22 31
M  V30 35 1 22 32
M  V30 36 1 23 33
M  V30 37 1 23 34
M  V30 END BOND
M  V30 END CTAB
M  END
>  <Dataset>  (647) 
ChEMBL_Kinases

>  <Ligand_Instance>  (647) 
nan

>  <PDB_ID>  (647) 
nan

>  <Standardized_SMILES>  (647) 
FC(F)(F)C1(Nc2nc(-c3cn[nH]c3)nc3cnccc23)CC1

>  <Name>  (647) 
nan

>  <Pocket>  (647) 
nan

>  <ATP_Site>  (647) 
nan

>  <Peripheral>  (647) 
nan

>  <Num_H_Atoms_ProtBoundConf>  (647) 
nan

>  <Num_Resolved_Atoms>  (647) 
nan

>  <Num_Not_Resolved_Atoms>  (647) 
nan

$$$$
CHEMBL4749890
     RDKit          3D

  0  0  0  0  0  0  0  0  0  0999 V3000
M  V30 BEGIN CTAB
M  V30 COUNTS 84 89 0 0 0
M  V30 BEGIN ATOM
M  V30 1 C 4.899705 0.784003 4.005687 0
M  V30 2 C 5.477015 -0.034548 2.904819 0
M  V30 3 C 4.524479 -0.628598 1.977057 0 CFG=2
M  V30 4 C 5.277329 -1.527606 0.978200 0
M  V30 5 N 6.449555 -2.165855 1.297036 0
M  V30 6 N 6.761752 -2.974936 0.303067 0
M  V30 7 C 5.802366 -2.861781 -0.655299 0
M  V30 8 C 5.858840 -3.642211 -1.906812 0
M  V30 9 N 4.902497 -1.965785 -0.222900 0
M  V30 10 C 3.794902 -1.339905 -0.786191 0
M  V30 11 C 3.379909 -1.827907 -1.980324 0
M  V30 12 N 2.271279 -1.251442 -2.545517 0
M  V30 13 C 1.646182 -0.232278 -1.896003 0
M  V30 14 N 0.479203 0.351293 -2.473025 0
M  V30 15 C -0.756341 -0.295250 -2.133336 0
M  V30 16 C -0.796334 -1.480087 -1.387658 0
M  V30 17 C -1.947142 -2.154548 -1.036161 0
M  V30 18 C -3.151583 -1.626126 -1.446934 0
M  V30 19 C -4.414177 -2.274125 -1.128404 0
M  V30 20 O -5.485512 -1.623472 -1.309325 0
M  V30 21 N -4.501784 -3.589988 -0.630048 0
M  V30 22 N -5.493635 -4.452511 -0.236762 0
M  V30 23 C -6.833561 -3.955475 -0.269293 0
M  V30 24 C -7.253998 -3.449321 1.094304 0
M  V30 25 N -6.112773 -2.757431 1.691614 0
M  V30 26 C -6.524505 -1.929115 2.811339 0
M  V30 27 C -5.127608 -3.726150 2.073756 0
M  V30 28 C -5.211061 -4.906671 1.107246 0
M  V30 29 C -3.179450 -0.452243 -2.190359 0
M  V30 30 C -1.997912 0.178596 -2.513061 0
M  V30 31 O -1.951791 1.347072 -3.249070 0
M  V30 32 C -3.179572 1.905508 -3.678841 0
M  V30 33 N 2.120449 0.192511 -0.719794 0
M  V30 34 C 3.170902 -0.290256 -0.096114 0
M  V30 35 N 3.640575 0.193490 1.179643 0
M  V30 36 C 3.295231 1.460831 1.561304 0
M  V30 37 C 2.455028 2.518449 1.087346 0
M  V30 38 C 0.988354 2.425214 0.947791 0
M  V30 39 C 0.430733 3.206947 -0.222651 0
M  V30 40 C 0.975013 4.607717 -0.296773 0
M  V30 41 C 2.408060 4.732398 0.077229 0
M  V30 42 C 3.084522 3.381524 -0.031517 0
M  V30 43 H 4.888894 1.855247 3.864815 0
M  V30 44 H 5.565002 0.637135 4.963411 0
M  V30 45 H 3.931950 0.380087 4.420576 0
M  V30 46 H 6.337128 0.500005 2.414997 0
M  V30 47 H 5.989531 -0.915198 3.429548 0
M  V30 48 H 3.935682 -1.393459 2.568504 0
M  V30 49 H 5.066170 -4.415201 -2.000838 0
M  V30 50 H 6.803746 -4.277035 -1.886808 0
M  V30 51 H 6.018225 -3.029192 -2.821763 0
M  V30 52 H 3.751319 -2.605258 -2.601457 0
M  V30 53 H 0.399180 1.174310 -3.102228 0
M  V30 54 H 0.156172 -1.915692 -1.051593 0
M  V30 55 H -1.866574 -3.061871 -0.457869 0
M  V30 56 H -3.598111 -4.096064 -0.508444 0
M  V30 57 H -7.502471 -4.850710 -0.451695 0
M  V30 58 H -7.080752 -3.265799 -1.075972 0
M  V30 59 H -7.484726 -4.288453 1.789549 0
M  V30 60 H -8.122465 -2.792293 1.081297 0
M  V30 61 H -7.313430 -1.253278 2.424546 0
M  V30 62 H -6.924038 -2.524150 3.665051 0
M  V30 63 H -5.670000 -1.288336 3.090321 0
M  V30 64 H -4.118218 -3.248298 2.028442 0
M  V30 65 H -5.252035 -4.083126 3.119526 0
M  V30 66 H -4.241710 -5.456013 1.099624 0
M  V30 67 H -5.967333 -5.611471 1.487762 0
M  V30 68 H -4.128265 -0.037922 -2.513770 0
M  V30 69 H -3.921028 1.978433 -2.840704 0
M  V30 70 H -3.034038 2.895356 -4.161939 0
M  V30 71 H -3.602378 1.192479 -4.414177 0
M  V30 72 H 4.315677 1.970805 1.696304 0
M  V30 73 H 2.966009 1.323012 2.657867 0
M  V30 74 H 2.592203 3.319636 1.906236 0
M  V30 75 H 0.442613 2.930362 1.834369 0
M  V30 76 H 0.510395 1.437305 0.986513 0
M  V30 77 H 0.574464 2.727895 -1.203130 0
M  V30 78 H -0.671253 3.301667 -0.087972 0
M  V30 79 H 0.382740 5.323497 0.319215 0
M  V30 80 H 0.864578 4.968001 -1.366347 0
M  V30 81 H 2.531964 5.164698 1.095994 0
M  V30 82 H 2.915564 5.456982 -0.600128 0
M  V30 83 H 4.145953 3.476630 0.233236 0
M  V30 84 H 2.904792 3.012176 -1.035801 0
M  V30 END ATOM
M  V30 BEGIN BOND
M  V30 1 1 1 2
M  V30 2 1 2 3
M  V30 3 1 3 4
M  V30 4 2 4 5
M  V30 5 1 5 6
M  V30 6 2 6 7
M  V30 7 1 7 8
M  V30 8 1 7 9
M  V30 9 1 9 10
M  V30 10 2 10 11
M  V30 11 1 11 12
M  V30 12 2 12 13
M  V30 13 1 13 14
M  V30 14 1 14 15
M  V30 15 2 15 16
M  V30 16 1 16 17
M  V30 17 2 17 18
M  V30 18 1 18 19
M  V30 19 2 19 20
M  V30 20 1 19 21
M  V30 21 1 21 22
M  V30 22 1 22 23
M  V30 23 1 23 24
M  V30 24 1 24 25
M  V30 25 1 25 26
M  V30 26 1 25 27
M  V30 27 1 27 28
M  V30 28 1 18 29
M  V30 29 2 29 30
M  V30 30 1 30 31
M  V30 31 1 31 32
M  V30 32 1 13 33
M  V30 33 2 33 34
M  V30 34 1 34 35
M  V30 35 1 35 36
M  V30 36 1 36 37
M  V30 37 1 37 38
M  V30 38 1 38 39
M  V30 39 1 39 40
M  V30 40 1 40 41
M  V30 41 1 41 42
M  V30 42 1 35 3
M  V30 43 1 42 37
M  V30 44 1 9 4
M  V30 45 1 34 10
M  V30 46 1 30 15
M  V30 47 1 28 22
M  V30 48 1 1 43
M  V30 49 1 1 44
M  V30 50 1 1 45
M  V30 51 1 2 46
M  V30 52 1 2 47
M  V30 53 1 3 48 CFG=1
M  V30 54 1 8 49
M  V30 55 1 8 50
M  V30 56 1 8 51
M  V30 57 1 11 52
M  V30 58 1 14 53
M  V30 59 1 16 54
M  V30 60 1 17 55
M  V30 61 1 21 56
M  V30 62 1 23 57
M  V30 63 1 23 58
M  V30 64 1 24 59
M  V30 65 1 24 60
M  V30 66 1 26 61
M  V30 67 1 26 62
M  V30 68 1 26 63
M  V30 69 1 27 64
M  V30 70 1 27 65
M  V30 71 1 28 66
M  V30 72 1 28 67
M  V30 73 1 29 68
M  V30 74 1 32 69
M  V30 75 1 32 70
M  V30 76 1 32 71
M  V30 77 1 36 72
M  V30 78 1 36 73
M  V30 79 1 37 74
M  V30 80 1 38 75
M  V30 81 1 38 76
M  V30 82 1 39 77
M  V30 83 1 39 78
M  V30 84 1 40 79
M  V30 85 1 40 80
M  V30 86 1 41 81
M  V30 87 1 41 82
M  V30 88 1 42 83
M  V30 89 1 42 84
M  V30 END BOND
M  V30 END CTAB
M  END
>  <Dataset>  (648) 
ChEMBL_Kinases

>  <Ligand_Instance>  (648) 
nan

>  <PDB_ID>  (648) 
nan

>  <Standardized_SMILES>  (648) 
CC[C@@H]1c2nnc(C)n2-c2cnc(Nc3ccc(C(=O)NN4CCN(C)CC4)cc3OC)nc2N1CC1CCCCC1

>  <Name>  (648) 
nan

>  <Pocket>  (648) 
nan

>  <ATP_Site>  (648) 
nan

>  <Peripheral>  (648) 
nan

>  <Num_H_Atoms_ProtBoundConf>  (648) 
nan

>  <Num_Resolved_Atoms>  (648) 
nan

>  <Num_Not_Resolved_Atoms>  (648) 
nan

$$$$
CHEMBL4448524
     RDKit          3D

  0  0  0  0  0  0  0  0  0  0999 V3000
M  V30 BEGIN CTAB
M  V30 COUNTS 43 46 0 0 0
M  V30 BEGIN ATOM
M  V30 1 C 0.116949 -4.998679 0.273291 0
M  V30 2 N 0.693901 -4.399476 -0.913075 0
M  V30 3 C -0.265352 -3.951137 -1.912390 0
M  V30 4 C 0.630487 -3.337862 -2.966968 0
M  V30 5 C 1.947655 -3.037893 -2.279898 0
M  V30 6 O 2.984967 -3.001616 -3.182431 0
M  V30 7 C 1.908866 -1.739559 -1.598861 0
M  V30 8 C 1.863805 -0.671359 -1.019521 0
M  V30 9 C 1.818085 0.601203 -0.324029 0
M  V30 10 C 2.878140 1.484977 -0.362321 0
M  V30 11 C 2.701084 2.661960 0.345280 0
M  V30 12 C 1.558727 2.971494 1.054572 0
M  V30 13 F 1.348767 4.090176 1.747018 0
M  V30 14 C 0.527502 2.052596 1.060505 0
M  V30 15 C -0.745817 2.257878 1.777138 0
M  V30 16 C -1.951519 2.821683 1.419614 0
M  V30 17 N -2.755609 2.730080 2.492609 0
M  V30 18 C -2.112152 2.132544 3.515372 0
M  V30 19 C -2.576261 1.841633 4.802276 0
M  V30 20 N -1.699387 1.231489 5.623493 0
M  V30 21 C -0.447659 0.916748 5.235797 0
M  V30 22 N 0.431960 0.269044 6.159581 0
M  V30 23 N -0.015730 1.204284 3.991015 0
M  V30 24 C -0.831388 1.820685 3.090118 0
M  V30 25 C 0.637403 0.839508 0.365857 0
M  V30 26 C 2.061557 -4.157341 -1.301419 0
M  V30 27 O 2.937435 -4.889337 -0.763310 0
M  V30 28 H 0.935961 -5.281492 0.980464 0
M  V30 29 H -0.491982 -5.859519 -0.050549 0
M  V30 30 H -0.497389 -4.231175 0.823565 0
M  V30 31 H -0.858608 -4.800013 -2.293813 0
M  V30 32 H -0.926931 -3.169888 -1.449943 0
M  V30 33 H 0.772844 -4.025905 -3.826261 0
M  V30 34 H 0.216671 -2.377219 -3.338505 0
M  V30 35 H 3.821994 -3.413615 -2.889934 0
M  V30 36 H 3.768585 1.253128 -0.910213 0
M  V30 37 H 3.501982 3.383175 0.344670 0
M  V30 38 H -1.996935 3.197028 0.413028 0
M  V30 39 H -3.721470 3.111346 2.403610 0
M  V30 40 H -3.591189 2.119441 5.053224 0
M  V30 41 H 0.725222 -0.696945 5.837645 0
M  V30 42 H 0.849077 0.539643 7.082865 0
M  V30 43 H -0.179281 0.128911 0.379623 0
M  V30 END ATOM
M  V30 BEGIN BOND
M  V30 1 1 1 2
M  V30 2 1 2 3
M  V30 3 1 3 4
M  V30 4 1 4 5
M  V30 5 1 5 6
M  V30 6 1 5 7
M  V30 7 3 7 8
M  V30 8 1 8 9
M  V30 9 2 9 10
M  V30 10 1 10 11
M  V30 11 2 11 12
M  V30 12 1 12 13
M  V30 13 1 12 14
M  V30 14 1 14 15
M  V30 15 2 15 16
M  V30 16 1 16 17
M  V30 17 1 17 18
M  V30 18 2 18 19
M  V30 19 1 19 20
M  V30 20 2 20 21
M  V30 21 1 21 22
M  V30 22 1 21 23
M  V30 23 2 23 24
M  V30 24 2 14 25
M  V30 25 1 5 26
M  V30 26 2 26 27
M  V30 27 1 26 2
M  V30 28 1 25 9
M  V30 29 1 24 15
M  V30 30 1 24 18
M  V30 31 1 1 28
M  V30 32 1 1 29
M  V30 33 1 1 30
M  V30 34 1 3 31
M  V30 35 1 3 32
M  V30 36 1 4 33
M  V30 37 1 4 34
M  V30 38 1 6 35
M  V30 39 1 10 36
M  V30 40 1 11 37
M  V30 41 1 16 38
M  V30 42 1 17 39
M  V30 43 1 19 40
M  V30 44 1 22 41
M  V30 45 1 22 42
M  V30 46 1 25 43
M  V30 END BOND
M  V30 END CTAB
M  END
>  <Dataset>  (649) 
ChEMBL_Kinases

>  <Ligand_Instance>  (649) 
nan

>  <PDB_ID>  (649) 
nan

>  <Standardized_SMILES>  (649) 
CN1CCC(O)(C#Cc2ccc(F)c(-c3c[nH]c4cnc(N)nc34)c2)C1=O

>  <Name>  (649) 
nan

>  <Pocket>  (649) 
nan

>  <ATP_Site>  (649) 
nan

>  <Peripheral>  (649) 
nan

>  <Num_H_Atoms_ProtBoundConf>  (649) 
nan

>  <Num_Resolved_Atoms>  (649) 
nan

>  <Num_Not_Resolved_Atoms>  (649) 
nan

$$$$
CHEMBL4448513
     RDKit          3D

  0  0  0  0  0  0  0  0  0  0999 V3000
M  V30 BEGIN CTAB
M  V30 COUNTS 46 49 0 0 0
M  V30 BEGIN ATOM
M  V30 1 C -4.467296 -4.152699 1.472586 0
M  V30 2 O -3.202890 -4.738310 1.586029 0
M  V30 3 C -2.024913 -4.134410 1.202688 0
M  V30 4 C -2.138354 -2.864651 0.674505 0
M  V30 5 C -0.981553 -2.221782 0.276866 0
M  V30 6 C 0.224147 -2.883305 0.429039 0
M  V30 7 C 1.512938 -2.272715 0.031474 0
M  V30 8 C 2.586533 -3.010989 -0.422612 0
M  V30 9 N 3.698882 -2.323460 -0.749846 0
M  V30 10 C 3.762327 -0.984680 -0.640359 0
M  V30 11 N 4.755416 -0.123453 -0.907962 0
M  V30 12 C 4.365957 1.146550 -0.644302 0
M  V30 13 C 3.060440 1.133904 -0.181961 0
M  V30 14 C 2.234872 2.241210 0.220709 0
M  V30 15 C 1.532691 3.184371 0.542417 0
M  V30 16 C 0.687595 4.293145 0.914216 0
M  V30 17 C 1.176471 5.357994 1.669312 0
M  V30 18 C 0.335607 6.394894 2.001363 0
M  V30 19 C -1.002890 6.410171 1.600209 0
M  V30 20 C -1.510250 5.375215 0.856416 0
M  V30 21 C -2.874034 5.320816 0.407767 0
M  V30 22 N -3.963894 5.268599 0.030095 0
M  V30 23 C -0.642671 4.336728 0.531641 0
M  V30 24 C 2.708690 -0.204685 -0.189238 0
M  V30 25 C 1.555952 -0.882355 0.153314 0
M  V30 26 C 0.309178 -4.154006 0.960646 0
M  V30 27 C -0.834710 -4.828625 1.370438 0
M  V30 28 O -0.889834 -6.102334 1.918457 0
M  V30 29 C 0.307299 -6.825620 2.098052 0
M  V30 30 H -4.427047 -3.162521 1.989733 0
M  V30 31 H -4.809333 -4.048528 0.415783 0
M  V30 32 H -5.212760 -4.766734 2.026152 0
M  V30 33 H -3.101183 -2.382389 0.572467 0
M  V30 34 H -0.978235 -1.239677 -0.141355 0
M  V30 35 H 2.480548 -4.089633 -0.491219 0
M  V30 36 H 5.715580 -0.308248 -1.267155 0
M  V30 37 H 4.922860 2.074470 -0.750369 0
M  V30 38 H 2.212989 5.347291 1.980731 0
M  V30 39 H 0.699518 7.244829 2.595998 0
M  V30 40 H -1.702965 7.201443 1.835684 0
M  V30 41 H -0.995266 3.497937 -0.053106 0
M  V30 42 H 0.709020 -0.297201 0.511779 0
M  V30 43 H 1.234205 -4.676758 1.083735 0
M  V30 44 H 0.571199 -7.310268 1.126296 0
M  V30 45 H 0.133519 -7.686898 2.805037 0
M  V30 46 H 1.153941 -6.199103 2.435752 0
M  V30 END ATOM
M  V30 BEGIN BOND
M  V30 1 1 1 2
M  V30 2 1 2 3
M  V30 3 2 3 4
M  V30 4 1 4 5
M  V30 5 2 5 6
M  V30 6 1 6 7
M  V30 7 2 7 8
M  V30 8 1 8 9
M  V30 9 2 9 10
M  V30 10 1 10 11
M  V30 11 1 11 12
M  V30 12 2 12 13
M  V30 13 1 13 14
M  V30 14 3 14 15
M  V30 15 1 15 16
M  V30 16 2 16 17
M  V30 17 1 17 18
M  V30 18 2 18 19
M  V30 19 1 19 20
M  V30 20 1 20 21
M  V30 21 3 21 22
M  V30 22 2 20 23
M  V30 23 1 13 24
M  V30 24 2 24 25
M  V30 25 1 6 26
M  V30 26 2 26 27
M  V30 27 1 27 28
M  V30 28 1 28 29
M  V30 29 1 27 3
M  V30 30 1 25 7
M  V30 31 1 24 10
M  V30 32 1 23 16
M  V30 33 1 1 30
M  V30 34 1 1 31
M  V30 35 1 1 32
M  V30 36 1 4 33
M  V30 37 1 5 34
M  V30 38 1 8 35
M  V30 39 1 11 36
M  V30 40 1 12 37
M  V30 41 1 17 38
M  V30 42 1 18 39
M  V30 43 1 19 40
M  V30 44 1 23 41
M  V30 45 1 25 42
M  V30 46 1 26 43
M  V30 47 1 29 44
M  V30 48 1 29 45
M  V30 49 1 29 46
M  V30 END BOND
M  V30 END CTAB
M  END
>  <Dataset>  (650) 
ChEMBL_Kinases

>  <Ligand_Instance>  (650) 
nan

>  <PDB_ID>  (650) 
nan

>  <Standardized_SMILES>  (650) 
COc1ccc(-c2cnc3[nH]cc(C#Cc4cccc(C#N)c4)c3c2)cc1OC

>  <Name>  (650) 
nan

>  <Pocket>  (650) 
nan

>  <ATP_Site>  (650) 
nan

>  <Peripheral>  (650) 
nan

>  <Num_H_Atoms_ProtBoundConf>  (650) 
nan

>  <Num_Resolved_Atoms>  (650) 
nan

>  <Num_Not_Resolved_Atoms>  (650) 
nan

$$$$
CHEMBL4749895
     RDKit          3D

  0  0  0  0  0  0  0  0  0  0999 V3000
M  V30 BEGIN CTAB
M  V30 COUNTS 48 51 0 0 0
M  V30 BEGIN ATOM
M  V30 1 C 0.926203 -3.509840 1.595212 0
M  V30 2 C 0.409095 -4.789312 1.033005 0
M  V30 3 O -0.926462 -4.697370 0.575842 0
M  V30 4 C -1.321438 -3.821981 -0.409238 0
M  V30 5 N -0.547430 -2.942054 -1.059628 0
M  V30 6 C -1.020099 -2.117396 -2.010254 0
M  V30 7 N 0.084758 -1.309687 -2.467970 0
M  V30 8 C 0.305574 -0.164822 -1.615342 0
M  V30 9 C 1.345292 0.733477 -1.893219 0
M  V30 10 C 1.588568 1.830305 -1.096187 0
M  V30 11 C 0.810287 2.083792 0.011782 0
M  V30 12 C 0.906004 3.182180 0.976838 0
M  V30 13 O 0.829500 4.410938 0.776295 0
M  V30 14 N 1.114693 2.784888 2.327157 0
M  V30 15 C 1.224901 3.775915 3.407557 0
M  V30 16 C 2.620386 3.663984 3.987686 0
M  V30 17 O 3.246662 2.502123 3.517210 0
M  V30 18 C 2.444371 1.384767 3.753597 0
M  V30 19 C 1.245708 1.444055 2.835288 0
M  V30 20 C -0.219469 1.217205 0.308111 0
M  V30 21 C -0.452828 0.122580 -0.497242 0
M  V30 22 N -2.340249 -2.133068 -2.372189 0
M  V30 23 C -3.156070 -3.016250 -1.731112 0
M  V30 24 N -4.453941 -3.175412 -1.941691 0
M  V30 25 C -4.843861 -4.158515 -1.078187 0
M  V30 26 C -3.751299 -4.586012 -0.344075 0
M  V30 27 C -2.654388 -3.858383 -0.753793 0
M  V30 28 H 2.041769 -3.452704 1.549608 0
M  V30 29 H 0.465082 -2.596178 1.150066 0
M  V30 30 H 0.668454 -3.460372 2.669503 0
M  V30 31 H 1.017889 -5.021512 0.108529 0
M  V30 32 H 0.598944 -5.583196 1.746235 0
M  V30 33 H 0.719325 -1.420259 -3.285310 0
M  V30 34 H 1.980526 0.576524 -2.746650 0
M  V30 35 H 2.369712 2.556258 -1.253498 0
M  V30 36 H 0.506092 3.488995 4.229401 0
M  V30 37 H 1.014134 4.791100 3.021768 0
M  V30 38 H 3.185891 4.554472 3.652295 0
M  V30 39 H 2.593228 3.700372 5.099968 0
M  V30 40 H 3.066351 0.468754 3.579336 0
M  V30 41 H 2.109709 1.377668 4.833520 0
M  V30 42 H 0.343403 1.169495 3.455658 0
M  V30 43 H 1.424896 0.674364 2.056692 0
M  V30 44 H -0.901395 1.322629 1.166115 0
M  V30 45 H -1.279191 -0.564000 -0.252263 0
M  V30 46 H -5.077314 -2.675942 -2.613643 0
M  V30 47 H -5.833230 -4.574538 -0.945380 0
M  V30 48 H -3.684721 -5.355250 0.437323 0
M  V30 END ATOM
M  V30 BEGIN BOND
M  V30 1 1 1 2
M  V30 2 1 2 3
M  V30 3 1 3 4
M  V30 4 2 4 5
M  V30 5 1 5 6
M  V30 6 1 6 7
M  V30 7 1 7 8
M  V30 8 2 8 9
M  V30 9 1 9 10
M  V30 10 2 10 11
M  V30 11 1 11 12
M  V30 12 2 12 13
M  V30 13 1 12 14
M  V30 14 1 14 15
M  V30 15 1 15 16
M  V30 16 1 16 17
M  V30 17 1 17 18
M  V30 18 1 18 19
M  V30 19 1 11 20
M  V30 20 2 20 21
M  V30 21 2 6 22
M  V30 22 1 22 23
M  V30 23 1 23 24
M  V30 24 1 24 25
M  V30 25 2 25 26
M  V30 26 1 26 27
M  V30 27 1 27 4
M  V30 28 1 21 8
M  V30 29 2 27 23
M  V30 30 1 19 14
M  V30 31 1 1 28
M  V30 32 1 1 29
M  V30 33 1 1 30
M  V30 34 1 2 31
M  V30 35 1 2 32
M  V30 36 1 7 33
M  V30 37 1 9 34
M  V30 38 1 10 35
M  V30 39 1 15 36
M  V30 40 1 15 37
M  V30 41 1 16 38
M  V30 42 1 16 39
M  V30 43 1 18 40
M  V30 44 1 18 41
M  V30 45 1 19 42
M  V30 46 1 19 43
M  V30 47 1 20 44
M  V30 48 1 21 45
M  V30 49 1 24 46
M  V30 50 1 25 47
M  V30 51 1 26 48
M  V30 END BOND
M  V30 END CTAB
M  END
>  <Dataset>  (651) 
ChEMBL_Kinases

>  <Ligand_Instance>  (651) 
nan

>  <PDB_ID>  (651) 
nan

>  <Standardized_SMILES>  (651) 
CCOc1nc(Nc2ccc(C(=O)N3CCOCC3)cc2)nc2[nH]ccc12

>  <Name>  (651) 
nan

>  <Pocket>  (651) 
nan

>  <ATP_Site>  (651) 
nan

>  <Peripheral>  (651) 
nan

>  <Num_H_Atoms_ProtBoundConf>  (651) 
nan

>  <Num_Resolved_Atoms>  (651) 
nan

>  <Num_Not_Resolved_Atoms>  (651) 
nan

$$$$
CHEMBL4448408
     RDKit          3D

  0  0  0  0  0  0  0  0  0  0999 V3000
M  V30 BEGIN CTAB
M  V30 COUNTS 41 43 0 0 0
M  V30 BEGIN ATOM
M  V30 1 C -3.077149 -0.939225 1.999636 0
M  V30 2 C -3.235100 -1.048477 0.487518 0
M  V30 3 C -2.762465 -2.437688 0.118131 0
M  V30 4 N -2.891883 -2.610313 -1.300205 0
M  V30 5 C -2.440238 0.014021 -0.225895 0
M  V30 6 N -1.030756 -0.014723 -0.009095 0
M  V30 7 C 0.332045 -0.031361 0.287606 0
M  V30 8 C 1.032162 0.103834 1.496880 0
M  V30 9 C 2.413188 0.074232 1.641321 0
M  V30 10 C 3.036490 0.220378 2.922310 0
M  V30 11 C 4.405543 0.154268 2.850946 0
M  V30 12 C 5.121196 0.293915 4.041767 0
M  V30 13 N 4.471254 0.485967 5.203067 0
M  V30 14 C 3.131183 0.548651 5.252766 0
M  V30 15 C 2.358834 0.414396 4.091536 0
M  V30 16 N 2.673888 -0.091310 0.461267 0
M  V30 17 C 2.604189 -0.254020 -0.781898 0
M  V30 18 C 3.322089 -0.426713 -1.916016 0
M  V30 19 N 2.737944 -0.560549 -3.112102 0
M  V30 20 C 1.384429 -0.529733 -3.251863 0
M  V30 21 C 0.593226 -0.357612 -2.135222 0
M  V30 22 C 1.164121 -0.211726 -0.847775 0
M  V30 23 H -2.079569 -1.208231 2.352022 0
M  V30 24 H -3.878179 -1.557161 2.490819 0
M  V30 25 H -3.276380 0.116529 2.256546 0
M  V30 26 H -4.300064 -0.931949 0.256398 0
M  V30 27 H -3.342106 -3.206609 0.658739 0
M  V30 28 H -1.699729 -2.592811 0.398833 0
M  V30 29 H -2.883412 -3.621686 -1.572090 0
M  V30 30 H -3.740980 -2.115665 -1.670294 0
M  V30 31 H -2.866454 1.007738 0.049430 0
M  V30 32 H -2.611014 -0.123367 -1.344317 0
M  V30 33 H -1.330314 0.103984 1.010587 0
M  V30 34 H 0.357705 0.245959 2.379124 0
M  V30 35 H 4.967186 0.003908 1.937445 0
M  V30 36 H 6.217585 0.242118 4.012241 0
M  V30 37 H 2.542355 0.699435 6.146073 0
M  V30 38 H 1.298228 0.462417 4.106454 0
M  V30 39 H 4.358956 -0.430033 -1.623500 0
M  V30 40 H 0.972325 -0.640521 -4.241991 0
M  V30 41 H -0.497496 -0.346316 -2.322120 0
M  V30 END ATOM
M  V30 BEGIN BOND
M  V30 1 1 1 2
M  V30 2 1 2 3
M  V30 3 1 3 4
M  V30 4 1 2 5
M  V30 5 1 5 6
M  V30 6 1 6 7
M  V30 7 2 7 8
M  V30 8 1 8 9
M  V30 9 1 9 10
M  V30 10 2 10 11
M  V30 11 1 11 12
M  V30 12 2 12 13
M  V30 13 1 13 14
M  V30 14 2 14 15
M  V30 15 2 9 16
M  V30 16 1 16 17
M  V30 17 2 17 18
M  V30 18 1 18 19
M  V30 19 2 19 20
M  V30 20 1 20 21
M  V30 21 2 21 22
M  V30 22 1 22 7
M  V30 23 1 15 10
M  V30 24 1 22 17
M  V30 25 1 1 23
M  V30 26 1 1 24
M  V30 27 1 1 25
M  V30 28 1 2 26
M  V30 29 1 3 27
M  V30 30 1 3 28
M  V30 31 1 4 29
M  V30 32 1 4 30
M  V30 33 1 5 31
M  V30 34 1 5 32
M  V30 35 1 6 33
M  V30 36 1 8 34
M  V30 37 1 11 35
M  V30 38 1 12 36
M  V30 39 1 14 37
M  V30 40 1 15 38
M  V30 41 1 18 39
M  V30 42 1 20 40
M  V30 43 1 21 41
M  V30 END BOND
M  V30 END CTAB
M  END
>  <Dataset>  (652) 
ChEMBL_Kinases

>  <Ligand_Instance>  (652) 
nan

>  <PDB_ID>  (652) 
nan

>  <Standardized_SMILES>  (652) 
CC(CN)CNc1cc(-c2ccncc2)nc2cnccc12

>  <Name>  (652) 
nan

>  <Pocket>  (652) 
nan

>  <ATP_Site>  (652) 
nan

>  <Peripheral>  (652) 
nan

>  <Num_H_Atoms_ProtBoundConf>  (652) 
nan

>  <Num_Resolved_Atoms>  (652) 
nan

>  <Num_Not_Resolved_Atoms>  (652) 
nan

$$$$
CHEMBL4448214
     RDKit          3D

  0  0  0  0  0  0  0  0  0  0999 V3000
M  V30 BEGIN CTAB
M  V30 COUNTS 76 80 0 0 0
M  V30 BEGIN ATOM
M  V30 1 C 5.817278 -0.984468 3.126893 0
M  V30 2 C 4.713896 -1.906566 3.541239 0
M  V30 3 O 3.437773 -1.483080 3.152801 0
M  V30 4 C 3.020065 -1.289243 1.862964 0
M  V30 5 C 3.811382 -1.494563 0.754452 0
M  V30 6 C 3.387147 -1.297708 -0.559665 0
M  V30 7 C 4.349051 -1.551454 -1.661736 0
M  V30 8 C 4.487535 -0.441641 -2.639045 0
M  V30 9 C 4.272330 -0.919130 -4.058099 0
M  V30 10 N 2.947912 -1.510815 -4.101668 0
M  V30 11 C 2.404998 -1.609479 -5.421378 0
M  V30 12 C 2.961077 -2.755829 -3.364629 0
M  V30 13 C 4.097575 -2.848778 -2.384451 0
M  V30 14 C 2.107870 -0.877030 -0.720418 0
M  V30 15 C 1.301427 -0.666787 0.378721 0
M  V30 16 C 1.699540 -0.855115 1.688711 0
M  V30 17 N 0.851848 -0.629606 2.800699 0
M  V30 18 C -0.504058 -0.208667 2.815755 0
M  V30 19 N -1.132614 -0.032780 3.987177 0
M  V30 20 C -2.376670 0.348041 4.182476 0
M  V30 21 C -3.111641 0.592094 3.054669 0
M  V30 22 C -2.561728 0.441332 1.803032 0
M  V30 23 N -1.282049 0.047496 1.755189 0
M  V30 24 N -3.277059 0.676902 0.604294 0
M  V30 25 C -2.987692 -0.027743 -0.603742 0
M  V30 26 C -3.180856 -1.487790 -0.545652 0
M  V30 27 C -2.275859 -2.477266 -0.224664 0
M  V30 28 C -2.612279 -3.813417 -0.211254 0
M  V30 29 C -3.875045 -4.241184 -0.518107 0
M  V30 30 C -4.813311 -3.290059 -0.845014 0
M  V30 31 Cl -6.433957 -3.822590 -1.239994 0
M  V30 32 C -4.465059 -1.955936 -0.855335 0
M  V30 33 C -4.342680 1.685909 0.669619 0 CFG=2
M  V30 34 C -3.737982 3.042498 0.993859 0
M  V30 35 C -4.815696 4.123322 1.069402 0
M  V30 36 C -5.177355 1.257459 1.848468 0
M  V30 37 O -6.431241 1.079007 1.902863 0
M  V30 38 N -4.470518 1.015921 3.080834 0
M  V30 39 C -5.101718 1.190713 4.384621 0
M  V30 40 H 5.417589 -0.148939 2.512611 0
M  V30 41 H 6.261587 -0.537525 4.053375 0
M  V30 42 H 6.564527 -1.534175 2.539845 0
M  V30 43 H 4.756694 -2.046299 4.643088 0
M  V30 44 H 4.867460 -2.909292 3.040354 0
M  V30 45 H 4.816869 -1.833903 0.946361 0
M  V30 46 H 5.352556 -1.698119 -1.159442 0
M  V30 47 H 3.745047 0.377789 -2.487294 0
M  V30 48 H 5.529621 -0.005267 -2.637575 0
M  V30 49 H 4.982179 -1.685273 -4.378979 0
M  V30 50 H 4.257332 -0.034892 -4.748645 0
M  V30 51 H 2.296421 -2.636194 -5.807754 0
M  V30 52 H 3.074121 -1.000002 -6.094463 0
M  V30 53 H 1.428891 -1.051782 -5.460284 0
M  V30 54 H 2.974300 -3.631588 -4.059747 0
M  V30 55 H 2.010051 -2.806761 -2.792044 0
M  V30 56 H 3.768937 -3.572814 -1.582896 0
M  V30 57 H 5.023903 -3.246337 -2.847927 0
M  V30 58 H 1.754352 -0.711383 -1.713223 0
M  V30 59 H 0.308913 -0.333520 0.130155 0
M  V30 60 H 1.288492 -0.797405 3.733188 0
M  V30 61 H -2.810727 0.466964 5.147453 0
M  V30 62 H -3.659844 0.390521 -1.402698 0
M  V30 63 H -1.958878 0.219481 -1.003322 0
M  V30 64 H -1.284621 -2.117394 0.011960 0
M  V30 65 H -1.791238 -4.462005 0.060337 0
M  V30 66 H -4.043105 -5.305811 -0.480302 0
M  V30 67 H -5.277283 -1.276895 -1.127985 0
M  V30 68 H -4.936555 1.723282 -0.239895 0
M  V30 69 H -3.060432 3.329818 0.162845 0
M  V30 70 H -3.143120 3.021818 1.912652 0
M  V30 71 H -4.302419 5.081352 1.211840 0
M  V30 72 H -5.299855 4.150695 0.063434 0
M  V30 73 H -5.532509 3.963528 1.880635 0
M  V30 74 H -6.126389 1.614022 4.218368 0
M  V30 75 H -4.472591 1.829063 5.029461 0
M  V30 76 H -5.249306 0.213447 4.910079 0
M  V30 END ATOM
M  V30 BEGIN BOND
M  V30 1 1 1 2
M  V30 2 1 2 3
M  V30 3 1 3 4
M  V30 4 2 4 5
M  V30 5 1 5 6
M  V30 6 1 6 7
M  V30 7 1 7 8
M  V30 8 1 8 9
M  V30 9 1 9 10
M  V30 10 1 10 11
M  V30 11 1 10 12
M  V30 12 1 12 13
M  V30 13 2 6 14
M  V30 14 1 14 15
M  V30 15 2 15 16
M  V30 16 1 16 17
M  V30 17 1 17 18
M  V30 18 2 18 19
M  V30 19 1 19 20
M  V30 20 2 20 21
M  V30 21 1 21 22
M  V30 22 2 22 23
M  V30 23 1 22 24
M  V30 24 1 24 25
M  V30 25 1 25 26
M  V30 26 2 26 27
M  V30 27 1 27 28
M  V30 28 2 28 29
M  V30 29 1 29 30
M  V30 30 1 30 31
M  V30 31 2 30 32
M  V30 32 1 24 33
M  V30 33 1 33 34
M  V30 34 1 34 35
M  V30 35 1 33 36
M  V30 36 2 36 37
M  V30 37 1 36 38
M  V30 38 1 38 39
M  V30 39 1 16 4
M  V30 40 1 23 18
M  V30 41 1 32 26
M  V30 42 1 13 7
M  V30 43 1 38 21
M  V30 44 1 1 40
M  V30 45 1 1 41
M  V30 46 1 1 42
M  V30 47 1 2 43
M  V30 48 1 2 44
M  V30 49 1 5 45
M  V30 50 1 7 46
M  V30 51 1 8 47
M  V30 52 1 8 48
M  V30 53 1 9 49
M  V30 54 1 9 50
M  V30 55 1 11 51
M  V30 56 1 11 52
M  V30 57 1 11 53
M  V30 58 1 12 54
M  V30 59 1 12 55
M  V30 60 1 13 56
M  V30 61 1 13 57
M  V30 62 1 14 58
M  V30 63 1 15 59
M  V30 64 1 17 60
M  V30 65 1 20 61
M  V30 66 1 25 62
M  V30 67 1 25 63
M  V30 68 1 27 64
M  V30 69 1 28 65
M  V30 70 1 29 66
M  V30 71 1 32 67
M  V30 72 1 33 68 CFG=3
M  V30 73 1 34 69
M  V30 74 1 34 70
M  V30 75 1 35 71
M  V30 76 1 35 72
M  V30 77 1 35 73
M  V30 78 1 39 74
M  V30 79 1 39 75
M  V30 80 1 39 76
M  V30 END BOND
M  V30 END CTAB
M  END
>  <Dataset>  (653) 
ChEMBL_Kinases

>  <Ligand_Instance>  (653) 
nan

>  <PDB_ID>  (653) 
nan

>  <Standardized_SMILES>  (653) 
CCOc1cc(C2CCN(C)CC2)ccc1Nc1ncc2c(n1)N(Cc1cccc(Cl)c1)[C@H](CC)C(=O)N2C

>  <Name>  (653) 
nan

>  <Pocket>  (653) 
nan

>  <ATP_Site>  (653) 
nan

>  <Peripheral>  (653) 
nan

>  <Num_H_Atoms_ProtBoundConf>  (653) 
nan

>  <Num_Resolved_Atoms>  (653) 
nan

>  <Num_Not_Resolved_Atoms>  (653) 
nan

$$$$
CHEMBL4749823
     RDKit          3D

  0  0  0  0  0  0  0  0  0  0999 V3000
M  V30 BEGIN CTAB
M  V30 COUNTS 36 38 0 0 0
M  V30 BEGIN ATOM
M  V30 1 C 0.717032 -5.058969 3.836843 0
M  V30 2 C 1.649718 -5.460174 3.017521 0
M  V30 3 C 2.139432 -4.640805 1.919692 0
M  V30 4 O 3.039933 -5.105770 1.178935 0
M  V30 5 N 1.649173 -3.342475 1.645524 0
M  V30 6 C 2.022324 -2.435988 0.626107 0
M  V30 7 C 2.963722 -2.612260 -0.349302 0
M  V30 8 C 3.293472 -1.696734 -1.324326 0
M  V30 9 C 2.629689 -0.487526 -1.339731 0
M  V30 10 C 1.671862 -0.273671 -0.369702 0
M  V30 11 C 0.958007 0.999081 -0.365729 0
M  V30 12 N 1.649581 2.151138 -0.519607 0
M  V30 13 N 0.822260 3.190639 -0.488452 0
M  V30 14 C -0.444184 2.769291 -0.313498 0
M  V30 15 C -1.686365 3.357429 -0.205638 0
M  V30 16 C -2.807126 2.557036 -0.024269 0
M  V30 17 C -4.182341 3.144718 0.099171 0
M  V30 18 C -2.679490 1.171147 0.048330 0
M  V30 19 C -1.430720 0.548051 -0.058072 0
M  V30 20 C -0.358102 1.396232 -0.236769 0
M  V30 21 C 1.385916 -1.216613 0.572471 0
M  V30 22 H 0.160205 -4.135907 3.882937 0
M  V30 23 H 0.328820 -5.617286 4.647996 0
M  V30 24 H 2.048458 -6.445702 3.194873 0
M  V30 25 H 0.906580 -3.060788 2.322338 0
M  V30 26 H 3.512188 -3.539291 -0.383341 0
M  V30 27 H 4.048587 -1.909158 -2.060656 0
M  V30 28 H 2.892239 0.222866 -2.104019 0
M  V30 29 H 1.017116 4.215949 -0.576106 0
M  V30 30 H -1.775170 4.415638 -0.262097 0
M  V30 31 H -4.786182 2.507581 0.805393 0
M  V30 32 H -4.660473 2.993811 -0.912595 0
M  V30 33 H -4.173108 4.196076 0.394064 0
M  V30 34 H -3.586833 0.574453 0.191890 0
M  V30 35 H -1.338703 -0.527462 -0.001648 0
M  V30 36 H 0.616149 -0.971428 1.306453 0
M  V30 END ATOM
M  V30 BEGIN BOND
M  V30 1 2 1 2
M  V30 2 1 2 3
M  V30 3 2 3 4
M  V30 4 1 3 5
M  V30 5 1 5 6
M  V30 6 2 6 7
M  V30 7 1 7 8
M  V30 8 2 8 9
M  V30 9 1 9 10
M  V30 10 1 10 11
M  V30 11 2 11 12
M  V30 12 1 12 13
M  V30 13 1 13 14
M  V30 14 2 14 15
M  V30 15 1 15 16
M  V30 16 1 16 17
M  V30 17 2 16 18
M  V30 18 1 18 19
M  V30 19 2 19 20
M  V30 20 2 10 21
M  V30 21 1 21 6
M  V30 22 1 20 11
M  V30 23 1 20 14
M  V30 24 1 1 22
M  V30 25 1 1 23
M  V30 26 1 2 24
M  V30 27 1 5 25
M  V30 28 1 7 26
M  V30 29 1 8 27
M  V30 30 1 9 28
M  V30 31 1 13 29
M  V30 32 1 15 30
M  V30 33 1 17 31
M  V30 34 1 17 32
M  V30 35 1 17 33
M  V30 36 1 18 34
M  V30 37 1 19 35
M  V30 38 1 21 36
M  V30 END BOND
M  V30 END CTAB
M  END
>  <Dataset>  (654) 
ChEMBL_Kinases

>  <Ligand_Instance>  (654) 
nan

>  <PDB_ID>  (654) 
nan

>  <Standardized_SMILES>  (654) 
C=CC(=O)Nc1cccc(-c2n[nH]c3cc(C)ccc23)c1

>  <Name>  (654) 
nan

>  <Pocket>  (654) 
nan

>  <ATP_Site>  (654) 
nan

>  <Peripheral>  (654) 
nan

>  <Num_H_Atoms_ProtBoundConf>  (654) 
nan

>  <Num_Resolved_Atoms>  (654) 
nan

>  <Num_Not_Resolved_Atoms>  (654) 
nan

$$$$
CHEMBL4449852
     RDKit          3D

  0  0  0  0  0  0  0  0  0  0999 V3000
M  V30 BEGIN CTAB
M  V30 COUNTS 48 51 0 0 0
M  V30 BEGIN ATOM
M  V30 1 C -4.341158 -4.252655 1.830259 0
M  V30 2 O -4.094105 -4.351713 0.444393 0
M  V30 3 C -3.329196 -3.355011 -0.142591 0
M  V30 4 C -2.846982 -2.317315 0.651060 0
M  V30 5 C -2.077246 -1.302185 0.094517 0
M  V30 6 C -1.777378 -1.304389 -1.252376 0
M  V30 7 C -0.973164 -0.239936 -1.821479 0
M  V30 8 C -1.057227 0.265763 -3.117112 0
M  V30 9 N -0.251417 1.260384 -3.529048 0
M  V30 10 C 0.678236 1.831467 -2.738224 0
M  V30 11 N 1.579044 2.816131 -2.919490 0
M  V30 12 C 2.293061 3.014636 -1.784654 0
M  V30 13 C 1.819211 2.116063 -0.852995 0
M  V30 14 C 2.229407 1.906752 0.511626 0
M  V30 15 C 2.560879 1.715540 1.660493 0
M  V30 16 C 2.934195 1.474780 3.030401 0
M  V30 17 C 1.966499 1.142867 3.986143 0
M  V30 18 C 2.295546 0.907026 5.307613 0
M  V30 19 C 3.623419 1.007666 5.671396 0
M  V30 20 C 3.887200 0.738284 7.110853 0
M  V30 21 C 4.629597 1.330922 4.781074 0
M  V30 22 C 4.238369 1.554941 3.476285 0
M  V30 23 C 0.812507 1.372493 -1.434573 0
M  V30 24 C -0.018645 0.351688 -1.021034 0
M  V30 25 C -2.256420 -2.332304 -2.032329 0
M  V30 26 C -3.021901 -3.348514 -1.498287 0
M  V30 27 O -3.546047 -4.421612 -2.205476 0
M  V30 28 C -3.375849 -4.635052 -3.576822 0
M  V30 29 H -4.959790 -5.102817 2.201277 0
M  V30 30 H -3.353817 -4.212811 2.338491 0
M  V30 31 H -4.826278 -3.268874 2.025787 0
M  V30 32 H -3.064971 -2.288576 1.710278 0
M  V30 33 H -1.728257 -0.521428 0.752492 0
M  V30 34 H -1.810355 -0.201226 -3.748223 0
M  V30 35 H 1.741459 3.375879 -3.791639 0
M  V30 36 H 3.083941 3.705726 -1.562899 0
M  V30 37 H 0.947559 1.089592 3.594777 0
M  V30 38 H 1.488890 0.656137 5.982187 0
M  V30 39 H 4.799746 1.305794 7.383023 0
M  V30 40 H 4.156335 -0.348672 7.253567 0
M  V30 41 H 3.026666 1.014092 7.753110 0
M  V30 42 H 5.650846 1.397519 5.111591 0
M  V30 43 H 4.996970 1.811380 2.744258 0
M  V30 44 H 0.114626 0.021051 -0.001892 0
M  V30 45 H -2.046412 -2.371600 -3.082871 0
M  V30 46 H -2.421075 -4.195683 -3.915314 0
M  V30 47 H -4.267476 -4.233772 -4.117811 0
M  V30 48 H -3.365019 -5.745644 -3.765086 0
M  V30 END ATOM
M  V30 BEGIN BOND
M  V30 1 1 1 2
M  V30 2 1 2 3
M  V30 3 2 3 4
M  V30 4 1 4 5
M  V30 5 2 5 6
M  V30 6 1 6 7
M  V30 7 2 7 8
M  V30 8 1 8 9
M  V30 9 2 9 10
M  V30 10 1 10 11
M  V30 11 1 11 12
M  V30 12 2 12 13
M  V30 13 1 13 14
M  V30 14 3 14 15
M  V30 15 1 15 16
M  V30 16 2 16 17
M  V30 17 1 17 18
M  V30 18 2 18 19
M  V30 19 1 19 20
M  V30 20 1 19 21
M  V30 21 2 21 22
M  V30 22 1 13 23
M  V30 23 2 23 24
M  V30 24 1 6 25
M  V30 25 2 25 26
M  V30 26 1 26 27
M  V30 27 1 27 28
M  V30 28 1 26 3
M  V30 29 1 24 7
M  V30 30 1 23 10
M  V30 31 1 22 16
M  V30 32 1 1 29
M  V30 33 1 1 30
M  V30 34 1 1 31
M  V30 35 1 4 32
M  V30 36 1 5 33
M  V30 37 1 8 34
M  V30 38 1 11 35
M  V30 39 1 12 36
M  V30 40 1 17 37
M  V30 41 1 18 38
M  V30 42 1 20 39
M  V30 43 1 20 40
M  V30 44 1 20 41
M  V30 45 1 21 42
M  V30 46 1 22 43
M  V30 47 1 24 44
M  V30 48 1 25 45
M  V30 49 1 28 46
M  V30 50 1 28 47
M  V30 51 1 28 48
M  V30 END BOND
M  V30 END CTAB
M  END
>  <Dataset>  (655) 
ChEMBL_Kinases

>  <Ligand_Instance>  (655) 
nan

>  <PDB_ID>  (655) 
nan

>  <Standardized_SMILES>  (655) 
COc1ccc(-c2cnc3[nH]cc(C#Cc4ccc(C)cc4)c3c2)cc1OC

>  <Name>  (655) 
nan

>  <Pocket>  (655) 
nan

>  <ATP_Site>  (655) 
nan

>  <Peripheral>  (655) 
nan

>  <Num_H_Atoms_ProtBoundConf>  (655) 
nan

>  <Num_Resolved_Atoms>  (655) 
nan

>  <Num_Not_Resolved_Atoms>  (655) 
nan

$$$$
CHEMBL4449840
     RDKit          3D

  0  0  0  0  0  0  0  0  0  0999 V3000
M  V30 BEGIN CTAB
M  V30 COUNTS 65 69 0 0 0
M  V30 BEGIN ATOM
M  V30 1 C 6.648862 2.108695 3.675262 0
M  V30 2 O 5.253919 2.107453 3.657877 0
M  V30 3 C 4.458785 2.809929 2.798132 0
M  V30 4 C 4.794413 3.658053 1.772321 0
M  V30 5 C 3.921549 4.316541 0.966372 0
M  V30 6 N 4.356744 5.144848 0.001384 0
M  V30 7 C 3.479855 5.793906 -0.759652 0
M  V30 8 C 2.098326 5.642460 -0.590812 0
M  V30 9 C 1.604057 4.794029 0.395031 0
M  V30 10 O 0.289307 4.530375 0.695066 0
M  V30 11 C -0.330727 3.296933 0.537322 0
M  V30 12 C -1.539599 2.943119 1.097720 0
M  V30 13 C -2.116244 1.704021 0.902558 0
M  V30 14 C -1.490076 0.733772 0.111597 0
M  V30 15 N -1.925417 -0.558826 -0.214559 0
M  V30 16 C -1.612707 -1.730754 0.352667 0
M  V30 17 O -0.805116 -1.807326 1.350421 0
M  V30 18 C -1.616130 -3.133352 0.569650 0
M  V30 19 C -2.562263 -3.234339 -0.603414 0
M  V30 20 N -3.177878 -4.348845 -1.202920 0
M  V30 21 C -4.094748 -4.524020 -2.329469 0
M  V30 22 C -4.620645 -3.157643 -2.757677 0
M  V30 23 C -3.388306 -5.095723 -3.524410 0
M  V30 24 C -2.906431 -5.585721 -0.667554 0
M  V30 25 C -3.351777 -6.825881 -1.029595 0
M  V30 26 C -3.005862 -7.999362 -0.404535 0
M  V30 27 C -2.129989 -7.866509 0.675674 0
M  V30 28 C -1.608734 -6.662337 1.138106 0
M  V30 29 C -2.055290 -5.591812 0.404819 0
M  V30 30 C -1.620271 -4.385162 0.761979 0
M  V30 31 O -0.795427 -4.209187 1.774496 0
M  V30 32 C -0.259982 1.058461 -0.472036 0
M  V30 33 C 0.287818 2.316037 -0.251143 0
M  V30 34 C 2.573742 4.140423 1.165103 0
M  V30 35 C 2.146159 3.295003 2.187206 0
M  V30 36 C 3.088514 2.652193 2.977322 0
M  V30 37 O 2.620637 1.807987 4.001880 0
M  V30 38 C 1.253261 1.611760 4.232113 0
M  V30 39 H 7.029451 1.493479 4.500877 0
M  V30 40 H 7.099285 3.116195 3.756718 0
M  V30 41 H 6.994765 1.716658 2.673991 0
M  V30 42 H 5.884709 3.771379 1.646182 0
M  V30 43 H 3.750246 6.480464 -1.558306 0
M  V30 44 H 1.324701 6.137545 -1.171699 0
M  V30 45 H -2.041715 3.672264 1.710412 0
M  V30 46 H -3.043645 1.390769 1.322273 0
M  V30 47 H -2.600946 -0.801157 -0.952156 0
M  V30 48 H -3.088013 -2.562486 -1.366102 0
M  V30 49 H -4.959334 -5.080307 -1.979506 0
M  V30 50 H -5.429144 -3.390407 -3.501012 0
M  V30 51 H -3.853959 -2.564821 -3.289734 0
M  V30 52 H -5.123969 -2.612653 -1.936224 0
M  V30 53 H -3.236095 -4.319746 -4.334254 0
M  V30 54 H -3.953819 -5.897260 -4.042511 0
M  V30 55 H -2.335945 -5.401381 -3.284171 0
M  V30 56 H -4.033826 -6.828625 -1.882747 0
M  V30 57 H -3.411571 -8.908536 -0.780678 0
M  V30 58 H -1.858296 -8.792644 1.162112 0
M  V30 59 H -0.941948 -6.618770 1.972929 0
M  V30 60 H 0.326796 0.379227 -1.109916 0
M  V30 61 H 1.254292 2.554093 -0.716396 0
M  V30 62 H 1.112242 3.097633 2.427599 0
M  V30 63 H 0.756963 1.037201 3.425164 0
M  V30 64 H 0.744075 2.564396 4.357827 0
M  V30 65 H 1.091308 1.010484 5.159820 0
M  V30 END ATOM
M  V30 BEGIN BOND
M  V30 1 1 1 2
M  V30 2 1 2 3
M  V30 3 2 3 4
M  V30 4 1 4 5
M  V30 5 2 5 6
M  V30 6 1 6 7
M  V30 7 2 7 8
M  V30 8 1 8 9
M  V30 9 1 9 10
M  V30 10 1 10 11
M  V30 11 2 11 12
M  V30 12 1 12 13
M  V30 13 2 13 14
M  V30 14 1 14 15
M  V30 15 1 15 16
M  V30 16 2 16 17
M  V30 17 1 16 18
M  V30 18 2 18 19
M  V30 19 1 19 20
M  V30 20 1 20 21
M  V30 21 1 21 22
M  V30 22 1 21 23
M  V30 23 1 20 24
M  V30 24 2 24 25
M  V30 25 1 25 26
M  V30 26 2 26 27
M  V30 27 1 27 28
M  V30 28 2 28 29
M  V30 29 1 29 30
M  V30 30 2 30 31
M  V30 31 1 14 32
M  V30 32 2 32 33
M  V30 33 2 9 34
M  V30 34 1 34 35
M  V30 35 2 35 36
M  V30 36 1 36 37
M  V30 37 1 37 38
M  V30 38 1 36 3
M  V30 39 1 34 5
M  V30 40 1 33 11
M  V30 41 1 30 18
M  V30 42 1 29 24
M  V30 43 1 1 39
M  V30 44 1 1 40
M  V30 45 1 1 41
M  V30 46 1 4 42
M  V30 47 1 7 43
M  V30 48 1 8 44
M  V30 49 1 12 45
M  V30 50 1 13 46
M  V30 51 1 15 47
M  V30 52 1 19 48
M  V30 53 1 21 49
M  V30 54 1 22 50
M  V30 55 1 22 51
M  V30 56 1 22 52
M  V30 57 1 23 53
M  V30 58 1 23 54
M  V30 59 1 23 55
M  V30 60 1 25 56
M  V30 61 1 26 57
M  V30 62 1 27 58
M  V30 63 1 28 59
M  V30 64 1 32 60
M  V30 65 1 33 61
M  V30 66 1 35 62
M  V30 67 1 38 63
M  V30 68 1 38 64
M  V30 69 1 38 65
M  V30 END BOND
M  V30 END CTAB
M  END
>  <Dataset>  (656) 
ChEMBL_Kinases

>  <Ligand_Instance>  (656) 
nan

>  <PDB_ID>  (656) 
nan

>  <Standardized_SMILES>  (656) 
COc1cc2nccc(Oc3ccc(NC(=O)c4cn(C(C)C)c5ccccc5c4=O)cc3)c2cc1OC

>  <Name>  (656) 
nan

>  <Pocket>  (656) 
nan

>  <ATP_Site>  (656) 
nan

>  <Peripheral>  (656) 
nan

>  <Num_H_Atoms_ProtBoundConf>  (656) 
nan

>  <Num_Resolved_Atoms>  (656) 
nan

>  <Num_Not_Resolved_Atoms>  (656) 
nan

$$$$
CHEMBL4449815
     RDKit          3D

  0  0  0  0  0  0  0  0  0  0999 V3000
M  V30 BEGIN CTAB
M  V30 COUNTS 49 52 0 0 0
M  V30 BEGIN ATOM
M  V30 1 C 0.026563 -6.743763 1.333498 0
M  V30 2 C 0.400445 -5.372794 0.897175 0
M  V30 3 C 0.023531 -4.304516 1.684888 0
M  V30 4 C 0.376315 -3.037717 1.269369 0
M  V30 5 C 1.080239 -2.734469 0.124047 0
M  V30 6 C 1.425145 -1.376341 -0.277803 0
M  V30 7 C 2.148445 -1.181374 -1.421440 0
M  V30 8 C 2.469811 0.116945 -1.757517 0
M  V30 9 N 3.177342 0.439443 -2.856428 0
M  V30 10 C 3.508557 1.682556 -3.215407 0
M  V30 11 N 3.087244 2.680642 -2.391622 0
M  V30 12 C 2.378650 2.407501 -1.283979 0
M  V30 13 O 2.072866 3.415256 -0.645667 0
M  V30 14 C 2.044146 1.128325 -0.924873 0
M  V30 15 C 1.315590 0.929430 0.225878 0
M  V30 16 N 0.892905 1.938959 1.125269 0
M  V30 17 C 0.105116 1.706362 2.316121 0
M  V30 18 C -1.364506 1.580242 2.098342 0 CFG=1
M  V30 19 C -1.829183 0.481974 1.203017 0
M  V30 20 C -3.359086 0.382161 1.225270 0
M  V30 21 C -3.934220 1.421033 2.164732 0
M  V30 22 N -3.367574 1.386106 3.471724 0
M  V30 23 C -1.950343 1.273595 3.482125 0
M  V30 24 N 1.039952 -0.344725 0.491313 0
M  V30 25 C 1.422400 -3.845854 -0.610925 0
M  V30 26 C 1.108293 -5.144700 -0.264992 0
M  V30 27 H 0.423729 -7.524137 0.686450 0
M  V30 28 H 0.368807 -6.961409 2.364624 0
M  V30 29 H -1.094049 -6.781920 1.391097 0
M  V30 30 H -0.528677 -4.488800 2.590646 0
M  V30 31 H 0.055985 -2.249248 1.932804 0
M  V30 32 H 2.498220 -1.931769 -2.094215 0
M  V30 33 H 4.082836 1.814743 -4.125795 0
M  V30 34 H 3.366595 3.656510 -2.704668 0
M  V30 35 H 1.014584 2.958667 1.160278 0
M  V30 36 H 0.413250 0.696643 2.767110 0
M  V30 37 H 0.277317 2.400363 3.146888 0
M  V30 38 H -1.776193 2.579684 1.776580 0
M  V30 39 H -1.485751 -0.488043 1.599711 0
M  V30 40 H -1.505862 0.655179 0.165242 0
M  V30 41 H -3.679041 -0.638300 1.440241 0
M  V30 42 H -3.717986 0.635831 0.217740 0
M  V30 43 H -3.892440 2.422462 1.691195 0
M  V30 44 H -5.035767 1.179308 2.223383 0
M  V30 45 H -3.768945 0.624178 4.061962 0
M  V30 46 H -1.606555 0.223474 3.687851 0
M  V30 47 H -1.477824 1.988780 4.193088 0
M  V30 48 H 1.970875 -3.765701 -1.525408 0
M  V30 49 H 1.391147 -5.998226 -0.863321 0
M  V30 END ATOM
M  V30 BEGIN BOND
M  V30 1 1 1 2
M  V30 2 2 2 3
M  V30 3 1 3 4
M  V30 4 2 4 5
M  V30 5 1 5 6
M  V30 6 2 6 7
M  V30 7 1 7 8
M  V30 8 1 8 9
M  V30 9 2 9 10
M  V30 10 1 10 11
M  V30 11 1 11 12
M  V30 12 2 12 13
M  V30 13 1 12 14
M  V30 14 1 14 15
M  V30 15 1 15 16
M  V30 16 1 16 17
M  V30 17 1 17 18
M  V30 18 1 18 19
M  V30 19 1 19 20
M  V30 20 1 20 21
M  V30 21 1 21 22
M  V30 22 1 22 23
M  V30 23 2 15 24
M  V30 24 1 5 25
M  V30 25 2 25 26
M  V30 26 1 26 2
M  V30 27 1 24 6
M  V30 28 2 14 8
M  V30 29 1 23 18
M  V30 30 1 1 27
M  V30 31 1 1 28
M  V30 32 1 1 29
M  V30 33 1 3 30
M  V30 34 1 4 31
M  V30 35 1 7 32
M  V30 36 1 10 33
M  V30 37 1 11 34
M  V30 38 1 16 35
M  V30 39 1 17 36
M  V30 40 1 17 37
M  V30 41 1 18 38 CFG=3
M  V30 42 1 19 39
M  V30 43 1 19 40
M  V30 44 1 20 41
M  V30 45 1 20 42
M  V30 46 1 21 43
M  V30 47 1 21 44
M  V30 48 1 22 45
M  V30 49 1 23 46
M  V30 50 1 23 47
M  V30 51 1 25 48
M  V30 52 1 26 49
M  V30 END BOND
M  V30 END CTAB
M  END
>  <Dataset>  (657) 
ChEMBL_Kinases

>  <Ligand_Instance>  (657) 
nan

>  <PDB_ID>  (657) 
nan

>  <Standardized_SMILES>  (657) 
Cc1ccc(-c2cc3nc[nH]c(=O)c3c(NC[C@H]3CCCNC3)n2)cc1

>  <Name>  (657) 
nan

>  <Pocket>  (657) 
nan

>  <ATP_Site>  (657) 
nan

>  <Peripheral>  (657) 
nan

>  <Num_H_Atoms_ProtBoundConf>  (657) 
nan

>  <Num_Resolved_Atoms>  (657) 
nan

>  <Num_Not_Resolved_Atoms>  (657) 
nan

$$$$
CHEMBL4449746
     RDKit          3D

  0  0  0  0  0  0  0  0  0  0999 V3000
M  V30 BEGIN CTAB
M  V30 COUNTS 44 47 0 0 0
M  V30 BEGIN ATOM
M  V30 1 O -0.701694 -3.080319 2.970227 0
M  V30 2 C -0.861366 -1.911148 2.550518 0
M  V30 3 C 0.231803 -1.310345 1.789310 0
M  V30 4 C 1.351612 -1.949105 1.536818 0
M  V30 5 C 2.494155 -1.443344 0.792829 0
M  V30 6 C 3.624080 -2.243305 0.596676 0
M  V30 7 N 4.678965 -1.768996 -0.093341 0
M  V30 8 C 4.674073 -0.525362 -0.607425 0
M  V30 9 N 5.641184 0.099187 -1.319933 0
M  V30 10 C 5.213607 1.342760 -1.636886 0
M  V30 11 C 3.948179 1.481793 -1.102222 0
M  V30 12 C 3.090790 2.658355 -1.185741 0
M  V30 13 C 2.892040 3.342647 -2.368292 0
M  V30 14 C 2.081956 4.465673 -2.469864 0
M  V30 15 N 1.445162 4.932485 -1.371507 0
M  V30 16 C 1.648617 4.250958 -0.214361 0
M  V30 17 C 2.443088 3.129285 -0.057183 0
M  V30 18 C 3.593764 0.318241 -0.452595 0
M  V30 19 C 2.511362 -0.172375 0.257024 0
M  V30 20 N -2.053254 -1.195515 2.801446 0
M  V30 21 C -3.184866 -1.687025 3.533669 0
M  V30 22 C -4.029992 -2.646199 2.785873 0
M  V30 23 C -3.858551 -4.032328 2.793811 0
M  V30 24 C -4.682585 -4.867977 2.070903 0
M  V30 25 N -5.692984 -4.359249 1.324678 0
M  V30 26 C -5.913533 -3.027176 1.273329 0
M  V30 27 C -5.086654 -2.169603 2.000375 0
M  V30 28 H 0.140506 -0.309682 1.411382 0
M  V30 29 H 1.398199 -2.958885 1.939711 0
M  V30 30 H 3.573719 -3.242083 1.033697 0
M  V30 31 H 6.578439 -0.290306 -1.596699 0
M  V30 32 H 5.794871 2.065601 -2.209442 0
M  V30 33 H 3.425723 2.929942 -3.226948 0
M  V30 34 H 2.005518 4.913742 -3.448959 0
M  V30 35 H 1.139514 4.627351 0.654771 0
M  V30 36 H 2.532329 2.671201 0.908454 0
M  V30 37 H 1.676031 0.503862 0.365563 0
M  V30 38 H -2.076563 -0.212809 2.397482 0
M  V30 39 H -3.850787 -0.835733 3.782995 0
M  V30 40 H -2.886145 -2.115332 4.532178 0
M  V30 41 H -3.052448 -4.430294 3.391511 0
M  V30 42 H -4.512558 -5.925244 2.107770 0
M  V30 43 H -6.725056 -2.592994 0.676269 0
M  V30 44 H -5.262366 -1.101172 1.959720 0
M  V30 END ATOM
M  V30 BEGIN BOND
M  V30 1 2 1 2
M  V30 2 1 2 3
M  V30 3 2 3 4
M  V30 4 1 4 5
M  V30 5 2 5 6
M  V30 6 1 6 7
M  V30 7 2 7 8
M  V30 8 1 8 9
M  V30 9 1 9 10
M  V30 10 2 10 11
M  V30 11 1 11 12
M  V30 12 2 12 13
M  V30 13 1 13 14
M  V30 14 2 14 15
M  V30 15 1 15 16
M  V30 16 2 16 17
M  V30 17 1 11 18
M  V30 18 2 18 19
M  V30 19 1 2 20
M  V30 20 1 20 21
M  V30 21 1 21 22
M  V30 22 2 22 23
M  V30 23 1 23 24
M  V30 24 2 24 25
M  V30 25 1 25 26
M  V30 26 2 26 27
M  V30 27 1 19 5
M  V30 28 1 27 22
M  V30 29 1 18 8
M  V30 30 1 17 12
M  V30 31 1 3 28
M  V30 32 1 4 29
M  V30 33 1 6 30
M  V30 34 1 9 31
M  V30 35 1 10 32
M  V30 36 1 13 33
M  V30 37 1 14 34
M  V30 38 1 16 35
M  V30 39 1 17 36
M  V30 40 1 19 37
M  V30 41 1 20 38
M  V30 42 1 21 39
M  V30 43 1 21 40
M  V30 44 1 23 41
M  V30 45 1 24 42
M  V30 46 1 26 43
M  V30 47 1 27 44
M  V30 END BOND
M  V30 END CTAB
M  END
>  <Dataset>  (658) 
ChEMBL_Kinases

>  <Ligand_Instance>  (658) 
nan

>  <PDB_ID>  (658) 
nan

>  <Standardized_SMILES>  (658) 
O=C(/C=C/c1cnc2[nH]cc(-c3ccncc3)c2c1)NCc1ccncc1

>  <Name>  (658) 
nan

>  <Pocket>  (658) 
nan

>  <ATP_Site>  (658) 
nan

>  <Peripheral>  (658) 
nan

>  <Num_H_Atoms_ProtBoundConf>  (658) 
nan

>  <Num_Resolved_Atoms>  (658) 
nan

>  <Num_Not_Resolved_Atoms>  (658) 
nan

$$$$
CHEMBL4749519
     RDKit          3D

  0  0  0  0  0  0  0  0  0  0999 V3000
M  V30 BEGIN CTAB
M  V30 COUNTS 44 47 0 0 0
M  V30 BEGIN ATOM
M  V30 1 C 1.548969 -7.016469 0.821599 0
M  V30 2 N 1.303563 -5.861051 -0.048024 0
M  V30 3 C 0.162774 -5.187370 0.490994 0
M  V30 4 C 0.001264 -3.759126 0.018459 0
M  V30 5 C 1.315416 -3.060599 0.373660 0
M  V30 6 C 1.118076 -1.623302 0.203204 0
M  V30 7 O -0.075104 -1.388086 -0.187016 0
M  V30 8 N 2.033047 -0.561676 0.408347 0
M  V30 9 C 1.391046 0.689557 0.113157 0
M  V30 10 C 0.729629 1.363124 1.122207 0
M  V30 11 C 0.129634 2.559192 0.786415 0
M  V30 12 C -0.549702 3.268103 1.784123 0
M  V30 13 C -1.124816 4.450525 1.383596 0
M  V30 14 C -1.869150 5.320376 2.265314 0
M  V30 15 C -2.561056 4.703433 3.269321 0
M  V30 16 N -3.359050 5.320522 4.256277 0
M  V30 17 S -3.116962 7.070178 3.707722 0
M  V30 18 C -2.073215 6.702547 2.360276 0
M  V30 19 C -1.069592 4.953984 0.102741 0
M  V30 20 N -0.399013 4.239880 -0.851349 0
M  V30 21 C 0.192525 3.056486 -0.509792 0
M  V30 22 C 0.861994 2.359108 -1.497547 0
M  V30 23 N 1.449274 1.181076 -1.153347 0
M  V30 24 C 2.356046 -3.674267 -0.531521 0
M  V30 25 C 2.517369 -5.106486 -0.067979 0
M  V30 26 H 0.587756 -7.348651 1.298732 0
M  V30 27 H 1.926511 -7.890666 0.255699 0
M  V30 28 H 2.219574 -6.749113 1.677854 0
M  V30 29 H 0.255749 -5.210574 1.610662 0
M  V30 30 H -0.726765 -5.806609 0.264207 0
M  V30 31 H -0.841166 -3.321926 0.579688 0
M  V30 32 H -0.125513 -3.741108 -1.064519 0
M  V30 33 H 1.563663 -3.391502 1.398855 0
M  V30 34 H 2.958488 -0.924345 0.724630 0
M  V30 35 H 0.682162 0.979661 2.117903 0
M  V30 36 H -0.638379 2.944714 2.804462 0
M  V30 37 H -2.696835 3.657284 3.585661 0
M  V30 38 H -1.556723 7.273266 1.596610 0
M  V30 39 H -1.506189 5.875522 -0.252717 0
M  V30 40 H 0.951038 2.685822 -2.525730 0
M  V30 41 H 1.948617 -3.744358 -1.576073 0
M  V30 42 H 3.330125 -3.188976 -0.481794 0
M  V30 43 H 2.926077 -5.128114 0.983582 0
M  V30 44 H 3.226730 -5.640804 -0.740962 0
M  V30 END ATOM
M  V30 BEGIN BOND
M  V30 1 1 1 2
M  V30 2 1 2 3
M  V30 3 1 3 4
M  V30 4 1 4 5
M  V30 5 1 5 6
M  V30 6 2 6 7
M  V30 7 1 6 8
M  V30 8 1 8 9
M  V30 9 2 9 10
M  V30 10 1 10 11
M  V30 11 2 11 12
M  V30 12 1 12 13
M  V30 13 1 13 14
M  V30 14 1 14 15
M  V30 15 2 15 16
M  V30 16 1 16 17
M  V30 17 1 17 18
M  V30 18 2 13 19
M  V30 19 1 19 20
M  V30 20 2 20 21
M  V30 21 1 21 22
M  V30 22 2 22 23
M  V30 23 1 5 24
M  V30 24 1 24 25
M  V30 25 1 25 2
M  V30 26 1 23 9
M  V30 27 1 21 11
M  V30 28 2 18 14
M  V30 29 1 1 26
M  V30 30 1 1 27
M  V30 31 1 1 28
M  V30 32 1 3 29
M  V30 33 1 3 30
M  V30 34 1 4 31
M  V30 35 1 4 32
M  V30 36 1 5 33
M  V30 37 1 8 34
M  V30 38 1 10 35
M  V30 39 1 12 36
M  V30 40 1 15 37
M  V30 41 1 18 38
M  V30 42 1 19 39
M  V30 43 1 22 40
M  V30 44 1 24 41
M  V30 45 1 24 42
M  V30 46 1 25 43
M  V30 47 1 25 44
M  V30 END BOND
M  V30 END CTAB
M  END
>  <Dataset>  (659) 
ChEMBL_Kinases

>  <Ligand_Instance>  (659) 
nan

>  <PDB_ID>  (659) 
nan

>  <Standardized_SMILES>  (659) 
CN1CCC(C(=O)Nc2cc3cc(-c4cnsc4)cnc3cn2)CC1

>  <Name>  (659) 
nan

>  <Pocket>  (659) 
nan

>  <ATP_Site>  (659) 
nan

>  <Peripheral>  (659) 
nan

>  <Num_H_Atoms_ProtBoundConf>  (659) 
nan

>  <Num_Resolved_Atoms>  (659) 
nan

>  <Num_Not_Resolved_Atoms>  (659) 
nan

$$$$
CHEMBL4449726
     RDKit          3D

  0  0  0  0  0  0  0  0  0  0999 V3000
M  V30 BEGIN CTAB
M  V30 COUNTS 42 45 0 0 0
M  V30 BEGIN ATOM
M  V30 1 C 2.814496 -7.066227 2.468573 0
M  V30 2 O 2.367143 -5.768327 2.822296 0
M  V30 3 C 1.229850 -5.195161 2.270134 0
M  V30 4 O 0.558178 -5.852791 1.413777 0
M  V30 5 C 0.798465 -3.839586 2.666636 0 CFG=1
M  V30 6 C 1.810472 -2.745530 2.387527 0
M  V30 7 C 0.559223 -1.855337 2.222987 0 CFG=1
M  V30 8 N 0.653228 -0.739070 1.371876 0
M  V30 9 C 0.043827 0.393392 0.756599 0
M  V30 10 N 0.717978 1.233843 -0.083935 0
M  V30 11 C 0.169938 2.278991 -0.658221 0
M  V30 12 C 1.035552 3.065234 -1.524564 0
M  V30 13 C 0.433565 4.155267 -2.114759 0
M  V30 14 C 1.246950 4.919241 -2.947710 0
M  V30 15 N 2.538561 4.614766 -3.164208 0
M  V30 16 C 3.067059 3.536855 -2.557874 0
M  V30 17 C 2.350491 2.693917 -1.700214 0
M  V30 18 N -1.115736 2.536467 -0.408851 0
M  V30 19 C -1.916744 1.817818 0.386006 0
M  V30 20 C -3.242114 2.125947 0.610031 0
M  V30 21 N -3.977564 1.331076 1.435824 0
M  V30 22 C -3.419920 0.261309 2.024304 0
M  V30 23 C -2.093227 -0.012987 1.775303 0
M  V30 24 C -1.277726 0.736520 0.955635 0
M  V30 25 C -0.082711 -3.128777 1.659744 0
M  V30 26 H 2.586278 -7.304726 1.409274 0
M  V30 27 H 3.905149 -7.175385 2.633586 0
M  V30 28 H 2.238556 -7.787305 3.084572 0
M  V30 29 H 0.378159 -3.734368 3.674717 0
M  V30 30 H 2.301307 -2.919247 1.407724 0
M  V30 31 H 2.453332 -2.457715 3.231846 0
M  V30 32 H 0.190468 -1.700337 3.274448 0
M  V30 33 H 1.666301 -0.781839 1.047346 0
M  V30 34 H -0.596220 4.415578 -1.955058 0
M  V30 35 H 0.869570 5.804002 -3.464580 0
M  V30 36 H 4.120063 3.250416 -2.706312 0
M  V30 37 H 2.799178 1.834757 -1.226179 0
M  V30 38 H -3.640201 2.999767 0.109852 0
M  V30 39 H -4.021528 -0.367771 2.684340 0
M  V30 40 H -1.712340 -0.882827 2.275675 0
M  V30 41 H -1.172029 -3.186476 1.868490 0
M  V30 42 H 0.229617 -3.295920 0.615057 0
M  V30 END ATOM
M  V30 BEGIN BOND
M  V30 1 1 1 2
M  V30 2 1 2 3
M  V30 3 2 3 4
M  V30 4 1 3 5
M  V30 5 1 5 6
M  V30 6 1 6 7
M  V30 7 1 7 8
M  V30 8 1 8 9
M  V30 9 2 9 10
M  V30 10 1 10 11
M  V30 11 1 11 12
M  V30 12 2 12 13
M  V30 13 1 13 14
M  V30 14 2 14 15
M  V30 15 1 15 16
M  V30 16 2 16 17
M  V30 17 2 11 18
M  V30 18 1 18 19
M  V30 19 2 19 20
M  V30 20 1 20 21
M  V30 21 2 21 22
M  V30 22 1 22 23
M  V30 23 2 23 24
M  V30 24 1 7 25
M  V30 25 1 25 5
M  V30 26 1 24 9
M  V30 27 1 17 12
M  V30 28 1 24 19
M  V30 29 1 1 26
M  V30 30 1 1 27
M  V30 31 1 1 28
M  V30 32 1 5 29 CFG=1
M  V30 33 1 6 30
M  V30 34 1 6 31
M  V30 35 1 7 32 CFG=1
M  V30 36 1 8 33
M  V30 37 1 13 34
M  V30 38 1 14 35
M  V30 39 1 16 36
M  V30 40 1 17 37
M  V30 41 1 20 38
M  V30 42 1 22 39
M  V30 43 1 23 40
M  V30 44 1 25 41
M  V30 45 1 25 42
M  V30 END BOND
M  V30 END CTAB
M  END
>  <Dataset>  (660) 
ChEMBL_Kinases

>  <Ligand_Instance>  (660) 
nan

>  <PDB_ID>  (660) 
nan

>  <Standardized_SMILES>  (660) 
COC(=O)[C@H]1C[C@@H](Nc2nc(-c3ccncc3)nc3cnccc23)C1

>  <Name>  (660) 
nan

>  <Pocket>  (660) 
nan

>  <ATP_Site>  (660) 
nan

>  <Peripheral>  (660) 
nan

>  <Num_H_Atoms_ProtBoundConf>  (660) 
nan

>  <Num_Resolved_Atoms>  (660) 
nan

>  <Num_Not_Resolved_Atoms>  (660) 
nan

$$$$
CHEMBL4449599
     RDKit          3D

  0  0  0  0  0  0  0  0  0  0999 V3000
M  V30 BEGIN CTAB
M  V30 COUNTS 38 41 0 0 0
M  V30 BEGIN ATOM
M  V30 1 C 2.356289 -4.777149 0.421101 0
M  V30 2 C 2.671781 -5.099941 -0.986648 0
M  V30 3 C 3.184804 -4.012845 -1.868127 0
M  V30 4 C 2.210378 -2.903166 -2.007364 0
M  V30 5 N 1.882902 -2.179148 -0.810620 0
M  V30 6 C 0.833886 -1.211451 -1.042919 0
M  V30 7 N 0.235687 -1.018295 -2.257615 0
M  V30 8 C -0.721248 -0.080375 -2.301615 0
M  V30 9 N -1.113931 0.650177 -1.275842 0
M  V30 10 C -0.572681 0.517042 -0.051059 0
M  V30 11 C 0.397141 -0.423079 0.024925 0
M  V30 12 S 0.965114 -0.446827 1.662499 0
M  V30 13 C -0.204752 0.906789 2.234984 0
M  V30 14 N -0.349204 1.452887 3.452174 0
M  V30 15 C -1.253080 2.426955 3.678038 0
M  V30 16 C -1.353330 2.939914 4.928059 0
M  V30 17 C -2.315568 3.940678 5.059027 0
M  V30 18 C -3.082709 4.341618 3.962692 0
M  V30 19 C -2.923736 3.771746 2.717265 0
M  V30 20 C -1.964411 2.761680 2.549393 0
M  V30 21 C -1.818452 2.204863 1.304284 0
M  V30 22 C -0.882283 1.200580 1.084223 0
M  V30 23 H 1.365693 -4.322737 0.615175 0
M  V30 24 H 3.114542 -4.234084 0.984657 0
M  V30 25 H 2.279400 -5.789599 0.954547 0
M  V30 26 H 3.400164 -5.953948 -0.990446 0
M  V30 27 H 1.716212 -5.462549 -1.478093 0
M  V30 28 H 3.411010 -4.469765 -2.874322 0
M  V30 29 H 4.178529 -3.662551 -1.493068 0
M  V30 30 H 2.547023 -2.227720 -2.830783 0
M  V30 31 H 1.272511 -3.376056 -2.444840 0
M  V30 32 H 2.280034 -2.236631 0.139960 0
M  V30 33 H -1.228544 0.106558 -3.261908 0
M  V30 34 H -0.736419 2.593793 5.738015 0
M  V30 35 H -2.457427 4.406687 6.041776 0
M  V30 36 H -3.835683 5.129310 4.079000 0
M  V30 37 H -3.551877 4.131367 1.914367 0
M  V30 38 H -2.463047 2.584138 0.511290 0
M  V30 END ATOM
M  V30 BEGIN BOND
M  V30 1 1 1 2
M  V30 2 1 2 3
M  V30 3 1 3 4
M  V30 4 1 4 5
M  V30 5 1 5 6
M  V30 6 2 6 7
M  V30 7 1 7 8
M  V30 8 2 8 9
M  V30 9 1 9 10
M  V30 10 2 10 11
M  V30 11 1 11 12
M  V30 12 1 12 13
M  V30 13 2 13 14
M  V30 14 1 14 15
M  V30 15 2 15 16
M  V30 16 1 16 17
M  V30 17 2 17 18
M  V30 18 1 18 19
M  V30 19 2 19 20
M  V30 20 1 20 21
M  V30 21 2 21 22
M  V30 22 1 11 6
M  V30 23 1 22 13
M  V30 24 1 22 10
M  V30 25 1 20 15
M  V30 26 1 1 23
M  V30 27 1 1 24
M  V30 28 1 1 25
M  V30 29 1 2 26
M  V30 30 1 2 27
M  V30 31 1 3 28
M  V30 32 1 3 29
M  V30 33 1 4 30
M  V30 34 1 4 31
M  V30 35 1 5 32
M  V30 36 1 8 33
M  V30 37 1 16 34
M  V30 38 1 17 35
M  V30 39 1 18 36
M  V30 40 1 19 37
M  V30 41 1 21 38
M  V30 END BOND
M  V30 END CTAB
M  END
>  <Dataset>  (661) 
ChEMBL_Kinases

>  <Ligand_Instance>  (661) 
nan

>  <PDB_ID>  (661) 
nan

>  <Standardized_SMILES>  (661) 
CCCCNc1ncnc2c1sc1nc3ccccc3cc12

>  <Name>  (661) 
nan

>  <Pocket>  (661) 
nan

>  <ATP_Site>  (661) 
nan

>  <Peripheral>  (661) 
nan

>  <Num_H_Atoms_ProtBoundConf>  (661) 
nan

>  <Num_Resolved_Atoms>  (661) 
nan

>  <Num_Not_Resolved_Atoms>  (661) 
nan

$$$$
CHEMBL4749550
     RDKit          3D

  0  0  0  0  0  0  0  0  0  0999 V3000
M  V30 BEGIN CTAB
M  V30 COUNTS 66 70 0 0 0
M  V30 BEGIN ATOM
M  V30 1 N -1.334837 -2.486245 4.753744 0
M  V30 2 C -0.818973 -3.003519 3.535810 0
M  V30 3 O -1.297317 -4.127566 3.235043 0
M  V30 4 C 0.145839 -2.048389 2.972657 0
M  V30 5 S 0.736991 -0.448966 3.532400 0
M  V30 6 C 1.880638 -0.241828 2.039297 0
M  V30 7 C 2.719037 0.976354 1.894151 0
M  V30 8 C 3.507439 1.059421 0.795602 0
M  V30 9 C 4.298892 2.176562 0.624624 0
M  V30 10 N 4.269162 3.163314 1.558624 0
M  V30 11 C 3.474981 3.056031 2.644151 0
M  V30 12 N 3.422430 4.090245 3.647601 0
M  V30 13 C 2.390682 4.990516 3.281447 0
M  V30 14 O 1.738644 4.746756 2.211144 0
M  V30 15 C 1.999805 6.211846 4.052126 0
M  V30 16 C 1.302001 7.299310 3.252410 0
M  V30 17 C 0.454534 6.438827 4.099227 0
M  V30 18 C 2.660721 1.953285 2.862177 0
M  V30 19 N 1.713026 -1.173065 1.454514 0
M  V30 20 C 0.920551 -2.223359 1.680172 0
M  V30 21 O 0.689185 -3.319261 1.042441 0
M  V30 22 C 0.500201 -4.394090 0.361494 0
M  V30 23 C -0.007074 -4.435310 -1.042517 0
M  V30 24 C 0.721362 -3.779943 -2.117245 0
M  V30 25 C -0.087301 -4.041791 -3.408832 0
M  V30 26 C -1.490604 -3.489080 -3.271792 0
M  V30 27 N -1.401004 -2.243798 -2.561937 0
M  V30 28 C -2.580371 -1.438026 -2.625779 0
M  V30 29 C -3.720041 -2.190106 -2.043327 0
M  V30 30 C -4.059077 -2.126613 -0.705331 0
M  V30 31 C -5.122076 -2.837401 -0.194782 0
M  V30 32 C -5.886012 -3.642006 -1.017038 0
M  V30 33 C -5.522713 -3.684740 -2.347880 0
M  V30 34 N -4.483651 -2.985563 -2.829536 0
M  V30 35 C -0.187004 -1.558095 -2.833368 0
M  V30 36 C 0.934571 -2.323983 -2.124078 0
M  V30 37 H -0.808429 -2.888680 5.581872 0
M  V30 38 H -1.812031 -2.027310 5.557429 0
M  V30 39 H 3.496684 0.249908 0.081751 0
M  V30 40 H 4.917813 2.217379 -0.261002 0
M  V30 41 H 3.950050 4.295512 4.524531 0
M  V30 42 H 2.540728 6.471034 4.978898 0
M  V30 43 H 1.366184 8.351758 3.564596 0
M  V30 44 H 1.236954 7.166020 2.153656 0
M  V30 45 H -0.164854 5.679229 3.588282 0
M  V30 46 H 0.070144 6.738275 5.089327 0
M  V30 47 H 2.027335 1.877112 3.736520 0
M  V30 48 H -0.185039 -5.116762 0.930265 0
M  V30 49 H 1.461974 -5.022219 0.350825 0
M  V30 50 H -0.004745 -5.531053 -1.303568 0
M  V30 51 H -1.095192 -4.211526 -1.004364 0
M  V30 52 H 1.687554 -4.297975 -2.318746 0
M  V30 53 H -0.093444 -5.129391 -3.604082 0
M  V30 54 H 0.438544 -3.478534 -4.206528 0
M  V30 55 H -1.887779 -3.238964 -4.290907 0
M  V30 56 H -2.085158 -4.257341 -2.786051 0
M  V30 57 H -2.811293 -1.069162 -3.653256 0
M  V30 58 H -2.404792 -0.566450 -1.962220 0
M  V30 59 H -3.423333 -1.480126 -0.119606 0
M  V30 60 H -5.313987 -2.727853 0.856994 0
M  V30 61 H -6.702155 -4.169716 -0.551742 0
M  V30 62 H -6.133062 -4.323319 -2.992858 0
M  V30 63 H -0.044851 -1.518130 -3.933573 0
M  V30 64 H -0.207444 -0.497696 -2.511234 0
M  V30 65 H 1.829687 -2.134161 -2.793507 0
M  V30 66 H 1.228082 -1.853882 -1.191883 0
M  V30 END ATOM
M  V30 BEGIN BOND
M  V30 1 1 1 2
M  V30 2 2 2 3
M  V30 3 1 2 4
M  V30 4 1 4 5
M  V30 5 1 5 6
M  V30 6 1 6 7
M  V30 7 2 7 8
M  V30 8 1 8 9
M  V30 9 2 9 10
M  V30 10 1 10 11
M  V30 11 1 11 12
M  V30 12 1 12 13
M  V30 13 2 13 14
M  V30 14 1 13 15
M  V30 15 1 15 16
M  V30 16 1 16 17
M  V30 17 2 11 18
M  V30 18 2 6 19
M  V30 19 1 19 20
M  V30 20 1 20 21
M  V30 21 1 21 22
M  V30 22 1 22 23
M  V30 23 1 23 24
M  V30 24 1 24 25
M  V30 25 1 25 26
M  V30 26 1 26 27
M  V30 27 1 27 28
M  V30 28 1 28 29
M  V30 29 2 29 30
M  V30 30 1 30 31
M  V30 31 2 31 32
M  V30 32 1 32 33
M  V30 33 2 33 34
M  V30 34 1 27 35
M  V30 35 1 35 36
M  V30 36 2 20 4
M  V30 37 1 36 24
M  V30 38 1 18 7
M  V30 39 1 34 29
M  V30 40 1 17 15
M  V30 41 1 1 37
M  V30 42 1 1 38
M  V30 43 1 8 39
M  V30 44 1 9 40
M  V30 45 1 12 41
M  V30 46 1 15 42
M  V30 47 1 16 43
M  V30 48 1 16 44
M  V30 49 1 17 45
M  V30 50 1 17 46
M  V30 51 1 18 47
M  V30 52 1 22 48
M  V30 53 1 22 49
M  V30 54 1 23 50
M  V30 55 1 23 51
M  V30 56 1 24 52
M  V30 57 1 25 53
M  V30 58 1 25 54
M  V30 59 1 26 55
M  V30 60 1 26 56
M  V30 61 1 28 57
M  V30 62 1 28 58
M  V30 63 1 30 59
M  V30 64 1 31 60
M  V30 65 1 32 61
M  V30 66 1 33 62
M  V30 67 1 35 63
M  V30 68 1 35 64
M  V30 69 1 36 65
M  V30 70 1 36 66
M  V30 END BOND
M  V30 END CTAB
M  END
>  <Dataset>  (662) 
ChEMBL_Kinases

>  <Ligand_Instance>  (662) 
nan

>  <PDB_ID>  (662) 
nan

>  <Standardized_SMILES>  (662) 
NC(=O)c1sc(-c2ccnc(NC(=O)C3CC3)c2)nc1OCCC1CCN(Cc2ccccn2)CC1

>  <Name>  (662) 
nan

>  <Pocket>  (662) 
nan

>  <ATP_Site>  (662) 
nan

>  <Peripheral>  (662) 
nan

>  <Num_H_Atoms_ProtBoundConf>  (662) 
nan

>  <Num_Resolved_Atoms>  (662) 
nan

>  <Num_Not_Resolved_Atoms>  (662) 
nan

$$$$
CHEMBL4449557
     RDKit          3D

  0  0  0  0  0  0  0  0  0  0999 V3000
M  V30 BEGIN CTAB
M  V30 COUNTS 81 86 0 0 0
M  V30 BEGIN ATOM
M  V30 1 C -2.975226 -5.412455 1.283461 0
M  V30 2 C -4.263869 -5.329778 0.530007 0
M  V30 3 C -4.144088 -5.107438 -0.909711 0
M  V30 4 C -4.355239 -6.163738 -1.785725 0
M  V30 5 C -4.250525 -5.930600 -3.134876 0
M  V30 6 C -3.952165 -4.738514 -3.715945 0
M  V30 7 C -3.741071 -3.679327 -2.829659 0
M  V30 8 C -3.428720 -2.357683 -3.446990 0
M  V30 9 C -4.702283 -1.548231 -3.389683 0
M  V30 10 C -3.838276 -3.872516 -1.442269 0
M  V30 11 N -3.605108 -2.757660 -0.630650 0
M  V30 12 C -4.021544 -1.611293 0.091940 0
M  V30 13 O -5.282813 -1.460963 -0.010021 0
M  V30 14 C -3.034588 -0.791375 0.808529 0
M  V30 15 C -1.927334 -0.416113 0.026419 0
M  V30 16 C -1.073654 0.348686 0.778227 0
M  V30 17 N -1.674138 0.412923 1.962451 0
M  V30 18 C -2.837703 -0.241357 2.051449 0
M  V30 19 C -3.709926 -0.381256 3.218268 0
M  V30 20 C -3.332883 0.485902 4.365557 0
M  V30 21 C -2.027471 1.148250 4.298373 0
M  V30 22 C -1.481444 1.840472 5.326961 0
M  V30 23 N -0.271873 2.480502 5.257472 0
M  V30 24 C 0.454791 2.455873 4.138259 0
M  V30 25 N 1.674389 3.048312 3.709896 0
M  V30 26 C 2.464373 2.555465 2.618240 0
M  V30 27 C 2.260718 1.279934 2.175344 0
M  V30 28 C 3.007254 0.690623 1.146127 0
M  V30 29 C 4.010980 1.470019 0.555303 0
M  V30 30 N 4.719831 0.826498 -0.500991 0
M  V30 31 C 3.920290 -0.055059 -1.360832 0
M  V30 32 C 4.054853 0.380550 -2.812322 0
M  V30 33 N 5.400954 0.290610 -3.274818 0
M  V30 34 C 5.794463 -1.000559 -3.728165 0
M  V30 35 C 6.306262 0.963790 -2.401195 0
M  V30 36 C 6.085519 0.782573 -0.941636 0
M  V30 37 C 4.176529 2.742984 1.036240 0
M  V30 38 C 3.448502 3.324779 2.041809 0
M  V30 39 O 3.635138 4.599240 2.494665 0
M  V30 40 C 4.572893 5.522191 2.033000 0
M  V30 41 N -0.117873 1.765263 3.150604 0
M  V30 42 C -1.285375 1.121941 3.152909 0
M  V30 43 H -2.099275 -5.382127 0.597896 0
M  V30 44 H -2.927382 -6.296438 1.961892 0
M  V30 45 H -2.898873 -4.533044 1.950706 0
M  V30 46 H -4.841703 -6.281346 0.694939 0
M  V30 47 H -4.901065 -4.549123 1.002936 0
M  V30 48 H -4.599741 -7.169588 -1.422896 0
M  V30 49 H -4.419744 -6.767334 -3.778185 0
M  V30 50 H -3.872262 -4.572767 -4.780941 0
M  V30 51 H -2.730688 -1.876366 -2.710352 0
M  V30 52 H -2.993427 -2.447843 -4.440761 0
M  V30 53 H -5.115181 -1.538852 -4.420212 0
M  V30 54 H -4.561663 -0.503668 -3.072847 0
M  V30 55 H -5.487353 -2.042173 -2.753578 0
M  V30 56 H -2.544447 -2.923252 -0.560663 0
M  V30 57 H -1.645106 -0.613579 -1.017555 0
M  V30 58 H -0.119851 0.811417 0.505663 0
M  V30 59 H -4.760002 -0.100442 2.897682 0
M  V30 60 H -3.836849 -1.458513 3.523998 0
M  V30 61 H -3.487051 -0.052959 5.333263 0
M  V30 62 H -4.090328 1.331164 4.423843 0
M  V30 63 H -1.988677 1.928997 6.296573 0
M  V30 64 H 1.882801 3.863736 4.307629 0
M  V30 65 H 1.545435 0.540704 2.540304 0
M  V30 66 H 2.837163 -0.335975 0.806632 0
M  V30 67 H 2.841149 0.013367 -1.140070 0
M  V30 68 H 4.317633 -1.079349 -1.313769 0
M  V30 69 H 3.407912 -0.299230 -3.410296 0
M  V30 70 H 3.696389 1.412657 -2.989581 0
M  V30 71 H 4.891469 -1.556237 -4.098515 0
M  V30 72 H 6.506128 -0.889358 -4.570639 0
M  V30 73 H 6.258644 -1.566165 -2.889571 0
M  V30 74 H 7.362632 0.676521 -2.611308 0
M  V30 75 H 6.267041 2.063219 -2.652987 0
M  V30 76 H 6.536939 -0.197437 -0.623283 0
M  V30 77 H 6.692482 1.589790 -0.430318 0
M  V30 78 H 4.960103 3.314274 0.550534 0
M  V30 79 H 5.408966 5.561613 2.770884 0
M  V30 80 H 4.974216 5.306330 1.032024 0
M  V30 81 H 4.041498 6.510977 1.986082 0
M  V30 END ATOM
M  V30 BEGIN BOND
M  V30 1 1 1 2
M  V30 2 1 2 3
M  V30 3 2 3 4
M  V30 4 1 4 5
M  V30 5 2 5 6
M  V30 6 1 6 7
M  V30 7 1 7 8
M  V30 8 1 8 9
M  V30 9 2 7 10
M  V30 10 1 10 11
M  V30 11 1 11 12
M  V30 12 2 12 13
M  V30 13 1 12 14
M  V30 14 1 14 15
M  V30 15 2 15 16
M  V30 16 1 16 17
M  V30 17 1 17 18
M  V30 18 1 18 19
M  V30 19 1 19 20
M  V30 20 1 20 21
M  V30 21 2 21 22
M  V30 22 1 22 23
M  V30 23 2 23 24
M  V30 24 1 24 25
M  V30 25 1 25 26
M  V30 26 2 26 27
M  V30 27 1 27 28
M  V30 28 2 28 29
M  V30 29 1 29 30
M  V30 30 1 30 31
M  V30 31 1 31 32
M  V30 32 1 32 33
M  V30 33 1 33 34
M  V30 34 1 33 35
M  V30 35 1 35 36
M  V30 36 1 29 37
M  V30 37 2 37 38
M  V30 38 1 38 39
M  V30 39 1 39 40
M  V30 40 1 24 41
M  V30 41 2 41 42
M  V30 42 1 10 3
M  V30 43 2 18 14
M  V30 44 1 42 21
M  V30 45 1 42 17
M  V30 46 1 38 26
M  V30 47 1 36 30
M  V30 48 1 1 43
M  V30 49 1 1 44
M  V30 50 1 1 45
M  V30 51 1 2 46
M  V30 52 1 2 47
M  V30 53 1 4 48
M  V30 54 1 5 49
M  V30 55 1 6 50
M  V30 56 1 8 51
M  V30 57 1 8 52
M  V30 58 1 9 53
M  V30 59 1 9 54
M  V30 60 1 9 55
M  V30 61 1 11 56
M  V30 62 1 15 57
M  V30 63 1 16 58
M  V30 64 1 19 59
M  V30 65 1 19 60
M  V30 66 1 20 61
M  V30 67 1 20 62
M  V30 68 1 22 63
M  V30 69 1 25 64
M  V30 70 1 27 65
M  V30 71 1 28 66
M  V30 72 1 31 67
M  V30 73 1 31 68
M  V30 74 1 32 69
M  V30 75 1 32 70
M  V30 76 1 34 71
M  V30 77 1 34 72
M  V30 78 1 34 73
M  V30 79 1 35 74
M  V30 80 1 35 75
M  V30 81 1 36 76
M  V30 82 1 36 77
M  V30 83 1 37 78
M  V30 84 1 40 79
M  V30 85 1 40 80
M  V30 86 1 40 81
M  V30 END BOND
M  V30 END CTAB
M  END
>  <Dataset>  (663) 
ChEMBL_Kinases

>  <Ligand_Instance>  (663) 
nan

>  <PDB_ID>  (663) 
nan

>  <Standardized_SMILES>  (663) 
CCc1cccc(CC)c1NC(=O)c1ccn2c1CCc1cnc(Nc3ccc(N4CCN(C)CC4)cc3OC)nc1-2

>  <Name>  (663) 
nan

>  <Pocket>  (663) 
nan

>  <ATP_Site>  (663) 
nan

>  <Peripheral>  (663) 
nan

>  <Num_H_Atoms_ProtBoundConf>  (663) 
nan

>  <Num_Resolved_Atoms>  (663) 
nan

>  <Num_Not_Resolved_Atoms>  (663) 
nan

$$$$
CHEMBL4749627
     RDKit          3D

  0  0  0  0  0  0  0  0  0  0999 V3000
M  V30 BEGIN CTAB
M  V30 COUNTS 52 55 0 0 0
M  V30 BEGIN ATOM
M  V30 1 N 0.230965 -5.348411 0.636358 0
M  V30 2 C 0.621284 -3.996974 0.812912 0
M  V30 3 N 1.569946 -3.557392 1.652266 0
M  V30 4 C 1.905674 -2.262372 1.783885 0
M  V30 5 C 1.231473 -1.341978 1.008384 0
M  V30 6 C 1.624344 0.051250 1.180836 0
M  V30 7 C 1.565291 0.974000 0.156645 0
M  V30 8 N 2.002484 2.121818 0.706666 0
M  V30 9 N 2.313215 1.928170 1.987233 0
M  V30 10 C 2.818324 2.987997 2.857344 0
M  V30 11 C 3.815904 3.829263 2.142656 0
M  V30 12 C 3.225201 4.860573 1.235136 0
M  V30 13 N 1.840023 5.136206 1.438160 0
M  V30 14 C 1.398722 5.069367 2.794713 0
M  V30 15 C 1.662171 3.741367 3.423407 0
M  V30 16 C 2.092403 0.632176 2.340759 0
M  V30 17 C 0.236415 -1.781856 0.124946 0
M  V30 18 C -0.095040 -3.141852 0.006847 0
M  V30 19 O -1.090311 -3.248842 -0.925247 0
M  V30 20 C -1.772441 -4.335150 -1.415252 0
M  V30 21 C -1.557334 -4.443205 -2.895441 0
M  V30 22 O -2.078725 -5.355158 -3.587891 0
M  V30 23 O -0.801262 -3.622840 -3.721118 0
M  V30 24 C -3.227854 -4.127253 -1.173775 0
M  V30 25 C -3.927793 -4.811496 -0.203543 0
M  V30 26 Cl -3.102725 -5.981433 0.804154 0
M  V30 27 C -5.271556 -4.658995 0.062535 0
M  V30 28 C -5.984466 -3.749272 -0.698872 0
M  V30 29 C -5.346042 -3.029903 -1.687525 0
M  V30 30 F -6.061388 -2.135916 -2.431018 0
M  V30 31 C -3.998461 -3.238227 -1.894040 0
M  V30 32 Cl -3.252058 -2.291319 -3.164359 0
M  V30 33 H -0.061126 -6.097879 1.313502 0
M  V30 34 H -0.059411 -6.088013 1.326427 0
M  V30 35 H 2.681897 -1.984704 2.482539 0
M  V30 36 H 1.253098 0.878629 -0.874459 0
M  V30 37 H 3.331931 2.484840 3.705864 0
M  V30 38 H 4.474488 4.303259 2.904665 0
M  V30 39 H 4.479003 3.135127 1.564396 0
M  V30 40 H 3.769597 5.837203 1.388128 0
M  V30 41 H 3.404029 4.606080 0.165510 0
M  V30 42 H 1.188580 4.800334 0.721710 0
M  V30 43 H 0.297011 5.270333 2.780422 0
M  V30 44 H 1.836096 5.924053 3.352512 0
M  V30 45 H 1.753123 3.874584 4.540525 0
M  V30 46 H 0.722250 3.123905 3.324197 0
M  V30 47 H 2.251757 0.178996 3.309394 0
M  V30 48 H -0.185417 -0.922838 -0.401395 0
M  V30 49 H -1.450392 -5.263137 -0.952531 0
M  V30 50 H -0.080675 -4.021833 -4.329607 0
M  V30 51 H -5.788324 -5.201427 0.819269 0
M  V30 52 H -7.039558 -3.606397 -0.515137 0
M  V30 END ATOM
M  V30 BEGIN BOND
M  V30 1 1 1 2
M  V30 2 2 2 3
M  V30 3 1 3 4
M  V30 4 2 4 5
M  V30 5 1 5 6
M  V30 6 1 6 7
M  V30 7 2 7 8
M  V30 8 1 8 9
M  V30 9 1 9 10
M  V30 10 1 10 11
M  V30 11 1 11 12
M  V30 12 1 12 13
M  V30 13 1 13 14
M  V30 14 1 14 15
M  V30 15 1 9 16
M  V30 16 1 5 17
M  V30 17 2 17 18
M  V30 18 1 18 19
M  V30 19 1 19 20
M  V30 20 1 20 21
M  V30 21 2 21 22
M  V30 22 1 21 23
M  V30 23 1 20 24
M  V30 24 2 24 25
M  V30 25 1 25 26
M  V30 26 1 25 27
M  V30 27 2 27 28
M  V30 28 1 28 29
M  V30 29 1 29 30
M  V30 30 2 29 31
M  V30 31 1 31 32
M  V30 32 1 18 2
M  V30 33 1 31 24
M  V30 34 2 16 6
M  V30 35 1 15 10
M  V30 36 1 1 33
M  V30 37 1 1 34
M  V30 38 1 4 35
M  V30 39 1 7 36
M  V30 40 1 10 37
M  V30 41 1 11 38
M  V30 42 1 11 39
M  V30 43 1 12 40
M  V30 44 1 12 41
M  V30 45 1 13 42
M  V30 46 1 14 43
M  V30 47 1 14 44
M  V30 48 1 15 45
M  V30 49 1 15 46
M  V30 50 1 16 47
M  V30 51 1 17 48
M  V30 52 1 20 49
M  V30 53 1 23 50
M  V30 54 1 27 51
M  V30 55 1 28 52
M  V30 END BOND
M  V30 END CTAB
M  END
>  <Dataset>  (664) 
ChEMBL_Kinases

>  <Ligand_Instance>  (664) 
nan

>  <PDB_ID>  (664) 
nan

>  <Standardized_SMILES>  (664) 
Nc1ncc(-c2cnn(C3CCNCC3)c2)cc1OC(C(=O)O)c1c(Cl)ccc(F)c1Cl

>  <Name>  (664) 
nan

>  <Pocket>  (664) 
nan

>  <ATP_Site>  (664) 
nan

>  <Peripheral>  (664) 
nan

>  <Num_H_Atoms_ProtBoundConf>  (664) 
nan

>  <Num_Resolved_Atoms>  (664) 
nan

>  <Num_Not_Resolved_Atoms>  (664) 
nan

$$$$
CHEMBL4449552
     RDKit          3D

  0  0  0  0  0  0  0  0  0  0999 V3000
M  V30 BEGIN CTAB
M  V30 COUNTS 29 31 0 0 0
M  V30 BEGIN ATOM
M  V30 1 C -2.558138 -1.559402 1.594231 0
M  V30 2 C -1.365549 -2.396128 1.828620 0
M  V30 3 N -1.235979 -3.415424 2.709617 0
M  V30 4 N -0.023347 -3.932642 2.636864 0
M  V30 5 C 0.689263 -3.274476 1.707325 0
M  V30 6 C 1.959342 -3.372112 1.214516 0
M  V30 7 C 2.450814 -2.544714 0.221048 0
M  V30 8 N 1.598069 -1.596507 -0.265699 0
M  V30 9 C 0.333136 -1.457752 0.187248 0
M  V30 10 N -0.504012 -0.432069 -0.390183 0
M  V30 11 C 0.153047 0.786143 0.022034 0
M  V30 12 C 0.527846 1.522199 -1.114971 0
M  V30 13 C 1.191672 2.739025 -1.014549 0
M  V30 14 C 1.489462 3.235114 0.259009 0
M  V30 15 C 1.108538 2.489660 1.355197 0
M  V30 16 C 0.449994 1.281134 1.273212 0
M  V30 17 F 0.035839 0.473697 2.249961 0
M  V30 18 C -0.156243 -2.289907 1.182912 0
M  V30 19 H -3.055591 -1.923678 0.654566 0
M  V30 20 H -3.303613 -1.698821 2.429837 0
M  V30 21 H -2.366186 -0.494789 1.511666 0
M  V30 22 H 0.403914 -4.731566 3.177392 0
M  V30 23 H 2.651987 -4.119030 1.586293 0
M  V30 24 H 3.447066 -2.578282 -0.204971 0
M  V30 25 H -1.355628 -0.321920 -0.957631 0
M  V30 26 H 0.351652 1.243330 -2.151793 0
M  V30 27 H 1.492570 3.327800 -1.868746 0
M  V30 28 H 2.008882 4.184192 0.424760 0
M  V30 29 H 1.304089 2.804527 2.390928 0
M  V30 END ATOM
M  V30 BEGIN BOND
M  V30 1 1 1 2
M  V30 2 2 2 3
M  V30 3 1 3 4
M  V30 4 1 4 5
M  V30 5 2 5 6
M  V30 6 1 6 7
M  V30 7 2 7 8
M  V30 8 1 8 9
M  V30 9 1 9 10
M  V30 10 1 10 11
M  V30 11 2 11 12
M  V30 12 1 12 13
M  V30 13 2 13 14
M  V30 14 1 14 15
M  V30 15 2 15 16
M  V30 16 1 16 17
M  V30 17 2 9 18
M  V30 18 1 18 2
M  V30 19 1 18 5
M  V30 20 1 16 11
M  V30 21 1 1 19
M  V30 22 1 1 20
M  V30 23 1 1 21
M  V30 24 1 4 22
M  V30 25 1 6 23
M  V30 26 1 7 24
M  V30 27 1 10 25
M  V30 28 1 12 26
M  V30 29 1 13 27
M  V30 30 1 14 28
M  V30 31 1 15 29
M  V30 END BOND
M  V30 END CTAB
M  END
>  <Dataset>  (665) 
ChEMBL_Kinases

>  <Ligand_Instance>  (665) 
nan

>  <PDB_ID>  (665) 
nan

>  <Standardized_SMILES>  (665) 
Cc1n[nH]c2ccnc(Nc3ccccc3F)c12

>  <Name>  (665) 
nan

>  <Pocket>  (665) 
nan

>  <ATP_Site>  (665) 
nan

>  <Peripheral>  (665) 
nan

>  <Num_H_Atoms_ProtBoundConf>  (665) 
nan

>  <Num_Resolved_Atoms>  (665) 
nan

>  <Num_Not_Resolved_Atoms>  (665) 
nan

$$$$
CHEMBL4449174
     RDKit          3D

  0  0  0  0  0  0  0  0  0  0999 V3000
M  V30 BEGIN CTAB
M  V30 COUNTS 49 53 0 0 0
M  V30 BEGIN ATOM
M  V30 1 O 2.200141 -2.559758 2.436734 0
M  V30 2 N 2.721022 -1.920712 1.504958 0 CHG=1 VAL=4
M  V30 3 O 1.545998 -2.585494 1.428040 0 CHG=-1 VAL=1
M  V30 4 C 3.930566 -1.230571 1.570005 0
M  V30 5 C 4.863419 -1.768796 2.373688 0
M  V30 6 C 6.074772 -1.135739 2.414851 0
M  V30 7 C 6.287172 -0.006016 1.655281 0
M  V30 8 C 5.266321 0.494182 0.843431 0
M  V30 9 C 3.994361 -0.140529 0.782581 0
M  V30 10 S 3.019313 0.802035 -0.250888 0
M  V30 11 O 3.781493 0.958820 -1.602198 0
M  V30 12 O 3.014908 2.260744 0.256801 0
M  V30 13 N 1.467288 0.327849 -0.628156 0
M  V30 14 C 0.561149 0.263240 0.448161 0
M  V30 15 C -0.612984 -0.628466 -0.024534 0
M  V30 16 C -1.468944 0.243688 -0.840787 0
M  V30 17 C -0.611499 1.084031 -1.581171 0
M  V30 18 S -1.647440 2.136783 -2.542346 0
M  V30 19 C -3.213576 1.450292 -1.955763 0
M  V30 20 N -4.446315 1.755578 -2.283161 0
M  V30 21 C -5.485203 1.105239 -1.768033 0
M  V30 22 N -5.109861 0.159970 -0.929462 0
M  V30 23 C -3.884244 -0.196797 -0.551094 0
M  V30 24 N -3.880757 -1.291351 0.318823 0
M  V30 25 C -3.377862 -2.071391 1.357621 0
M  V30 26 C -2.852481 -3.368984 1.386707 0
M  V30 27 C -2.423364 -3.938318 2.549512 0
M  V30 28 C -2.524432 -3.193127 3.697717 0
M  V30 29 Cl -1.944863 -4.023886 5.136295 0
M  V30 30 C -3.030157 -1.916744 3.740348 0
M  V30 31 C -3.465188 -1.342797 2.533546 0
M  V30 32 F -3.940115 -0.083846 2.749513 0
M  V30 33 C -2.796611 0.466578 -1.067757 0
M  V30 34 C 0.850376 1.148933 -1.668134 0
M  V30 35 H 4.687178 -2.658868 2.959555 0
M  V30 36 H 6.862796 -1.542990 3.051185 0
M  V30 37 H 7.281237 0.391985 1.766224 0
M  V30 38 H 5.658731 1.384919 0.343765 0
M  V30 39 H 0.090067 1.307004 0.560845 0
M  V30 40 H 0.904608 0.041571 1.442156 0
M  V30 41 H -0.104557 -1.410428 -0.648928 0
M  V30 42 H -1.013289 -1.017453 0.895255 0
M  V30 43 H -6.445244 1.406181 -2.087277 0
M  V30 44 H -4.670626 -2.009424 0.188116 0
M  V30 45 H -2.855508 -3.772130 0.368552 0
M  V30 46 H -2.039216 -4.956566 2.356112 0
M  V30 47 H -3.033685 -1.476229 4.743687 0
M  V30 48 H 1.204472 2.185226 -1.553441 0
M  V30 49 H 1.203532 0.765111 -2.631337 0
M  V30 END ATOM
M  V30 BEGIN BOND
M  V30 1 2 1 2
M  V30 2 1 2 3
M  V30 3 1 2 4
M  V30 4 2 4 5
M  V30 5 1 5 6
M  V30 6 2 6 7
M  V30 7 1 7 8
M  V30 8 2 8 9
M  V30 9 1 9 10
M  V30 10 2 10 11
M  V30 11 2 10 12
M  V30 12 1 10 13
M  V30 13 1 13 14
M  V30 14 1 14 15
M  V30 15 1 15 16
M  V30 16 2 16 17
M  V30 17 1 17 18
M  V30 18 1 18 19
M  V30 19 2 19 20
M  V30 20 1 20 21
M  V30 21 2 21 22
M  V30 22 1 22 23
M  V30 23 1 23 24
M  V30 24 1 24 25
M  V30 25 2 25 26
M  V30 26 1 26 27
M  V30 27 2 27 28
M  V30 28 1 28 29
M  V30 29 1 28 30
M  V30 30 2 30 31
M  V30 31 1 31 32
M  V30 32 2 23 33
M  V30 33 1 17 34
M  V30 34 1 9 4
M  V30 35 1 34 13
M  V30 36 1 33 16
M  V30 37 1 33 19
M  V30 38 1 31 25
M  V30 39 1 5 35
M  V30 40 1 6 36
M  V30 41 1 7 37
M  V30 42 1 8 38
M  V30 43 1 14 39
M  V30 44 1 14 40
M  V30 45 1 15 41
M  V30 46 1 15 42
M  V30 47 1 21 43
M  V30 48 1 24 44
M  V30 49 1 26 45
M  V30 50 1 27 46
M  V30 51 1 30 47
M  V30 52 1 34 48
M  V30 53 1 34 49
M  V30 END BOND
M  V30 END CTAB
M  END
>  <Dataset>  (666) 
ChEMBL_Kinases

>  <Ligand_Instance>  (666) 
nan

>  <PDB_ID>  (666) 
nan

>  <Standardized_SMILES>  (666) 
O=[N+]([O-])c1ccccc1S(=O)(=O)N1CCc2c(sc3ncnc(Nc4ccc(Cl)cc4F)c23)C1

>  <Name>  (666) 
nan

>  <Pocket>  (666) 
nan

>  <ATP_Site>  (666) 
nan

>  <Peripheral>  (666) 
nan

>  <Num_H_Atoms_ProtBoundConf>  (666) 
nan

>  <Num_Resolved_Atoms>  (666) 
nan

>  <Num_Not_Resolved_Atoms>  (666) 
nan

$$$$
CHEMBL4449524
     RDKit          3D

  0  0  0  0  0  0  0  0  0  0999 V3000
M  V30 BEGIN CTAB
M  V30 COUNTS 37 39 0 0 0
M  V30 BEGIN ATOM
M  V30 1 C 1.453931 -6.536421 4.306387 0
M  V30 2 O 1.471379 -5.994370 3.007667 0
M  V30 3 C 1.466493 -4.603711 2.836423 0
M  V30 4 C 1.484283 -4.166657 1.522589 0
M  V30 5 C 1.479244 -2.803795 1.326741 0
M  V30 6 C 1.458899 -1.838017 2.310289 0
M  V30 7 C 1.449344 -0.407651 2.048439 0
M  V30 8 C 1.447640 0.540726 3.092604 0
M  V30 9 S 1.451836 2.173735 2.135935 0
M  V30 10 C 1.455923 1.194866 0.517822 0
M  V30 11 N 1.455975 2.230104 -0.546033 0
M  V30 12 C 0.291789 2.419300 -1.370111 0
M  V30 13 C 0.086923 3.465122 -2.244253 0
M  V30 14 C -1.063657 3.524716 -3.005657 0
M  V30 15 C -2.018380 2.539988 -2.899642 0
M  V30 16 C -3.227596 2.627150 -3.718584 0
M  V30 17 O -3.434128 3.579628 -4.518291 0
M  V30 18 O -4.212440 1.645793 -3.643809 0
M  V30 19 C -1.882604 1.460303 -2.043161 0
M  V30 20 C -0.705703 1.441021 -1.293919 0
M  V30 21 N 1.452811 0.118502 0.834327 0
M  V30 22 C 1.442547 -2.355627 3.577881 0
M  V30 23 C 1.445905 -3.705440 3.855086 0
M  V30 24 H 1.456462 -7.648904 4.172626 0
M  V30 25 H 2.373252 -6.303214 4.868873 0
M  V30 26 H 0.593965 -6.187215 4.914024 0
M  V30 27 H 1.500220 -4.836957 0.664237 0
M  V30 28 H 1.490695 -2.464962 0.286312 0
M  V30 29 H 1.445125 0.267681 4.279981 0
M  V30 30 H 2.268283 2.873087 -0.765699 0
M  V30 31 H 0.899626 4.203217 -2.260908 0
M  V30 32 H -1.177525 4.374759 -3.687319 0
M  V30 33 H -5.172132 1.758386 -3.904545 0
M  V30 34 H -2.609889 0.665294 -1.922513 0
M  V30 35 H -0.579168 0.591187 -0.606067 0
M  V30 36 H 1.424900 -1.721951 4.447359 0
M  V30 37 H 1.433423 -4.076098 4.867878 0
M  V30 END ATOM
M  V30 BEGIN BOND
M  V30 1 1 1 2
M  V30 2 1 2 3
M  V30 3 2 3 4
M  V30 4 1 4 5
M  V30 5 2 5 6
M  V30 6 1 6 7
M  V30 7 2 7 8
M  V30 8 1 8 9
M  V30 9 1 9 10
M  V30 10 1 10 11
M  V30 11 1 11 12
M  V30 12 2 12 13
M  V30 13 1 13 14
M  V30 14 2 14 15
M  V30 15 1 15 16
M  V30 16 2 16 17
M  V30 17 1 16 18
M  V30 18 1 15 19
M  V30 19 2 19 20
M  V30 20 2 10 21
M  V30 21 1 6 22
M  V30 22 2 22 23
M  V30 23 1 23 3
M  V30 24 1 21 7
M  V30 25 1 20 12
M  V30 26 1 1 24
M  V30 27 1 1 25
M  V30 28 1 1 26
M  V30 29 1 4 27
M  V30 30 1 5 28
M  V30 31 1 8 29
M  V30 32 1 11 30
M  V30 33 1 13 31
M  V30 34 1 14 32
M  V30 35 1 18 33
M  V30 36 1 19 34
M  V30 37 1 20 35
M  V30 38 1 22 36
M  V30 39 1 23 37
M  V30 END BOND
M  V30 END CTAB
M  END
>  <Dataset>  (667) 
ChEMBL_Kinases

>  <Ligand_Instance>  (667) 
nan

>  <PDB_ID>  (667) 
nan

>  <Standardized_SMILES>  (667) 
COc1ccc(-c2csc(Nc3ccc(C(=O)O)cc3)n2)cc1

>  <Name>  (667) 
nan

>  <Pocket>  (667) 
nan

>  <ATP_Site>  (667) 
nan

>  <Peripheral>  (667) 
nan

>  <Num_H_Atoms_ProtBoundConf>  (667) 
nan

>  <Num_Resolved_Atoms>  (667) 
nan

>  <Num_Not_Resolved_Atoms>  (667) 
nan

$$$$
CHEMBL4449509
     RDKit          3D

  0  0  0  0  0  0  0  0  0  0999 V3000
M  V30 BEGIN CTAB
M  V30 COUNTS 55 58 0 0 0
M  V30 BEGIN ATOM
M  V30 1 C 3.590702 0.241464 6.203579 0
M  V30 2 C 2.340444 -0.007230 5.934910 0
M  V30 3 C 1.390051 1.029954 5.473138 0
M  V30 4 C 0.833358 0.717542 4.101526 0 CFG=2
M  V30 5 C 1.984511 0.656481 3.138491 0
M  V30 6 C 1.553263 1.042738 1.725671 0 CFG=1
M  V30 7 C 2.402842 0.491744 0.673818 0
M  V30 8 C 2.752555 -0.838052 0.510470 0
M  V30 9 C 3.555909 -1.209111 -0.532879 0
M  V30 10 C 4.072523 -0.356539 -1.479210 0
M  V30 11 Cl 5.092816 -0.853649 -2.807751 0
M  V30 12 C 3.747643 1.003963 -1.360405 0
M  V30 13 Cl 4.325035 2.203250 -2.478375 0
M  V30 14 C 2.941312 1.337106 -0.300810 0
M  V30 15 C 0.103138 0.676933 1.658069 0 CFG=2
M  V30 16 N -0.451112 0.493039 0.360532 0
M  V30 17 C -1.179972 -0.587810 -0.070487 0
M  V30 18 O -1.293031 -1.440232 0.895628 0
M  V30 19 C -1.859901 -1.087775 -1.226194 0
M  V30 20 C -2.618387 -2.141610 -1.598366 0
M  V30 21 C -2.990539 -2.054193 -2.905342 0
M  V30 22 C -3.815237 -3.044925 -3.545969 0
M  V30 23 C -4.233955 -3.057631 -4.849423 0
M  V30 24 Cl -4.006748 -2.040810 -6.224653 0
M  V30 25 C -5.024298 -4.136405 -5.145172 0
M  V30 26 N -5.088192 -4.809897 -3.976903 0
M  V30 27 N -4.380423 -4.162008 -3.060347 0
M  V30 28 C -4.284602 -4.661905 -1.693955 0
M  V30 29 C -2.412351 -0.876933 -3.310349 0
M  V30 30 Cl -2.474818 -0.132830 -4.874459 0
M  V30 31 O -1.749034 -0.333928 -2.280909 0
M  V30 32 C -0.626639 1.745266 2.455871 0
M  V30 33 N -0.150678 1.716617 3.798227 0
M  V30 34 H 3.421538 1.280337 5.939384 0
M  V30 35 H 4.422185 -0.348899 6.546138 0
M  V30 36 H 2.171224 -1.062865 6.107750 0
M  V30 37 H 0.566436 1.184812 6.209342 0
M  V30 38 H 1.968123 2.002948 5.473830 0
M  V30 39 H 0.314353 -0.259623 4.210497 0
M  V30 40 H 2.313102 -0.419817 3.103919 0
M  V30 41 H 2.816483 1.290064 3.434298 0
M  V30 42 H 1.588586 2.173253 1.670162 0
M  V30 43 H 2.362245 -1.532364 1.236425 0
M  V30 44 H 3.845285 -2.246234 -0.682362 0
M  V30 45 H 2.690847 2.402880 -0.206997 0
M  V30 46 H -0.049466 -0.261503 2.221322 0
M  V30 47 H -0.372927 1.171695 -0.465176 0
M  V30 48 H -2.754562 -2.817356 -0.775413 0
M  V30 49 H -5.563851 -4.574921 -5.965101 0
M  V30 50 H -4.972163 -5.559173 -1.625955 0
M  V30 51 H -4.751257 -3.912405 -1.022477 0
M  V30 52 H -3.257750 -4.965038 -1.430159 0
M  V30 53 H -0.278383 2.725763 2.023801 0
M  V30 54 H -1.702572 1.579616 2.382046 0
M  V30 55 H -0.878579 1.685271 4.514000 0
M  V30 END ATOM
M  V30 BEGIN BOND
M  V30 1 2 1 2
M  V30 2 1 2 3
M  V30 3 1 3 4
M  V30 4 1 4 5
M  V30 5 1 5 6
M  V30 6 1 6 7
M  V30 7 2 7 8
M  V30 8 1 8 9
M  V30 9 2 9 10
M  V30 10 1 10 11
M  V30 11 1 10 12
M  V30 12 1 12 13
M  V30 13 2 12 14
M  V30 14 1 6 15
M  V30 15 1 15 16
M  V30 16 1 16 17
M  V30 17 2 17 18
M  V30 18 1 17 19
M  V30 19 2 19 20
M  V30 20 1 20 21
M  V30 21 1 21 22
M  V30 22 2 22 23
M  V30 23 1 23 24
M  V30 24 1 23 25
M  V30 25 2 25 26
M  V30 26 1 26 27
M  V30 27 1 27 28
M  V30 28 2 21 29
M  V30 29 1 29 30
M  V30 30 1 29 31
M  V30 31 1 15 32
M  V30 32 1 32 33
M  V30 33 1 33 4
M  V30 34 1 14 7
M  V30 35 1 31 19
M  V30 36 1 27 22
M  V30 37 1 1 34
M  V30 38 1 1 35
M  V30 39 1 2 36
M  V30 40 1 3 37
M  V30 41 1 3 38
M  V30 42 1 4 39 CFG=1
M  V30 43 1 5 40
M  V30 44 1 5 41
M  V30 45 1 6 42 CFG=1
M  V30 46 1 8 43
M  V30 47 1 9 44
M  V30 48 1 14 45
M  V30 49 1 15 46 CFG=1
M  V30 50 1 16 47
M  V30 51 1 20 48
M  V30 52 1 25 49
M  V30 53 1 28 50
M  V30 54 1 28 51
M  V30 55 1 28 52
M  V30 56 1 32 53
M  V30 57 1 32 54
M  V30 58 1 33 55
M  V30 END BOND
M  V30 END CTAB
M  END
>  <Dataset>  (668) 
ChEMBL_Kinases

>  <Ligand_Instance>  (668) 
nan

>  <PDB_ID>  (668) 
nan

>  <Standardized_SMILES>  (668) 
C=CC[C@@H]1C[C@@H](c2ccc(Cl)c(Cl)c2)[C@H](NC(=O)c2cc(-c3c(Cl)cnn3C)c(Cl)o2)CN1

>  <Name>  (668) 
nan

>  <Pocket>  (668) 
nan

>  <ATP_Site>  (668) 
nan

>  <Peripheral>  (668) 
nan

>  <Num_H_Atoms_ProtBoundConf>  (668) 
nan

>  <Num_Resolved_Atoms>  (668) 
nan

>  <Num_Not_Resolved_Atoms>  (668) 
nan

$$$$
CHEMBL4449490
     RDKit          3D

  0  0  0  0  0  0  0  0  0  0999 V3000
M  V30 BEGIN CTAB
M  V30 COUNTS 77 80 0 0 0
M  V30 BEGIN ATOM
M  V30 1 C 8.053290 -2.133102 3.343903 0
M  V30 2 C 7.548649 -1.703473 1.958161 0
M  V30 3 C 6.057607 -1.636089 2.043961 0 CFG=2
M  V30 4 C 5.575525 -3.004661 2.401533 0
M  V30 5 O 6.258075 -4.035251 2.658842 0
M  V30 6 N 4.142581 -3.158769 2.457329 0
M  V30 7 C 3.506613 -4.220121 3.251452 0
M  V30 8 C 3.339329 -2.250024 1.717253 0
M  V30 9 C 1.976686 -2.424059 1.792115 0
M  V30 10 N 1.266293 -1.541072 1.076690 0
M  V30 11 C 1.774301 -0.551372 0.332335 0
M  V30 12 N 1.056138 0.400106 -0.436087 0
M  V30 13 C -0.338331 0.559095 -0.646680 0
M  V30 14 C -1.207561 -0.355940 -0.047348 0
M  V30 15 C -2.592306 -0.299802 -0.189025 0
M  V30 16 C -3.157046 0.699573 -0.954283 0
M  V30 17 C -4.587170 0.878448 -1.189196 0
M  V30 18 O -5.083265 1.805989 -1.879688 0
M  V30 19 N -5.536471 -0.011407 -0.635484 0
M  V30 20 C -6.971318 0.098529 -0.820886 0
M  V30 21 C -7.429935 -1.125551 -1.578835 0
M  V30 22 C -7.193171 -2.396447 -0.815989 0
M  V30 23 N -7.073727 -2.214535 0.599042 0
M  V30 24 C -7.439015 -3.456349 1.248785 0
M  V30 25 C -7.895042 -1.168037 1.143078 0
M  V30 26 C -7.708747 0.167783 0.486352 0
M  V30 27 C -2.278924 1.584577 -1.531588 0
M  V30 28 C -0.908671 1.582219 -1.428996 0
M  V30 29 O 0.020267 2.412574 -1.964476 0
M  V30 30 C -0.176704 3.514591 -2.758638 0
M  V30 31 C -0.925956 4.666200 -2.182370 0
M  V30 32 O -0.302867 5.194665 -1.045968 0
M  V30 33 N 3.109350 -0.458647 0.319195 0
M  V30 34 C 3.952381 -1.262297 0.978794 0
M  V30 35 N 5.384742 -1.093980 0.910928 0
M  V30 36 C 5.984511 -0.448491 -0.203462 0
M  V30 37 C 6.909135 -1.396541 -0.971003 0
M  V30 38 C 5.055562 0.251396 -1.143856 0
M  V30 39 H 8.304191 -3.196604 3.391667 0
M  V30 40 H 7.300436 -1.844019 4.094232 0
M  V30 41 H 9.013577 -1.591666 3.542193 0
M  V30 42 H 8.038399 -0.766278 1.709229 0
M  V30 43 H 7.816065 -2.560403 1.290992 0
M  V30 44 H 5.752602 -1.000473 2.936505 0
M  V30 45 H 2.990512 -4.945411 2.596703 0
M  V30 46 H 2.724776 -3.762558 3.924811 0
M  V30 47 H 4.229933 -4.677885 3.944540 0
M  V30 48 H 1.510679 -3.203645 2.375471 0
M  V30 49 H 1.616531 1.127856 -0.951972 0
M  V30 50 H -0.936452 -1.192413 0.577599 0
M  V30 51 H -3.277667 -1.000067 0.268514 0
M  V30 52 H -5.266205 -0.819377 -0.047699 0
M  V30 53 H -7.268553 0.969144 -1.432712 0
M  V30 54 H -8.512645 -1.050091 -1.807649 0
M  V30 55 H -6.910977 -1.131794 -2.559456 0
M  V30 56 H -7.950174 -3.173409 -1.018019 0
M  V30 57 H -6.220206 -2.807953 -1.190663 0
M  V30 58 H -6.654545 -4.237005 1.104399 0
M  V30 59 H -7.581279 -3.277581 2.352077 0
M  V30 60 H -8.406867 -3.799267 0.815942 0
M  V30 61 H -8.951994 -1.485636 1.038229 0
M  V30 62 H -7.653594 -1.121492 2.238921 0
M  V30 63 H -7.150158 0.811361 1.199698 0
M  V30 64 H -8.672776 0.650754 0.316376 0
M  V30 65 H -2.703675 2.361420 -2.145386 0
M  V30 66 H 0.846871 3.889314 -3.062397 0
M  V30 67 H -0.636238 3.251981 -3.760087 0
M  V30 68 H -0.840333 5.502825 -2.945186 0
M  V30 69 H -1.969448 4.518686 -1.934655 0
M  V30 70 H 0.576445 5.534524 -1.344280 0
M  V30 71 H 6.693052 0.355980 0.166002 0
M  V30 72 H 7.960016 -1.286518 -0.706407 0
M  V30 73 H 6.586240 -2.428600 -0.736402 0
M  V30 74 H 6.747460 -1.280654 -2.068915 0
M  V30 75 H 5.626313 0.687688 -2.024727 0
M  V30 76 H 4.528372 1.098389 -0.706842 0
M  V30 77 H 4.398246 -0.501843 -1.630866 0
M  V30 END ATOM
M  V30 BEGIN BOND
M  V30 1 1 1 2
M  V30 2 1 2 3
M  V30 3 1 3 4
M  V30 4 2 4 5
M  V30 5 1 4 6
M  V30 6 1 6 7
M  V30 7 1 6 8
M  V30 8 2 8 9
M  V30 9 1 9 10
M  V30 10 2 10 11
M  V30 11 1 11 12
M  V30 12 1 12 13
M  V30 13 2 13 14
M  V30 14 1 14 15
M  V30 15 2 15 16
M  V30 16 1 16 17
M  V30 17 2 17 18
M  V30 18 1 17 19
M  V30 19 1 19 20
M  V30 20 1 20 21
M  V30 21 1 21 22
M  V30 22 1 22 23
M  V30 23 1 23 24
M  V30 24 1 23 25
M  V30 25 1 25 26
M  V30 26 1 16 27
M  V30 27 2 27 28
M  V30 28 1 28 29
M  V30 29 1 29 30
M  V30 30 1 30 31
M  V30 31 1 31 32
M  V30 32 1 11 33
M  V30 33 2 33 34
M  V30 34 1 34 35
M  V30 35 1 35 36
M  V30 36 1 36 37
M  V30 37 1 36 38
M  V30 38 1 35 3
M  V30 39 1 34 8
M  V30 40 1 28 13
M  V30 41 1 26 20
M  V30 42 1 1 39
M  V30 43 1 1 40
M  V30 44 1 1 41
M  V30 45 1 2 42
M  V30 46 1 2 43
M  V30 47 1 3 44 CFG=1
M  V30 48 1 7 45
M  V30 49 1 7 46
M  V30 50 1 7 47
M  V30 51 1 9 48
M  V30 52 1 12 49
M  V30 53 1 14 50
M  V30 54 1 15 51
M  V30 55 1 19 52
M  V30 56 1 20 53
M  V30 57 1 21 54
M  V30 58 1 21 55
M  V30 59 1 22 56
M  V30 60 1 22 57
M  V30 61 1 24 58
M  V30 62 1 24 59
M  V30 63 1 24 60
M  V30 64 1 25 61
M  V30 65 1 25 62
M  V30 66 1 26 63
M  V30 67 1 26 64
M  V30 68 1 27 65
M  V30 69 1 30 66
M  V30 70 1 30 67
M  V30 71 1 31 68
M  V30 72 1 31 69
M  V30 73 1 32 70
M  V30 74 1 36 71
M  V30 75 1 37 72
M  V30 76 1 37 73
M  V30 77 1 37 74
M  V30 78 1 38 75
M  V30 79 1 38 76
M  V30 80 1 38 77
M  V30 END BOND
M  V30 END CTAB
M  END
>  <Dataset>  (669) 
ChEMBL_Kinases

>  <Ligand_Instance>  (669) 
nan

>  <PDB_ID>  (669) 
nan

>  <Standardized_SMILES>  (669) 
CC[C@@H]1C(=O)N(C)c2cnc(Nc3ccc(C(=O)NC4CCN(C)CC4)cc3OCCO)nc2N1C(C)C

>  <Name>  (669) 
nan

>  <Pocket>  (669) 
nan

>  <ATP_Site>  (669) 
nan

>  <Peripheral>  (669) 
nan

>  <Num_H_Atoms_ProtBoundConf>  (669) 
nan

>  <Num_Resolved_Atoms>  (669) 
nan

>  <Num_Not_Resolved_Atoms>  (669) 
nan

$$$$
CHEMBL4449405
     RDKit          3D

  0  0  0  0  0  0  0  0  0  0999 V3000
M  V30 BEGIN CTAB
M  V30 COUNTS 44 46 0 0 0
M  V30 BEGIN ATOM
M  V30 1 C 2.680730 -5.789960 3.336921 0
M  V30 2 O 2.920540 -5.339379 2.035615 0
M  V30 3 C 2.360848 -4.219777 1.446903 0
M  V30 4 C 1.464068 -3.364886 2.073899 0
M  V30 5 C 1.020455 -2.312725 1.335675 0
M  V30 6 C 1.393576 -2.036839 0.023628 0
M  V30 7 C 0.773662 -0.775053 -0.521929 0
M  V30 8 N 0.221339 -1.191518 -1.719896 0
M  V30 9 N -0.360523 -0.162128 -2.288151 0
M  V30 10 C -0.093411 0.753817 -1.370401 0
M  V30 11 C 0.593994 0.627597 -0.187354 0
M  V30 12 C 1.265078 0.608144 1.028105 0
M  V30 13 N 1.233865 1.740430 1.633521 0
M  V30 14 N 0.596869 2.857616 1.128717 0
M  V30 15 C -0.756853 2.746883 1.507941 0
M  V30 16 O -0.637654 1.612927 2.121379 0
M  V30 17 C -2.004775 3.470794 1.392709 0
M  V30 18 C -2.876094 3.074759 2.420983 0
M  V30 19 C -4.127268 3.623247 2.534929 0
M  V30 20 C -4.502676 4.569720 1.615462 0
M  V30 21 C -3.705469 5.006280 0.583682 0
M  V30 22 C -2.469871 4.421782 0.523468 0
M  V30 23 I -1.134373 4.978232 -0.986150 0
M  V30 24 C 2.280506 -2.880347 -0.600324 0
M  V30 25 C 2.742523 -3.950875 0.124687 0
M  V30 26 O 3.628617 -4.818860 -0.463130 0
M  V30 27 C 4.071154 -4.650205 -1.781004 0
M  V30 28 H 3.589475 -6.317000 3.703831 0
M  V30 29 H 2.321303 -5.024276 4.045261 0
M  V30 30 H 1.903904 -6.601215 3.240057 0
M  V30 31 H 1.205248 -3.613072 3.079014 0
M  V30 32 H 0.317204 -1.710129 1.899651 0
M  V30 33 H -0.903010 0.230493 -3.085633 0
M  V30 34 H -0.316368 1.854150 -1.255294 0
M  V30 35 H 1.838066 0.041843 1.725554 0
M  V30 36 H 0.717621 3.765893 0.571523 0
M  V30 37 H -2.680240 2.336058 3.202260 0
M  V30 38 H -4.842938 3.367066 3.296619 0
M  V30 39 H -5.488117 5.021632 1.683510 0
M  V30 40 H -3.954464 5.739323 -0.156074 0
M  V30 41 H 2.508494 -2.597229 -1.591742 0
M  V30 42 H 4.456676 -5.618289 -2.208034 0
M  V30 43 H 3.246548 -4.260586 -2.399839 0
M  V30 44 H 4.899627 -3.885158 -1.822957 0
M  V30 END ATOM
M  V30 BEGIN BOND
M  V30 1 1 1 2
M  V30 2 1 2 3
M  V30 3 2 3 4
M  V30 4 1 4 5
M  V30 5 2 5 6
M  V30 6 1 6 7
M  V30 7 2 7 8
M  V30 8 1 8 9
M  V30 9 1 9 10
M  V30 10 2 10 11
M  V30 11 1 11 12
M  V30 12 2 12 13
M  V30 13 1 13 14
M  V30 14 1 14 15
M  V30 15 2 15 16
M  V30 16 1 15 17
M  V30 17 2 17 18
M  V30 18 1 18 19
M  V30 19 2 19 20
M  V30 20 1 20 21
M  V30 21 2 21 22
M  V30 22 1 22 23
M  V30 23 1 6 24
M  V30 24 2 24 25
M  V30 25 1 25 26
M  V30 26 1 26 27
M  V30 27 1 25 3
M  V30 28 1 11 7
M  V30 29 1 22 17
M  V30 30 1 1 28
M  V30 31 1 1 29
M  V30 32 1 1 30
M  V30 33 1 4 31
M  V30 34 1 5 32
M  V30 35 1 9 33
M  V30 36 1 10 34
M  V30 37 1 12 35
M  V30 38 1 14 36
M  V30 39 1 18 37
M  V30 40 1 19 38
M  V30 41 1 20 39
M  V30 42 1 21 40
M  V30 43 1 24 41
M  V30 44 1 27 42
M  V30 45 1 27 43
M  V30 46 1 27 44
M  V30 END BOND
M  V30 END CTAB
M  END
>  <Dataset>  (670) 
ChEMBL_Kinases

>  <Ligand_Instance>  (670) 
nan

>  <PDB_ID>  (670) 
nan

>  <Standardized_SMILES>  (670) 
COc1ccc(-c2n[nH]cc2/C=N\NC(=O)c2ccccc2I)cc1OC

>  <Name>  (670) 
nan

>  <Pocket>  (670) 
nan

>  <ATP_Site>  (670) 
nan

>  <Peripheral>  (670) 
nan

>  <Num_H_Atoms_ProtBoundConf>  (670) 
nan

>  <Num_Resolved_Atoms>  (670) 
nan

>  <Num_Not_Resolved_Atoms>  (670) 
nan

$$$$
CHEMBL4449398
     RDKit          3D

  0  0  0  0  0  0  0  0  0  0999 V3000
M  V30 BEGIN CTAB
M  V30 COUNTS 46 48 0 0 0
M  V30 BEGIN ATOM
M  V30 1 C 1.746746 -0.355408 4.811630 0
M  V30 2 C 2.718011 0.005626 3.763976 0
M  V30 3 C 4.035519 0.398701 3.864861 0
M  V30 4 C 4.802149 0.701166 2.782006 0
M  V30 5 C 4.218320 0.606960 1.517652 0
M  V30 6 C 5.105363 0.959203 0.399790 0
M  V30 7 O 5.862170 1.903133 0.162999 0
M  V30 8 N 5.125551 0.015376 -0.688468 0
M  V30 9 C 5.994887 0.398420 -1.761205 0
M  V30 10 C 4.445214 -1.236155 -0.913568 0
M  V30 11 C 2.893249 0.213459 1.376829 0
M  V30 12 C 2.145965 -0.087929 2.522274 0
M  V30 13 N 0.875224 -0.470784 2.028505 0
M  V30 14 C -0.237525 0.261057 1.645647 0
M  V30 15 O -0.384631 1.546689 1.655934 0
M  V30 16 C -1.458747 -0.301649 1.152496 0
M  V30 17 C -1.675258 -1.759509 0.999770 0
M  V30 18 C -2.891170 -2.146991 0.510491 0
M  V30 19 C -3.803284 -1.217256 0.199401 0
M  V30 20 C -5.137089 -1.171210 -0.343572 0
M  V30 21 C -5.742369 0.046068 -0.607514 0
M  V30 22 C -7.028932 0.099973 -1.138063 0
M  V30 23 C -7.755835 -1.027305 -1.425468 0
M  V30 24 C -7.179294 -2.277991 -1.170627 0
M  V30 25 C -5.900211 -2.275395 -0.643701 0
M  V30 26 Cl -5.275073 -3.880588 -0.355853 0
M  V30 27 S -3.019581 0.295288 0.575768 0
M  V30 28 H 2.255423 -0.396258 5.807660 0
M  V30 29 H 0.925235 0.385238 4.905955 0
M  V30 30 H 1.280852 -1.363762 4.637446 0
M  V30 31 H 4.378584 0.431943 4.910738 0
M  V30 32 H 5.837081 1.000651 2.974823 0
M  V30 33 H 5.443030 0.591154 -2.717425 0
M  V30 34 H 6.656553 1.248161 -1.566803 0
M  V30 35 H 6.667215 -0.492831 -1.939633 0
M  V30 36 H 5.097347 -1.954900 -1.440194 0
M  V30 37 H 4.016210 -1.681641 0.020809 0
M  V30 38 H 3.593822 -1.030324 -1.587560 0
M  V30 39 H 2.632435 0.207845 0.319985 0
M  V30 40 H 0.839461 -1.521582 1.961939 0
M  V30 41 H -0.855292 -2.428162 1.289748 0
M  V30 42 H -3.067669 -3.200835 0.398037 0
M  V30 43 H -5.296305 1.007493 -0.437887 0
M  V30 44 H -7.499387 1.051442 -1.344500 0
M  V30 45 H -8.750568 -0.975109 -1.837058 0
M  V30 46 H -7.745101 -3.167943 -1.390168 0
M  V30 END ATOM
M  V30 BEGIN BOND
M  V30 1 1 1 2
M  V30 2 2 2 3
M  V30 3 1 3 4
M  V30 4 2 4 5
M  V30 5 1 5 6
M  V30 6 2 6 7
M  V30 7 1 6 8
M  V30 8 1 8 9
M  V30 9 1 8 10
M  V30 10 1 5 11
M  V30 11 2 11 12
M  V30 12 1 12 13
M  V30 13 1 13 14
M  V30 14 2 14 15
M  V30 15 1 14 16
M  V30 16 2 16 17
M  V30 17 1 17 18
M  V30 18 2 18 19
M  V30 19 1 19 20
M  V30 20 2 20 21
M  V30 21 1 21 22
M  V30 22 2 22 23
M  V30 23 1 23 24
M  V30 24 2 24 25
M  V30 25 1 25 26
M  V30 26 1 19 27
M  V30 27 1 12 2
M  V30 28 1 27 16
M  V30 29 1 25 20
M  V30 30 1 1 28
M  V30 31 1 1 29
M  V30 32 1 1 30
M  V30 33 1 3 31
M  V30 34 1 4 32
M  V30 35 1 9 33
M  V30 36 1 9 34
M  V30 37 1 9 35
M  V30 38 1 10 36
M  V30 39 1 10 37
M  V30 40 1 10 38
M  V30 41 1 11 39
M  V30 42 1 13 40
M  V30 43 1 17 41
M  V30 44 1 18 42
M  V30 45 1 21 43
M  V30 46 1 22 44
M  V30 47 1 23 45
M  V30 48 1 24 46
M  V30 END BOND
M  V30 END CTAB
M  END
>  <Dataset>  (671) 
ChEMBL_Kinases

>  <Ligand_Instance>  (671) 
nan

>  <PDB_ID>  (671) 
nan

>  <Standardized_SMILES>  (671) 
Cc1ccc(C(=O)N(C)C)cc1NC(=O)c1ccc(-c2ccccc2Cl)s1

>  <Name>  (671) 
nan

>  <Pocket>  (671) 
nan

>  <ATP_Site>  (671) 
nan

>  <Peripheral>  (671) 
nan

>  <Num_H_Atoms_ProtBoundConf>  (671) 
nan

>  <Num_Resolved_Atoms>  (671) 
nan

>  <Num_Not_Resolved_Atoms>  (671) 
nan

$$$$
CHEMBL4449385
     RDKit          3D

  0  0  0  0  0  0  0  0  0  0999 V3000
M  V30 BEGIN CTAB
M  V30 COUNTS 58 62 0 0 0
M  V30 BEGIN ATOM
M  V30 1 O -1.887451 -0.629797 0.198869 0
M  V30 2 C -1.314235 -1.716111 -0.139283 0
M  V30 3 C 0.152692 -1.729344 0.064605 0
M  V30 4 C 1.140055 -0.899695 0.542411 0
M  V30 5 C 2.459733 -1.295448 0.591831 0
M  V30 6 C 3.423883 -0.336639 1.116664 0
M  V30 7 C 4.775622 -0.581394 1.230323 0
M  V30 8 C 5.634368 0.365356 1.734189 0
M  V30 9 N 5.122997 1.531799 2.111717 0
M  V30 10 C 3.799310 1.821550 2.020018 0
M  V30 11 N 3.285876 3.081868 2.433281 0
M  V30 12 C 1.886863 3.462856 2.366570 0
M  V30 13 C 1.676157 4.869502 2.875034 0
M  V30 14 C 1.204669 4.937187 4.298445 0
M  V30 15 O -0.035131 4.256383 4.309853 0
M  V30 16 C 0.277579 2.920564 4.242034 0
M  V30 17 C 0.960115 2.470464 2.999738 0
M  V30 18 N 3.009965 0.854716 1.519056 0
M  V30 19 C 2.789042 -2.558746 0.148126 0
M  V30 20 C 1.815406 -3.434537 -0.346038 0
M  V30 21 C 0.504224 -2.985777 -0.373775 0
M  V30 22 C -0.611225 -3.825321 -0.900262 0
M  V30 23 N -1.762861 -2.978544 -0.691102 0
M  V30 24 C -3.195662 -3.145585 -0.905612 0 CFG=2
M  V30 25 C -3.770968 -4.151442 0.071434 0
M  V30 26 O -3.248110 -5.405009 0.010952 0
M  V30 27 C -3.588018 -3.385006 -2.289781 0
M  V30 28 C -3.095594 -4.324333 -3.171119 0
M  V30 29 C -3.517896 -4.474212 -4.466548 0
M  V30 30 C -4.490255 -3.662532 -4.964348 0
M  V30 31 C -5.051098 -2.696886 -4.182734 0
M  V30 32 Cl -6.289411 -1.645877 -4.778488 0
M  V30 33 C -4.584685 -2.599835 -2.899808 0
M  V30 34 H 0.828388 0.070258 0.873970 0
M  V30 35 H 5.165468 -1.536819 0.916597 0
M  V30 36 H 6.692561 0.160886 1.818150 0
M  V30 37 H 3.960785 3.782077 2.810820 0
M  V30 38 H 1.637426 3.487407 1.270202 0
M  V30 39 H 0.856465 5.350208 2.267413 0
M  V30 40 H 2.570624 5.470257 2.656685 0
M  V30 41 H 1.947997 4.435227 4.950373 0
M  V30 42 H 1.025175 5.991759 4.533386 0
M  V30 43 H 0.834151 2.601842 5.163044 0
M  V30 44 H -0.698983 2.372118 4.324450 0
M  V30 45 H 0.194436 2.078258 2.276217 0
M  V30 46 H 1.572191 1.561607 3.274937 0
M  V30 47 H 3.820871 -2.875424 0.184249 0
M  V30 48 H 2.177245 -4.400890 -0.668365 0
M  V30 49 H -0.680032 -4.793416 -0.386453 0
M  V30 50 H -0.384744 -4.036458 -1.965157 0
M  V30 51 H -3.682593 -2.201255 -0.581197 0
M  V30 52 H -3.541040 -3.730069 1.090284 0
M  V30 53 H -4.877464 -4.109755 0.008619 0
M  V30 54 H -3.883605 -5.977340 -0.516829 0
M  V30 55 H -2.344238 -4.983439 -2.823802 0
M  V30 56 H -3.065261 -5.254057 -5.098422 0
M  V30 57 H -4.808622 -3.796904 -5.987046 0
M  V30 58 H -5.048550 -1.814103 -2.281112 0
M  V30 END ATOM
M  V30 BEGIN BOND
M  V30 1 2 1 2
M  V30 2 1 2 3
M  V30 3 2 3 4
M  V30 4 1 4 5
M  V30 5 1 5 6
M  V30 6 2 6 7
M  V30 7 1 7 8
M  V30 8 2 8 9
M  V30 9 1 9 10
M  V30 10 1 10 11
M  V30 11 1 11 12
M  V30 12 1 12 13
M  V30 13 1 13 14
M  V30 14 1 14 15
M  V30 15 1 15 16
M  V30 16 1 16 17
M  V30 17 2 10 18
M  V30 18 2 5 19
M  V30 19 1 19 20
M  V30 20 2 20 21
M  V30 21 1 21 22
M  V30 22 1 22 23
M  V30 23 1 23 24
M  V30 24 1 24 25
M  V30 25 1 25 26
M  V30 26 1 24 27
M  V30 27 2 27 28
M  V30 28 1 28 29
M  V30 29 2 29 30
M  V30 30 1 30 31
M  V30 31 1 31 32
M  V30 32 2 31 33
M  V30 33 1 23 2
M  V30 34 1 33 27
M  V30 35 1 21 3
M  V30 36 1 18 6
M  V30 37 1 17 12
M  V30 38 1 4 34
M  V30 39 1 7 35
M  V30 40 1 8 36
M  V30 41 1 11 37
M  V30 42 1 12 38
M  V30 43 1 13 39
M  V30 44 1 13 40
M  V30 45 1 14 41
M  V30 46 1 14 42
M  V30 47 1 16 43
M  V30 48 1 16 44
M  V30 49 1 17 45
M  V30 50 1 17 46
M  V30 51 1 19 47
M  V30 52 1 20 48
M  V30 53 1 22 49
M  V30 54 1 22 50
M  V30 55 1 24 51 CFG=1
M  V30 56 1 25 52
M  V30 57 1 25 53
M  V30 58 1 26 54
M  V30 59 1 28 55
M  V30 60 1 29 56
M  V30 61 1 30 57
M  V30 62 1 33 58
M  V30 END BOND
M  V30 END CTAB
M  END
>  <Dataset>  (672) 
ChEMBL_Kinases

>  <Ligand_Instance>  (672) 
nan

>  <PDB_ID>  (672) 
nan

>  <Standardized_SMILES>  (672) 
O=C1c2cc(-c3ccnc(NC4CCOCC4)n3)ccc2CN1[C@H](CO)c1cccc(Cl)c1

>  <Name>  (672) 
nan

>  <Pocket>  (672) 
nan

>  <ATP_Site>  (672) 
nan

>  <Peripheral>  (672) 
nan

>  <Num_H_Atoms_ProtBoundConf>  (672) 
nan

>  <Num_Resolved_Atoms>  (672) 
nan

>  <Num_Not_Resolved_Atoms>  (672) 
nan

$$$$
CHEMBL4449374
     RDKit          3D

  0  0  0  0  0  0  0  0  0  0999 V3000
M  V30 BEGIN CTAB
M  V30 COUNTS 15 16 0 0 0
M  V30 BEGIN ATOM
M  V30 1 N -1.706901 -1.190527 0.661957 0
M  V30 2 C -0.424034 -0.692838 1.012543 0
M  V30 3 N 0.113188 -1.063275 2.188791 0
M  V30 4 C 1.329823 -0.621408 2.574822 0
M  V30 5 I 2.194845 -1.176984 4.396008 0
M  V30 6 C 2.041284 0.230513 1.745017 0
M  V30 7 N 3.234267 0.838741 1.812405 0
M  V30 8 C 3.407007 1.563353 0.690118 0
M  V30 9 N 2.332665 1.435143 -0.116673 0
M  V30 10 C 1.486780 0.603667 0.547295 0
M  V30 11 N 0.260549 0.131654 0.205630 0
M  V30 12 H -2.260788 -0.850951 -0.144386 0
M  V30 13 H -2.165768 -1.929587 1.199304 0
M  V30 14 H 4.290538 2.155777 0.487538 0
M  V30 15 H 2.157305 1.865561 -1.051048 0
M  V30 END ATOM
M  V30 BEGIN BOND
M  V30 1 1 1 2
M  V30 2 2 2 3
M  V30 3 1 3 4
M  V30 4 1 4 5
M  V30 5 2 4 6
M  V30 6 1 6 7
M  V30 7 2 7 8
M  V30 8 1 8 9
M  V30 9 1 9 10
M  V30 10 2 10 11
M  V30 11 1 11 2
M  V30 12 1 10 6
M  V30 13 1 1 12
M  V30 14 1 1 13
M  V30 15 1 8 14
M  V30 16 1 9 15
M  V30 END BOND
M  V30 END CTAB
M  END
>  <Dataset>  (673) 
ChEMBL_Kinases

>  <Ligand_Instance>  (673) 
nan

>  <PDB_ID>  (673) 
nan

>  <Standardized_SMILES>  (673) 
Nc1nc(I)c2nc[nH]c2n1

>  <Name>  (673) 
nan

>  <Pocket>  (673) 
nan

>  <ATP_Site>  (673) 
nan

>  <Peripheral>  (673) 
nan

>  <Num_H_Atoms_ProtBoundConf>  (673) 
nan

>  <Num_Resolved_Atoms>  (673) 
nan

>  <Num_Not_Resolved_Atoms>  (673) 
nan

$$$$
CHEMBL4449317
     RDKit          3D

  0  0  0  0  0  0  0  0  0  0999 V3000
M  V30 BEGIN CTAB
M  V30 COUNTS 38 41 0 0 0
M  V30 BEGIN ATOM
M  V30 1 N 2.799487 -5.895096 3.386173 0
M  V30 2 C 1.676755 -4.990046 3.379384 0
M  V30 3 C 0.649297 -5.097777 4.291900 0
M  V30 4 C -0.410874 -4.218178 4.260399 0
M  V30 5 C -0.420576 -3.215988 3.283519 0
M  V30 6 C 0.625608 -3.114777 2.362939 0
M  V30 7 C 0.490934 -2.014489 1.387157 0
M  V30 8 C -0.162319 -0.855742 1.813395 0
M  V30 9 C -0.288255 0.183012 0.886347 0
M  V30 10 C 0.196471 0.104449 -0.396738 0
M  V30 11 C 0.175220 1.002515 -1.447554 0
M  V30 12 N -0.381481 2.313118 -1.487402 0
M  V30 13 C 0.295802 3.518923 -1.157244 0
M  V30 14 O 1.482195 3.666523 -0.777130 0
M  V30 15 C -0.498813 4.770152 -1.275411 0
M  V30 16 C -1.568979 4.872804 -2.296707 0
M  V30 17 C -1.941362 4.715775 -0.835010 0
M  V30 18 N 0.809461 0.366902 -2.466206 0
M  V30 19 N 1.199826 -0.852067 -2.069390 0
M  V30 20 C 0.835365 -1.060451 -0.774300 0
M  V30 21 C 0.989713 -2.121436 0.099193 0
M  V30 22 C 1.684144 -3.997270 2.398552 0
M  V30 23 H 3.273840 -5.676449 4.300566 0
M  V30 24 H 3.170635 -6.635078 2.719614 0
M  V30 25 H 0.672694 -5.890326 5.052410 0
M  V30 26 H -1.176846 -4.358656 5.000228 0
M  V30 27 H -1.280854 -2.543914 3.297863 0
M  V30 28 H -0.571985 -0.699602 2.787120 0
M  V30 29 H -0.786882 1.099561 1.169763 0
M  V30 30 H -1.378226 2.320138 -1.793841 0
M  V30 31 H 0.008004 5.734317 -1.025721 0
M  V30 32 H -1.699383 3.969306 -2.951234 0
M  V30 33 H -1.799020 5.810705 -2.825513 0
M  V30 34 H -2.431553 3.771969 -0.575359 0
M  V30 35 H -2.425258 5.627121 -0.420545 0
M  V30 36 H 1.709411 -1.543104 -2.663489 0
M  V30 37 H 1.492891 -3.028104 -0.210801 0
M  V30 38 H 2.459635 -3.859874 1.655252 0
M  V30 END ATOM
M  V30 BEGIN BOND
M  V30 1 1 1 2
M  V30 2 2 2 3
M  V30 3 1 3 4
M  V30 4 2 4 5
M  V30 5 1 5 6
M  V30 6 1 6 7
M  V30 7 2 7 8
M  V30 8 1 8 9
M  V30 9 2 9 10
M  V30 10 1 10 11
M  V30 11 1 11 12
M  V30 12 1 12 13
M  V30 13 2 13 14
M  V30 14 1 13 15
M  V30 15 1 15 16
M  V30 16 1 16 17
M  V30 17 2 11 18
M  V30 18 1 18 19
M  V30 19 1 19 20
M  V30 20 2 20 21
M  V30 21 2 6 22
M  V30 22 1 22 2
M  V30 23 1 21 7
M  V30 24 1 20 10
M  V30 25 1 17 15
M  V30 26 1 1 23
M  V30 27 1 1 24
M  V30 28 1 3 25
M  V30 29 1 4 26
M  V30 30 1 5 27
M  V30 31 1 8 28
M  V30 32 1 9 29
M  V30 33 1 12 30
M  V30 34 1 15 31
M  V30 35 1 16 32
M  V30 36 1 16 33
M  V30 37 1 17 34
M  V30 38 1 17 35
M  V30 39 1 19 36
M  V30 40 1 21 37
M  V30 41 1 22 38
M  V30 END BOND
M  V30 END CTAB
M  END
>  <Dataset>  (674) 
ChEMBL_Kinases

>  <Ligand_Instance>  (674) 
nan

>  <PDB_ID>  (674) 
nan

>  <Standardized_SMILES>  (674) 
Nc1cccc(-c2ccc3c(NC(=O)C4CC4)n[nH]c3c2)c1

>  <Name>  (674) 
nan

>  <Pocket>  (674) 
nan

>  <ATP_Site>  (674) 
nan

>  <Peripheral>  (674) 
nan

>  <Num_H_Atoms_ProtBoundConf>  (674) 
nan

>  <Num_Resolved_Atoms>  (674) 
nan

>  <Num_Not_Resolved_Atoms>  (674) 
nan

$$$$
CHEMBL4749678
     RDKit          3D

  0  0  0  0  0  0  0  0  0  0999 V3000
M  V30 BEGIN CTAB
M  V30 COUNTS 80 85 0 0 0
M  V30 BEGIN ATOM
M  V30 1 C 3.804844 -4.772508 6.251474 0
M  V30 2 N 3.540408 -3.727669 5.289695 0
M  V30 3 C 3.222376 -4.057779 3.950737 0
M  V30 4 O 3.174649 -5.266268 3.621990 0
M  V30 5 C 2.955476 -2.983867 2.975871 0
M  V30 6 S 2.561058 -3.670425 1.283406 0
M  V30 7 C 2.347815 -1.908840 0.611003 0
M  V30 8 C 1.990547 -1.751137 -0.862284 0
M  V30 9 C 1.825985 -2.799041 -1.716928 0
M  V30 10 C 1.500741 -2.454386 -3.026793 0
M  V30 11 N 1.360975 -1.171127 -3.410215 0
M  V30 12 C 1.538832 -0.177480 -2.507398 0
M  V30 13 N 1.385828 1.215543 -2.876675 0
M  V30 14 C 0.007567 1.414894 -2.589545 0
M  V30 15 O -0.378917 0.267013 -2.157226 0
M  V30 16 C -0.735901 2.711429 -2.780930 0
M  V30 17 N -2.134666 2.515981 -2.365564 0
M  V30 18 C -2.237471 2.318400 -0.961597 0
M  V30 19 C -3.583040 2.049257 -0.398317 0
M  V30 20 N -4.271998 0.891023 -0.871170 0
M  V30 21 C -4.017070 -0.456172 -1.229673 0
M  V30 22 C -3.789161 -0.938181 -2.518796 0
M  V30 23 C -3.467975 -2.235734 -2.816623 0
M  V30 24 N -3.369186 -3.097383 -1.794295 0
M  V30 25 C -3.579081 -2.695895 -0.528415 0
M  V30 26 C -3.443299 -3.688957 0.410064 0
M  V30 27 C -3.632554 -3.410676 1.749390 0
M  V30 28 C -3.954336 -2.124419 2.082203 0
M  V30 29 C -4.090483 -1.127145 1.138928 0
M  V30 30 C -3.904391 -1.390894 -0.200408 0
M  V30 31 C -3.265058 -2.507672 -4.280456 0
M  V30 32 C -2.242310 -1.450122 -4.724419 0
M  V30 33 C -2.861985 -0.075639 -4.655414 0
M  V30 34 C -3.969655 0.004287 -3.651032 0
M  V30 35 C 1.866003 -0.420697 -1.173779 0
M  V30 36 N 2.557148 -1.330501 1.531197 0
M  V30 37 C 2.867388 -1.657525 2.761787 0
M  V30 38 O 3.148502 -1.093957 3.967409 0
M  V30 39 C 3.196234 0.235543 4.312598 0
M  V30 40 C 4.153597 1.115725 3.600024 0
M  V30 41 C 4.023939 1.307254 2.121888 0
M  V30 42 C 4.431505 2.789728 2.294218 0
M  V30 43 C 3.982408 2.613107 3.744579 0
M  V30 44 H 3.114398 -4.694822 7.115932 0
M  V30 45 H 4.830668 -4.752407 6.667259 0
M  V30 46 H 3.650395 -5.779721 5.823926 0
M  V30 47 H 3.578708 -2.738228 5.557707 0
M  V30 48 H 1.957917 -3.771431 -1.312617 0
M  V30 49 H 1.367861 -3.290716 -3.712974 0
M  V30 50 H 1.953725 2.006860 -3.249552 0
M  V30 51 H -0.305344 3.415899 -2.040599 0
M  V30 52 H -0.636674 3.081662 -3.795621 0
M  V30 53 H -2.593728 3.438214 -2.596258 0
M  V30 54 H -1.577744 1.465700 -0.612936 0
M  V30 55 H -1.809906 3.198017 -0.380487 0
M  V30 56 H -4.289554 2.907510 -0.530176 0
M  V30 57 H -3.462486 1.949812 0.719506 0
M  V30 58 H -5.306402 0.864768 -1.066060 0
M  V30 59 H -3.186490 -4.719966 0.158125 0
M  V30 60 H -3.522497 -4.203845 2.483623 0
M  V30 61 H -4.114838 -1.837064 3.104357 0
M  V30 62 H -4.344397 -0.134789 1.416387 0
M  V30 63 H -4.190822 -2.292180 -4.816698 0
M  V30 64 H -2.804302 -3.488076 -4.473230 0
M  V30 65 H -1.890479 -1.617155 -5.752651 0
M  V30 66 H -1.368195 -1.453147 -4.029727 0
M  V30 67 H -2.047164 0.647293 -4.441564 0
M  V30 68 H -3.237411 0.162144 -5.693541 0
M  V30 69 H -4.207066 1.024728 -3.326413 0
M  V30 70 H -4.894197 -0.397558 -4.196411 0
M  V30 71 H 1.997256 0.400490 -0.494454 0
M  V30 72 H 2.159313 0.705396 4.242357 0
M  V30 73 H 3.418428 0.370070 5.419768 0
M  V30 74 H 5.241049 0.844605 3.805168 0
M  V30 75 H 4.723546 0.814146 1.455715 0
M  V30 76 H 3.000496 1.329091 1.689604 0
M  V30 77 H 5.492799 2.979223 2.137745 0
M  V30 78 H 3.820973 3.499280 1.711598 0
M  V30 79 H 4.769580 3.065572 4.399602 0
M  V30 80 H 2.968715 2.964992 3.976888 0
M  V30 END ATOM
M  V30 BEGIN BOND
M  V30 1 1 1 2
M  V30 2 1 2 3
M  V30 3 2 3 4
M  V30 4 1 3 5
M  V30 5 1 5 6
M  V30 6 1 6 7
M  V30 7 1 7 8
M  V30 8 2 8 9
M  V30 9 1 9 10
M  V30 10 2 10 11
M  V30 11 1 11 12
M  V30 12 1 12 13
M  V30 13 1 13 14
M  V30 14 2 14 15
M  V30 15 1 14 16
M  V30 16 1 16 17
M  V30 17 1 17 18
M  V30 18 1 18 19
M  V30 19 1 19 20
M  V30 20 1 20 21
M  V30 21 2 21 22
M  V30 22 1 22 23
M  V30 23 2 23 24
M  V30 24 1 24 25
M  V30 25 2 25 26
M  V30 26 1 26 27
M  V30 27 2 27 28
M  V30 28 1 28 29
M  V30 29 2 29 30
M  V30 30 1 23 31
M  V30 31 1 31 32
M  V30 32 1 32 33
M  V30 33 1 33 34
M  V30 34 2 12 35
M  V30 35 2 7 36
M  V30 36 1 36 37
M  V30 37 1 37 38
M  V30 38 1 38 39
M  V30 39 1 39 40
M  V30 40 1 40 41
M  V30 41 1 41 42
M  V30 42 1 42 43
M  V30 43 2 37 5
M  V30 44 1 43 40
M  V30 45 1 35 8
M  V30 46 1 30 21
M  V30 47 1 34 22
M  V30 48 1 30 25
M  V30 49 1 1 44
M  V30 50 1 1 45
M  V30 51 1 1 46
M  V30 52 1 2 47
M  V30 53 1 9 48
M  V30 54 1 10 49
M  V30 55 1 13 50
M  V30 56 1 16 51
M  V30 57 1 16 52
M  V30 58 1 17 53
M  V30 59 1 18 54
M  V30 60 1 18 55
M  V30 61 1 19 56
M  V30 62 1 19 57
M  V30 63 1 20 58
M  V30 64 1 26 59
M  V30 65 1 27 60
M  V30 66 1 28 61
M  V30 67 1 29 62
M  V30 68 1 31 63
M  V30 69 1 31 64
M  V30 70 1 32 65
M  V30 71 1 32 66
M  V30 72 1 33 67
M  V30 73 1 33 68
M  V30 74 1 34 69
M  V30 75 1 34 70
M  V30 76 1 35 71
M  V30 77 1 39 72
M  V30 78 1 39 73
M  V30 79 1 40 74
M  V30 80 1 41 75
M  V30 81 1 41 76
M  V30 82 1 42 77
M  V30 83 1 42 78
M  V30 84 1 43 79
M  V30 85 1 43 80
M  V30 END BOND
M  V30 END CTAB
M  END
>  <Dataset>  (675) 
ChEMBL_Kinases

>  <Ligand_Instance>  (675) 
nan

>  <PDB_ID>  (675) 
nan

>  <Standardized_SMILES>  (675) 
CNC(=O)c1sc(-c2ccnc(NC(=O)CNCCNc3c4c(nc5ccccc35)CCCC4)c2)nc1OCC1CCC1

>  <Name>  (675) 
nan

>  <Pocket>  (675) 
nan

>  <ATP_Site>  (675) 
nan

>  <Peripheral>  (675) 
nan

>  <Num_H_Atoms_ProtBoundConf>  (675) 
nan

>  <Num_Resolved_Atoms>  (675) 
nan

>  <Num_Not_Resolved_Atoms>  (675) 
nan

$$$$
CHEMBL4449288
     RDKit          3D

  0  0  0  0  0  0  0  0  0  0999 V3000
M  V30 BEGIN CTAB
M  V30 COUNTS 45 48 0 0 0
M  V30 BEGIN ATOM
M  V30 1 C 2.595892 -5.433460 -2.998128 0
M  V30 2 N 3.107706 -5.226596 -1.663549 0
M  V30 3 N 3.942937 -6.089640 -1.058989 0
M  V30 4 C 4.242099 -5.631850 0.162169 0
M  V30 5 C 3.548617 -4.445204 0.276000 0
M  V30 6 Br 3.696876 -3.448082 1.890221 0
M  V30 7 C 2.830549 -4.180552 -0.869005 0
M  V30 8 C 1.989030 -3.024868 -1.103189 0
M  V30 9 C 1.241704 -2.686366 -2.211919 0
M  V30 10 O 0.601547 -1.542665 -2.043907 0
M  V30 11 C 0.873862 -1.058503 -0.844534 0
M  V30 12 C 0.344273 0.191825 -0.307307 0
M  V30 13 O -0.424022 0.827124 -1.070712 0
M  V30 14 N 0.709401 0.610588 0.998871 0
M  V30 15 C 0.139635 1.867990 1.461888 0
M  V30 16 C 1.178104 2.834961 1.925829 0
M  V30 17 N 1.032532 3.022324 3.351606 0
M  V30 18 C -0.248087 2.527191 3.751499 0
M  V30 19 C -0.676119 1.549157 2.706715 0
M  V30 20 C -2.131654 1.575212 2.415005 0
M  V30 21 C -2.585533 2.792873 1.926047 0
M  V30 22 C -3.920100 2.954288 1.613298 0
M  V30 23 C -4.812218 1.902405 1.785847 0
M  V30 24 F -6.137988 1.948715 1.512681 0
M  V30 25 C -4.350790 0.691653 2.274001 0
M  V30 26 F -5.124541 -0.415882 2.487872 0
M  V30 27 C -3.016723 0.532081 2.586049 0
M  V30 28 C 1.741073 -1.976529 -0.245575 0
M  V30 29 H 3.028854 -6.381294 -3.436743 0
M  V30 30 H 2.958470 -4.646725 -3.718193 0
M  V30 31 H 1.511596 -5.577132 -3.051311 0
M  V30 32 H 4.900135 -6.167444 0.827542 0
M  V30 33 H 1.140344 -3.224604 -3.127074 0
M  V30 34 H 1.350233 0.068603 1.619846 0
M  V30 35 H -0.509369 2.281427 0.654894 0
M  V30 36 H 2.220630 2.467606 1.751164 0
M  V30 37 H 1.064971 3.857827 1.462011 0
M  V30 38 H 1.199755 4.015571 3.639363 0
M  V30 39 H -1.030345 3.317276 3.876280 0
M  V30 40 H -0.096854 2.023090 4.749043 0
M  V30 41 H -0.455677 0.529680 3.085627 0
M  V30 42 H -2.007518 3.678774 1.747001 0
M  V30 43 H -4.347692 3.882555 1.224681 0
M  V30 44 H -2.574808 -0.386977 2.974427 0
M  V30 45 H 2.088047 -1.779425 0.732804 0
M  V30 END ATOM
M  V30 BEGIN BOND
M  V30 1 1 1 2
M  V30 2 1 2 3
M  V30 3 2 3 4
M  V30 4 1 4 5
M  V30 5 1 5 6
M  V30 6 2 5 7
M  V30 7 1 7 8
M  V30 8 2 8 9
M  V30 9 1 9 10
M  V30 10 1 10 11
M  V30 11 1 11 12
M  V30 12 2 12 13
M  V30 13 1 12 14
M  V30 14 1 14 15
M  V30 15 1 15 16
M  V30 16 1 16 17
M  V30 17 1 17 18
M  V30 18 1 18 19
M  V30 19 1 19 20
M  V30 20 2 20 21
M  V30 21 1 21 22
M  V30 22 2 22 23
M  V30 23 1 23 24
M  V30 24 1 23 25
M  V30 25 1 25 26
M  V30 26 2 25 27
M  V30 27 2 11 28
M  V30 28 1 7 2
M  V30 29 1 28 8
M  V30 30 1 19 15
M  V30 31 1 27 20
M  V30 32 1 1 29
M  V30 33 1 1 30
M  V30 34 1 1 31
M  V30 35 1 4 32
M  V30 36 1 9 33
M  V30 37 1 14 34
M  V30 38 1 15 35
M  V30 39 1 16 36
M  V30 40 1 16 37
M  V30 41 1 17 38
M  V30 42 1 18 39
M  V30 43 1 18 40
M  V30 44 1 19 41
M  V30 45 1 21 42
M  V30 46 1 22 43
M  V30 47 1 27 44
M  V30 48 1 28 45
M  V30 END BOND
M  V30 END CTAB
M  END
>  <Dataset>  (676) 
ChEMBL_Kinases

>  <Ligand_Instance>  (676) 
nan

>  <PDB_ID>  (676) 
nan

>  <Standardized_SMILES>  (676) 
Cn1ncc(Br)c1-c1coc(C(=O)NC2CNCC2c2ccc(F)c(F)c2)c1

>  <Name>  (676) 
nan

>  <Pocket>  (676) 
nan

>  <ATP_Site>  (676) 
nan

>  <Peripheral>  (676) 
nan

>  <Num_H_Atoms_ProtBoundConf>  (676) 
nan

>  <Num_Resolved_Atoms>  (676) 
nan

>  <Num_Not_Resolved_Atoms>  (676) 
nan

$$$$
CHEMBL4449189
     RDKit          3D

  0  0  0  0  0  0  0  0  0  0999 V3000
M  V30 BEGIN CTAB
M  V30 COUNTS 51 54 0 0 0
M  V30 BEGIN ATOM
M  V30 1 O -0.806610 -6.795506 -2.370456 0
M  V30 2 C 0.031990 -6.032608 -1.772050 0
M  V30 3 C -0.730070 -5.521502 -0.637815 0
M  V30 4 S 0.111282 -4.288361 0.362247 0
M  V30 5 C 0.314285 -2.736281 -0.537650 0
M  V30 6 N -0.126392 -2.586167 -1.820013 0
M  V30 7 C 0.058947 -1.397496 -2.414731 0
M  V30 8 C 0.670175 -0.331627 -1.789794 0
M  V30 9 C 1.111253 -0.496087 -0.494372 0
M  V30 10 N 1.770199 0.452396 0.369694 0
M  V30 11 C 0.939602 1.304437 1.176000 0
M  V30 12 C 1.443436 2.212279 2.091735 0
M  V30 13 C 0.644814 3.036712 2.871018 0
M  V30 14 C -0.721577 2.961523 2.740012 0
M  V30 15 N -1.584319 3.775403 3.519746 0
M  V30 16 C -1.168075 4.629694 4.632302 0
M  V30 17 C -1.793457 3.986805 5.858655 0
M  V30 18 O -3.143105 3.811706 5.745795 0
M  V30 19 C -3.620679 3.257386 4.595004 0
M  V30 20 C -3.020049 3.903018 3.347522 0
M  V30 21 C -1.273089 2.076268 1.844284 0
M  V30 22 C -0.441400 1.256450 1.071128 0
M  V30 23 N 0.907274 -1.712982 0.076876 0
M  V30 24 C 1.353662 -5.940470 -2.373445 0
M  V30 25 C 1.519436 -6.638383 -3.548134 0
M  V30 26 C 2.758585 -6.604079 -4.167229 0
M  V30 27 C 3.794710 -5.897974 -3.632302 0
M  V30 28 F 4.997648 -5.876096 -4.252620 0
M  V30 29 C 3.661768 -5.178485 -2.441243 0
M  V30 30 C 2.419834 -5.248144 -1.874813 0
M  V30 31 H -1.069953 -6.349324 0.055293 0
M  V30 32 H -1.694151 -5.049230 -0.976051 0
M  V30 33 H -0.269526 -1.217768 -3.432502 0
M  V30 34 H 0.862972 0.654439 -2.180914 0
M  V30 35 H 2.809350 0.609139 0.495366 0
M  V30 36 H 2.532366 2.258983 2.185754 0
M  V30 37 H 1.140675 3.692979 3.537630 0
M  V30 38 H -0.098475 4.702893 4.776549 0
M  V30 39 H -1.598893 5.641982 4.535792 0
M  V30 40 H -1.614854 4.673971 6.709564 0
M  V30 41 H -1.219303 3.054066 6.099543 0
M  V30 42 H -4.712076 3.510574 4.541790 0
M  V30 43 H -3.507546 2.163357 4.494472 0
M  V30 44 H -3.334485 4.973814 3.380171 0
M  V30 45 H -3.417380 3.397139 2.452613 0
M  V30 46 H -2.304902 1.927453 1.656045 0
M  V30 47 H -0.838169 0.546955 0.355772 0
M  V30 48 H 0.778864 -7.244066 -4.088427 0
M  V30 49 H 2.949272 -7.133439 -5.091929 0
M  V30 50 H 4.473907 -4.608742 -1.996750 0
M  V30 51 H 2.299928 -4.713707 -0.960471 0
M  V30 END ATOM
M  V30 BEGIN BOND
M  V30 1 2 1 2
M  V30 2 1 2 3
M  V30 3 1 3 4
M  V30 4 1 4 5
M  V30 5 2 5 6
M  V30 6 1 6 7
M  V30 7 2 7 8
M  V30 8 1 8 9
M  V30 9 1 9 10
M  V30 10 1 10 11
M  V30 11 2 11 12
M  V30 12 1 12 13
M  V30 13 2 13 14
M  V30 14 1 14 15
M  V30 15 1 15 16
M  V30 16 1 16 17
M  V30 17 1 17 18
M  V30 18 1 18 19
M  V30 19 1 19 20
M  V30 20 1 14 21
M  V30 21 2 21 22
M  V30 22 2 9 23
M  V30 23 1 2 24
M  V30 24 2 24 25
M  V30 25 1 25 26
M  V30 26 2 26 27
M  V30 27 1 27 28
M  V30 28 1 27 29
M  V30 29 2 29 30
M  V30 30 1 23 5
M  V30 31 1 30 24
M  V30 32 1 22 11
M  V30 33 1 20 15
M  V30 34 1 3 31
M  V30 35 1 3 32
M  V30 36 1 7 33
M  V30 37 1 8 34
M  V30 38 1 10 35
M  V30 39 1 12 36
M  V30 40 1 13 37
M  V30 41 1 16 38
M  V30 42 1 16 39
M  V30 43 1 17 40
M  V30 44 1 17 41
M  V30 45 1 19 42
M  V30 46 1 19 43
M  V30 47 1 20 44
M  V30 48 1 20 45
M  V30 49 1 21 46
M  V30 50 1 22 47
M  V30 51 1 25 48
M  V30 52 1 26 49
M  V30 53 1 29 50
M  V30 54 1 30 51
M  V30 END BOND
M  V30 END CTAB
M  END
>  <Dataset>  (677) 
ChEMBL_Kinases

>  <Ligand_Instance>  (677) 
nan

>  <PDB_ID>  (677) 
nan

>  <Standardized_SMILES>  (677) 
O=C(CSc1nccc(Nc2ccc(N3CCOCC3)cc2)n1)c1ccc(F)cc1

>  <Name>  (677) 
nan

>  <Pocket>  (677) 
nan

>  <ATP_Site>  (677) 
nan

>  <Peripheral>  (677) 
nan

>  <Num_H_Atoms_ProtBoundConf>  (677) 
nan

>  <Num_Resolved_Atoms>  (677) 
nan

>  <Num_Not_Resolved_Atoms>  (677) 
nan

$$$$
CHEMBL4449182
     RDKit          3D

  0  0  0  0  0  0  0  0  0  0999 V3000
M  V30 BEGIN CTAB
M  V30 COUNTS 43 46 0 0 0
M  V30 BEGIN ATOM
M  V30 1 N -0.516670 -6.766734 1.141099 0
M  V30 2 C -0.908383 -5.808984 0.172506 0
M  V30 3 O -1.485990 -6.176356 -0.880118 0
M  V30 4 C -0.645842 -4.384830 0.385583 0
M  V30 5 C -0.014638 -3.980478 1.534593 0
M  V30 6 C 0.223438 -2.645537 1.718774 0
M  V30 7 C -0.179594 -1.774403 0.747106 0
M  V30 8 C -0.812799 -2.109099 -0.420475 0
M  V30 9 N -1.234246 -1.224166 -1.430801 0
M  V30 10 C -1.108962 0.185347 -1.480805 0
M  V30 11 N -1.562264 0.893172 -2.516197 0
M  V30 12 C -1.472356 2.211689 -2.616163 0
M  V30 13 C -0.894745 2.960151 -1.642247 0
M  V30 14 C -0.412188 2.269083 -0.553115 0
M  V30 15 N 0.213833 2.943976 0.531301 0
M  V30 16 C 0.781250 2.450973 1.743752 0
M  V30 17 C 0.271886 2.873943 2.969154 0
M  V30 18 C 0.852051 2.370755 4.119261 0
M  V30 19 C 1.898191 1.481432 4.053181 0
M  V30 20 C 2.397315 1.067058 2.841203 0
M  V30 21 C 1.832745 1.557044 1.683452 0
M  V30 22 N 2.536567 0.967427 0.612156 0
M  V30 23 N 3.634207 0.204645 1.071227 0
M  V30 24 C 3.509338 0.124081 2.494080 0
M  V30 25 N -0.546039 0.951144 -0.539273 0
M  V30 26 C -1.023768 -3.456806 -0.548970 0
M  V30 27 H 0.451728 -6.640666 1.477905 0
M  V30 28 H -0.939655 -7.580634 1.620106 0
M  V30 29 H 0.268757 -4.737627 2.248329 0
M  V30 30 H 0.724564 -2.320612 2.630163 0
M  V30 31 H 0.037878 -0.736896 0.953683 0
M  V30 32 H -1.706503 -1.657013 -2.264618 0
M  V30 33 H -1.865438 2.718607 -3.491613 0
M  V30 34 H -0.818334 4.026269 -1.715797 0
M  V30 35 H 0.328912 3.964154 0.544449 0
M  V30 36 H -0.552035 3.575148 2.926280 0
M  V30 37 H 0.397508 2.749654 5.039426 0
M  V30 38 H 2.291361 1.138927 5.010367 0
M  V30 39 H 2.312908 1.056463 -0.383789 0
M  V30 40 H 3.551661 -0.752867 0.679925 0
M  V30 41 H 4.432904 0.401599 3.026190 0
M  V30 42 H 3.248049 -0.914538 2.836304 0
M  V30 43 H -1.521639 -3.853875 -1.438782 0
M  V30 END ATOM
M  V30 BEGIN BOND
M  V30 1 1 1 2
M  V30 2 2 2 3
M  V30 3 1 2 4
M  V30 4 2 4 5
M  V30 5 1 5 6
M  V30 6 2 6 7
M  V30 7 1 7 8
M  V30 8 1 8 9
M  V30 9 1 9 10
M  V30 10 2 10 11
M  V30 11 1 11 12
M  V30 12 2 12 13
M  V30 13 1 13 14
M  V30 14 1 14 15
M  V30 15 1 15 16
M  V30 16 2 16 17
M  V30 17 1 17 18
M  V30 18 2 18 19
M  V30 19 1 19 20
M  V30 20 2 20 21
M  V30 21 1 21 22
M  V30 22 1 22 23
M  V30 23 1 23 24
M  V30 24 2 14 25
M  V30 25 2 8 26
M  V30 26 1 26 4
M  V30 27 1 25 10
M  V30 28 1 21 16
M  V30 29 1 24 20
M  V30 30 1 1 27
M  V30 31 1 1 28
M  V30 32 1 5 29
M  V30 33 1 6 30
M  V30 34 1 7 31
M  V30 35 1 9 32
M  V30 36 1 12 33
M  V30 37 1 13 34
M  V30 38 1 15 35
M  V30 39 1 17 36
M  V30 40 1 18 37
M  V30 41 1 19 38
M  V30 42 1 22 39
M  V30 43 1 23 40
M  V30 44 1 24 41
M  V30 45 1 24 42
M  V30 46 1 26 43
M  V30 END BOND
M  V30 END CTAB
M  END
>  <Dataset>  (678) 
ChEMBL_Kinases

>  <Ligand_Instance>  (678) 
nan

>  <PDB_ID>  (678) 
nan

>  <Standardized_SMILES>  (678) 
NC(=O)c1cccc(Nc2nccc(Nc3cccc4c3NNC4)n2)c1

>  <Name>  (678) 
nan

>  <Pocket>  (678) 
nan

>  <ATP_Site>  (678) 
nan

>  <Peripheral>  (678) 
nan

>  <Num_H_Atoms_ProtBoundConf>  (678) 
nan

>  <Num_Resolved_Atoms>  (678) 
nan

>  <Num_Not_Resolved_Atoms>  (678) 
nan

$$$$
CHEMBL4449539
     RDKit          3D

  0  0  0  0  0  0  0  0  0  0999 V3000
M  V30 BEGIN CTAB
M  V30 COUNTS 39 43 0 0 0
M  V30 BEGIN ATOM
M  V30 1 O -3.289697 -2.807236 -2.711297 0
M  V30 2 C -2.360901 -3.320499 -2.028328 0
M  V30 3 N -1.968335 -4.677277 -2.047567 0
M  V30 4 C -0.874745 -4.937372 -1.150039 0
M  V30 5 C -0.259524 -6.149825 -0.941111 0
M  V30 6 C 0.777727 -6.067374 -0.009737 0
M  V30 7 C 1.134588 -4.879874 0.625602 0
M  V30 8 C 0.429985 -3.746825 0.316013 0
M  V30 9 C -0.602993 -3.718298 -0.580017 0
M  V30 10 C -1.478348 -2.673153 -1.071717 0
M  V30 11 C -1.531887 -1.395922 -0.792770 0
M  V30 12 C -0.870367 -0.425265 0.054224 0
M  V30 13 C -0.359246 0.769071 -0.452065 0
M  V30 14 C 0.251060 1.714617 0.322676 0
M  V30 15 C 0.369423 1.487230 1.653144 0
M  V30 16 C 0.945220 2.305145 2.593545 0
M  V30 17 C 1.583648 3.598198 2.519471 0
M  V30 18 C 1.884664 4.515762 1.550774 0
M  V30 19 C 2.534615 5.643333 1.998624 0
M  V30 20 C 2.633451 5.385876 3.346081 0
M  V30 21 N 2.081421 4.202097 3.640007 0
M  V30 22 N 0.802650 1.620004 3.753660 0
M  V30 23 N 0.187721 0.471494 3.541186 0
M  V30 24 C -0.103937 0.341882 2.241500 0
M  V30 25 C -0.708612 -0.574845 1.415619 0
M  V30 26 H -2.449711 -5.380125 -2.662443 0
M  V30 27 H -0.552734 -7.048748 -1.441522 0
M  V30 28 H 1.332663 -6.972487 0.231871 0
M  V30 29 H 1.941514 -4.861724 1.337586 0
M  V30 30 H 0.726301 -2.846738 0.805526 0
M  V30 31 H -2.294617 -0.789873 -1.304190 0
M  V30 32 H -0.489032 0.880962 -1.525250 0
M  V30 33 H 0.587385 2.565172 -0.205868 0
M  V30 34 H 1.643766 4.386107 0.515427 0
M  V30 35 H 2.860226 6.480752 1.400372 0
M  V30 36 H 3.113972 6.104539 4.028053 0
M  V30 37 H 2.096851 3.899496 4.636509 0
M  V30 38 H -0.043509 -0.238915 4.266674 0
M  V30 39 H -1.093693 -1.500168 1.875897 0
M  V30 END ATOM
M  V30 BEGIN BOND
M  V30 1 2 1 2
M  V30 2 1 2 3
M  V30 3 1 3 4
M  V30 4 2 4 5
M  V30 5 1 5 6
M  V30 6 2 6 7
M  V30 7 1 7 8
M  V30 8 2 8 9
M  V30 9 1 9 10
M  V30 10 2 10 11 CFG=2
M  V30 11 1 11 12
M  V30 12 2 12 13
M  V30 13 1 13 14
M  V30 14 2 14 15
M  V30 15 1 15 16
M  V30 16 1 16 17
M  V30 17 2 17 18
M  V30 18 1 18 19
M  V30 19 2 19 20
M  V30 20 1 20 21
M  V30 21 2 16 22
M  V30 22 1 22 23
M  V30 23 1 23 24
M  V30 24 2 24 25
M  V30 25 1 10 2
M  V30 26 1 25 12
M  V30 27 1 9 4
M  V30 28 1 24 15
M  V30 29 1 21 17
M  V30 30 1 3 26
M  V30 31 1 5 27
M  V30 32 1 6 28
M  V30 33 1 7 29
M  V30 34 1 8 30
M  V30 35 1 11 31
M  V30 36 1 13 32
M  V30 37 1 14 33
M  V30 38 1 18 34
M  V30 39 1 19 35
M  V30 40 1 20 36
M  V30 41 1 21 37
M  V30 42 1 23 38
M  V30 43 1 25 39
M  V30 END BOND
M  V30 END CTAB
M  END
>  <Dataset>  (679) 
ChEMBL_Kinases

>  <Ligand_Instance>  (679) 
nan

>  <PDB_ID>  (679) 
nan

>  <Standardized_SMILES>  (679) 
O=C1Nc2ccccc2C1=Cc1ccc2c(-c3ccc[nH]3)n[nH]c2c1

>  <Name>  (679) 
nan

>  <Pocket>  (679) 
nan

>  <ATP_Site>  (679) 
nan

>  <Peripheral>  (679) 
nan

>  <Num_H_Atoms_ProtBoundConf>  (679) 
nan

>  <Num_Resolved_Atoms>  (679) 
nan

>  <Num_Not_Resolved_Atoms>  (679) 
nan

$$$$
CHEMBL4452853
     RDKit          3D

  0  0  0  0  0  0  0  0  0  0999 V3000
M  V30 BEGIN CTAB
M  V30 COUNTS 53 57 0 0 0
M  V30 BEGIN ATOM
M  V30 1 C 0.869031 -1.569358 4.256995 0
M  V30 2 C 1.784609 -0.547105 3.666285 0
M  V30 3 C 3.047337 -0.304591 4.175238 0
M  V30 4 N 3.832437 0.635554 3.597414 0
M  V30 5 C 3.378863 1.334633 2.523904 0
M  V30 6 N 4.137489 2.338097 1.860791 0
M  V30 7 C 5.059005 2.283186 0.779052 0
M  V30 8 C 5.702836 3.414339 0.272912 0
M  V30 9 C 6.479605 2.887161 -0.740551 0
M  V30 10 N 6.291752 1.558826 -0.805703 0
M  V30 11 N 5.418740 1.169523 0.124447 0
M  V30 12 C 4.991068 -0.184073 0.332606 0
M  V30 13 N 2.146807 1.068785 2.060424 0
M  V30 14 C 1.310686 0.154587 2.577209 0
M  V30 15 C -0.000143 -0.013140 1.954250 0
M  V30 16 C -1.294178 -0.137696 2.422716 0
M  V30 17 N -2.137135 -0.269577 1.381444 0
M  V30 18 C -1.407395 -0.231540 0.261824 0
M  V30 19 N -0.111994 -0.076630 0.595690 0
M  V30 20 C -2.044936 -0.351231 -1.049203 0
M  V30 21 O -1.357990 -0.315952 -2.117785 0
M  V30 22 N -3.474255 -0.510854 -1.108054 0
M  V30 23 C -4.076080 -1.128396 -2.276628 0
M  V30 24 C -4.121984 -2.595775 -1.974769 0
M  V30 25 C -5.188917 -3.214551 -1.350719 0
M  V30 26 C -5.199932 -4.567706 -1.087050 0
M  V30 27 C -4.115925 -5.326496 -1.456154 0
M  V30 28 C -3.014811 -4.783439 -2.081970 0
M  V30 29 Cl -1.601512 -5.697059 -2.577633 0
M  V30 30 C -3.043025 -3.408393 -2.331219 0
M  V30 31 C -4.183548 -0.019675 0.048164 0
M  V30 32 C -3.554319 -0.425954 1.347801 0
M  V30 33 H 1.436268 -2.477886 4.581397 0
M  V30 34 H 0.420816 -1.113618 5.156105 0
M  V30 35 H 0.139836 -1.915777 3.499333 0
M  V30 36 H 3.397259 -0.867848 5.030368 0
M  V30 37 H 3.886411 3.220384 2.343104 0
M  V30 38 H 5.575137 4.422563 0.636187 0
M  V30 39 H 7.135684 3.506006 -1.370071 0
M  V30 40 H 5.327704 -0.832510 -0.512272 0
M  V30 41 H 5.429559 -0.612540 1.258069 0
M  V30 42 H 3.871675 -0.287888 0.325633 0
M  V30 43 H -1.478948 -0.117551 3.490670 0
M  V30 44 H -3.366834 -0.988773 -3.117452 0
M  V30 45 H -5.078242 -0.722228 -2.509591 0
M  V30 46 H -6.019911 -2.555024 -1.082798 0
M  V30 47 H -6.047387 -5.025343 -0.597547 0
M  V30 48 H -4.054727 -6.400071 -1.280157 0
M  V30 49 H -2.185563 -2.967113 -2.822392 0
M  V30 50 H -4.184274 1.092301 -0.020451 0
M  V30 51 H -5.245733 -0.336352 0.031149 0
M  V30 52 H -3.914726 -1.445585 1.597163 0
M  V30 53 H -3.980124 0.245371 2.149431 0
M  V30 END ATOM
M  V30 BEGIN BOND
M  V30 1 1 1 2
M  V30 2 2 2 3
M  V30 3 1 3 4
M  V30 4 2 4 5
M  V30 5 1 5 6
M  V30 6 1 6 7
M  V30 7 2 7 8
M  V30 8 1 8 9
M  V30 9 2 9 10
M  V30 10 1 10 11
M  V30 11 1 11 12
M  V30 12 1 5 13
M  V30 13 2 13 14
M  V30 14 1 14 15
M  V30 15 2 15 16
M  V30 16 1 16 17
M  V30 17 1 17 18
M  V30 18 2 18 19
M  V30 19 1 18 20
M  V30 20 2 20 21
M  V30 21 1 20 22
M  V30 22 1 22 23
M  V30 23 1 23 24
M  V30 24 2 24 25
M  V30 25 1 25 26
M  V30 26 2 26 27
M  V30 27 1 27 28
M  V30 28 1 28 29
M  V30 29 2 28 30
M  V30 30 1 22 31
M  V30 31 1 31 32
M  V30 32 1 14 2
M  V30 33 1 19 15
M  V30 34 1 30 24
M  V30 35 1 11 7
M  V30 36 1 32 17
M  V30 37 1 1 33
M  V30 38 1 1 34
M  V30 39 1 1 35
M  V30 40 1 3 36
M  V30 41 1 6 37
M  V30 42 1 8 38
M  V30 43 1 9 39
M  V30 44 1 12 40
M  V30 45 1 12 41
M  V30 46 1 12 42
M  V30 47 1 16 43
M  V30 48 1 23 44
M  V30 49 1 23 45
M  V30 50 1 25 46
M  V30 51 1 26 47
M  V30 52 1 27 48
M  V30 53 1 30 49
M  V30 54 1 31 50
M  V30 55 1 31 51
M  V30 56 1 32 52
M  V30 57 1 32 53
M  V30 END BOND
M  V30 END CTAB
M  END
>  <Dataset>  (680) 
ChEMBL_Kinases

>  <Ligand_Instance>  (680) 
nan

>  <PDB_ID>  (680) 
nan

>  <Standardized_SMILES>  (680) 
Cc1cnc(Nc2ccnn2C)nc1-c1cn2c(n1)C(=O)N(Cc1cccc(Cl)c1)CC2

>  <Name>  (680) 
nan

>  <Pocket>  (680) 
nan

>  <ATP_Site>  (680) 
nan

>  <Peripheral>  (680) 
nan

>  <Num_H_Atoms_ProtBoundConf>  (680) 
nan

>  <Num_Resolved_Atoms>  (680) 
nan

>  <Num_Not_Resolved_Atoms>  (680) 
nan

$$$$
CHEMBL4747568
     RDKit          3D

  0  0  0  0  0  0  0  0  0  0999 V3000
M  V30 BEGIN CTAB
M  V30 COUNTS 47 50 0 0 0
M  V30 BEGIN ATOM
M  V30 1 O 3.860397 -0.395339 4.022681 0
M  V30 2 C 3.164071 0.307091 3.239689 0
M  V30 3 N 3.487687 1.570050 2.775381 0
M  V30 4 C 2.644909 2.127337 1.977826 0
M  V30 5 N 2.850680 3.428092 1.425356 0
M  V30 6 C 4.134885 3.922872 1.003969 0
M  V30 7 C 4.605435 3.081153 -0.132343 0
M  V30 8 C 5.385200 1.935929 0.004740 0
M  V30 9 C 5.731283 1.275510 -1.166850 0
M  V30 10 C 5.369322 1.657148 -2.444188 0
M  V30 11 O 5.800081 0.883878 -3.513052 0
M  V30 12 C 4.596302 2.796002 -2.547337 0
M  V30 13 C 4.233039 3.478308 -1.407351 0
M  V30 14 S 1.231580 1.051575 1.674728 0
M  V30 15 C 1.897530 -0.237830 2.764463 0
M  V30 16 C 1.219803 -1.346035 2.967999 0
M  V30 17 C -0.061890 -1.624880 2.331828 0
M  V30 18 C -0.120934 -1.281758 0.973839 0
M  V30 19 C -1.409954 -1.612510 0.535462 0
M  V30 20 C -2.045446 -2.134121 1.658182 0
M  V30 21 C -3.425960 -2.609898 1.644209 0
M  V30 22 C -4.198692 -2.558233 0.498325 0
M  V30 23 C -5.506221 -2.989988 0.425050 0
M  V30 24 C -6.110909 -3.514304 1.557912 0
M  V30 25 O -7.426948 -3.937522 1.446032 0
M  V30 26 C -7.833775 -5.237162 1.086711 0
M  V30 27 F -7.390650 -5.623229 -0.163172 0
M  V30 28 F -9.226513 -5.220955 1.000417 0
M  V30 29 F -7.410449 -6.189879 2.009740 0
M  V30 30 C -5.354326 -3.576905 2.721674 0
M  V30 31 C -4.041114 -3.133601 2.760229 0
M  V30 32 O -1.208445 -2.112855 2.664404 0
M  V30 33 H 1.985145 4.042930 1.332015 0
M  V30 34 H 4.008592 4.951390 0.627871 0
M  V30 35 H 4.888459 3.906174 1.822412 0
M  V30 36 H 5.666365 1.637588 0.985211 0
M  V30 37 H 6.339093 0.388797 -1.031309 0
M  V30 38 H 5.200460 0.206340 -3.988083 0
M  V30 39 H 4.317190 3.083955 -3.549921 0
M  V30 40 H 3.625978 4.356233 -1.615237 0
M  V30 41 H 1.707952 -2.045151 3.663243 0
M  V30 42 H 0.522395 -0.852680 0.191155 0
M  V30 43 H -1.879960 -1.512585 -0.445127 0
M  V30 44 H -3.806127 -2.164544 -0.428950 0
M  V30 45 H -6.075915 -2.931217 -0.491728 0
M  V30 46 H -5.863956 -3.986995 3.559153 0
M  V30 47 H -3.485560 -3.202447 3.694337 0
M  V30 END ATOM
M  V30 BEGIN BOND
M  V30 1 2 1 2
M  V30 2 1 2 3
M  V30 3 2 3 4
M  V30 4 1 4 5
M  V30 5 1 5 6
M  V30 6 1 6 7
M  V30 7 2 7 8
M  V30 8 1 8 9
M  V30 9 2 9 10
M  V30 10 1 10 11
M  V30 11 1 10 12
M  V30 12 2 12 13
M  V30 13 1 4 14
M  V30 14 1 14 15
M  V30 15 2 15 16
M  V30 16 1 16 17
M  V30 17 2 17 18
M  V30 18 1 18 19
M  V30 19 2 19 20
M  V30 20 1 20 21
M  V30 21 2 21 22
M  V30 22 1 22 23
M  V30 23 2 23 24
M  V30 24 1 24 25
M  V30 25 1 25 26
M  V30 26 1 26 27
M  V30 27 1 26 28
M  V30 28 1 26 29
M  V30 29 1 24 30
M  V30 30 2 30 31
M  V30 31 1 20 32
M  V30 32 1 15 2
M  V30 33 1 32 17
M  V30 34 1 13 7
M  V30 35 1 31 21
M  V30 36 1 5 33
M  V30 37 1 6 34
M  V30 38 1 6 35
M  V30 39 1 8 36
M  V30 40 1 9 37
M  V30 41 1 11 38
M  V30 42 1 12 39
M  V30 43 1 13 40
M  V30 44 1 16 41
M  V30 45 1 18 42
M  V30 46 1 19 43
M  V30 47 1 22 44
M  V30 48 1 23 45
M  V30 49 1 30 46
M  V30 50 1 31 47
M  V30 END BOND
M  V30 END CTAB
M  END
>  <Dataset>  (681) 
ChEMBL_Kinases

>  <Ligand_Instance>  (681) 
nan

>  <PDB_ID>  (681) 
nan

>  <Standardized_SMILES>  (681) 
O=C1N=C(NCc2ccc(O)cc2)S/C1=C\c1ccc(-c2ccc(OC(F)(F)F)cc2)o1

>  <Name>  (681) 
nan

>  <Pocket>  (681) 
nan

>  <ATP_Site>  (681) 
nan

>  <Peripheral>  (681) 
nan

>  <Num_H_Atoms_ProtBoundConf>  (681) 
nan

>  <Num_Resolved_Atoms>  (681) 
nan

>  <Num_Not_Resolved_Atoms>  (681) 
nan

$$$$
CHEMBL4452831
     RDKit          3D

  0  0  0  0  0  0  0  0  0  0999 V3000
M  V30 BEGIN CTAB
M  V30 COUNTS 42 44 0 0 0
M  V30 BEGIN ATOM
M  V30 1 C 2.455927 -5.964968 0.878409 0
M  V30 2 O 3.102560 -5.126052 -0.057841 0
M  V30 3 C 2.359485 -4.339967 -0.936490 0
M  V30 4 C 0.996622 -4.289919 -0.994656 0
M  V30 5 C 0.458857 -3.459222 -1.921571 0
M  V30 6 C 1.109597 -2.652923 -2.819189 0
M  V30 7 C 0.558204 -1.748485 -3.823235 0
M  V30 8 N 0.349966 -0.399886 -3.350089 0
M  V30 9 C 0.382806 -0.052683 -1.970942 0
M  V30 10 O 0.594192 -0.860222 -1.017109 0
M  V30 11 N 0.168655 1.283268 -1.585534 0
M  V30 12 C 0.192377 1.664885 -0.138245 0
M  V30 13 N 0.681032 2.019987 0.835849 0
M  V30 14 C 0.096118 2.181749 2.005944 0
M  V30 15 C 0.749697 2.615306 3.159972 0
M  V30 16 C 0.060409 2.750876 4.329391 0
M  V30 17 C -1.271836 2.484716 4.464149 0
M  V30 18 C -2.168349 2.566143 5.611437 0
M  V30 19 C -1.363944 3.024778 6.802202 0
M  V30 20 O -3.394594 2.312525 5.662623 0
M  V30 21 C -1.931014 2.056834 3.335377 0
M  V30 22 C -1.208626 1.920297 2.134107 0
M  V30 23 S -1.614669 1.411305 0.470496 0
M  V30 24 C 2.500824 -2.734576 -2.725576 0
M  V30 25 C 3.128852 -3.566998 -1.796334 0
M  V30 26 H 1.520482 -5.513503 1.267109 0
M  V30 27 H 2.162917 -6.885807 0.318862 0
M  V30 28 H 3.175115 -6.199629 1.690509 0
M  V30 29 H 0.428120 -4.892263 -0.325112 0
M  V30 30 H -0.638335 -3.406834 -1.983229 0
M  V30 31 H -0.411971 -2.138746 -4.205901 0
M  V30 32 H 1.220198 -1.688510 -4.716660 0
M  V30 33 H 0.168924 0.338864 -4.065296 0
M  V30 34 H -0.007652 1.978583 -2.341668 0
M  V30 35 H 1.807681 2.886741 3.289542 0
M  V30 36 H 0.503976 3.083555 5.270717 0
M  V30 37 H -0.588898 2.263779 7.058416 0
M  V30 38 H -2.021900 3.258084 7.662582 0
M  V30 39 H -0.840599 3.982224 6.536574 0
M  V30 40 H -2.973035 1.780780 3.169924 0
M  V30 41 H 3.144260 -2.153118 -3.372996 0
M  V30 42 H 4.222460 -3.583512 -1.774808 0
M  V30 END ATOM
M  V30 BEGIN BOND
M  V30 1 1 1 2
M  V30 2 1 2 3
M  V30 3 2 3 4
M  V30 4 1 4 5
M  V30 5 2 5 6
M  V30 6 1 6 7
M  V30 7 1 7 8
M  V30 8 1 8 9
M  V30 9 2 9 10
M  V30 10 1 9 11
M  V30 11 1 11 12
M  V30 12 2 12 13
M  V30 13 1 13 14
M  V30 14 2 14 15
M  V30 15 1 15 16
M  V30 16 2 16 17
M  V30 17 1 17 18
M  V30 18 1 18 19
M  V30 19 2 18 20
M  V30 20 1 17 21
M  V30 21 2 21 22
M  V30 22 1 22 23
M  V30 23 1 6 24
M  V30 24 2 24 25
M  V30 25 1 25 3
M  V30 26 1 23 12
M  V30 27 1 22 14
M  V30 28 1 1 26
M  V30 29 1 1 27
M  V30 30 1 1 28
M  V30 31 1 4 29
M  V30 32 1 5 30
M  V30 33 1 7 31
M  V30 34 1 7 32
M  V30 35 1 8 33
M  V30 36 1 11 34
M  V30 37 1 15 35
M  V30 38 1 16 36
M  V30 39 1 19 37
M  V30 40 1 19 38
M  V30 41 1 19 39
M  V30 42 1 21 40
M  V30 43 1 24 41
M  V30 44 1 25 42
M  V30 END BOND
M  V30 END CTAB
M  END
>  <Dataset>  (682) 
ChEMBL_Kinases

>  <Ligand_Instance>  (682) 
nan

>  <PDB_ID>  (682) 
nan

>  <Standardized_SMILES>  (682) 
COc1ccc(CNC(=O)Nc2nc3ccc(C(C)=O)cc3s2)cc1

>  <Name>  (682) 
nan

>  <Pocket>  (682) 
nan

>  <ATP_Site>  (682) 
nan

>  <Peripheral>  (682) 
nan

>  <Num_H_Atoms_ProtBoundConf>  (682) 
nan

>  <Num_Resolved_Atoms>  (682) 
nan

>  <Num_Not_Resolved_Atoms>  (682) 
nan

$$$$
CHEMBL4452818
     RDKit          3D

  0  0  0  0  0  0  0  0  0  0999 V3000
M  V30 BEGIN CTAB
M  V30 COUNTS 47 51 0 0 0
M  V30 BEGIN ATOM
M  V30 1 O 1.646614 -1.525700 1.437251 0
M  V30 2 C 2.310720 -0.473761 1.591919 0
M  V30 3 N 3.431636 -0.610355 0.731480 0
M  V30 4 C 3.676866 -1.757781 -0.111651 0
M  V30 5 C 4.254182 -1.414356 -1.524518 0
M  V30 6 C 5.075596 -2.114363 -0.505328 0
M  V30 7 C 2.111561 0.700996 2.419234 0
M  V30 8 C 3.091781 1.660722 2.429233 0
M  V30 9 N 2.989444 2.753329 3.201835 0
M  V30 10 C 1.943709 2.993760 4.011262 0
M  V30 11 C 0.974813 2.007649 3.976124 0
M  V30 12 C 0.991347 0.835963 3.204800 0
M  V30 13 N -0.058734 -0.077467 3.274101 0
M  V30 14 C -1.048482 -0.596003 2.415586 0
M  V30 15 C -1.211531 -0.201985 1.106964 0
M  V30 16 C -2.151853 -0.673503 0.238755 0
M  V30 17 C -2.359427 -0.290162 -1.139202 0
M  V30 18 C -3.385264 -0.909633 -1.830892 0
M  V30 19 C -3.679598 -0.627638 -3.148147 0
M  V30 20 C -2.949141 0.303727 -3.848710 0
M  V30 21 F -3.200711 0.613402 -5.141636 0
M  V30 22 C -1.918075 0.943917 -3.196225 0
M  V30 23 C -1.672453 0.619859 -1.881039 0
M  V30 24 F -0.650548 1.283640 -1.305580 0
M  V30 25 N -2.961041 -1.604354 0.769723 0
M  V30 26 C -2.857536 -2.033362 2.035863 0
M  V30 27 N -3.601459 -2.952057 2.677131 0
M  V30 28 C -3.148256 -3.070332 3.936623 0
M  V30 29 C -2.080672 -2.204171 4.117098 0
M  V30 30 C -1.906417 -1.554610 2.909617 0
M  V30 31 H 4.189330 0.132575 0.639459 0
M  V30 32 H 2.981425 -2.617110 -0.121991 0
M  V30 33 H 3.851420 -1.969930 -2.380359 0
M  V30 34 H 4.458235 -0.356271 -1.736100 0
M  V30 35 H 5.845206 -1.478479 0.003879 0
M  V30 36 H 5.396314 -3.164385 -0.603238 0
M  V30 37 H 4.011200 1.685090 1.871357 0
M  V30 38 H 1.795520 3.841709 4.654527 0
M  V30 39 H 0.103290 2.139991 4.606563 0
M  V30 40 H -0.010877 -0.407921 4.262441 0
M  V30 41 H -0.519939 0.545508 0.770180 0
M  V30 42 H -4.026788 -1.664030 -1.370363 0
M  V30 43 H -4.479174 -1.121748 -3.659840 0
M  V30 44 H -1.337391 1.672719 -3.724916 0
M  V30 45 H -4.409987 -3.514812 2.313523 0
M  V30 46 H -3.460571 -3.684345 4.761607 0
M  V30 47 H -1.454196 -2.008203 4.983194 0
M  V30 END ATOM
M  V30 BEGIN BOND
M  V30 1 2 1 2
M  V30 2 1 2 3
M  V30 3 1 3 4
M  V30 4 1 4 5
M  V30 5 1 5 6
M  V30 6 1 2 7
M  V30 7 2 7 8
M  V30 8 1 8 9
M  V30 9 2 9 10
M  V30 10 1 10 11
M  V30 11 2 11 12
M  V30 12 1 12 13
M  V30 13 1 13 14
M  V30 14 2 14 15
M  V30 15 1 15 16
M  V30 16 1 16 17
M  V30 17 2 17 18
M  V30 18 1 18 19
M  V30 19 2 19 20
M  V30 20 1 20 21
M  V30 21 1 20 22
M  V30 22 2 22 23
M  V30 23 1 23 24
M  V30 24 2 16 25
M  V30 25 1 25 26
M  V30 26 1 26 27
M  V30 27 1 27 28
M  V30 28 2 28 29
M  V30 29 1 29 30
M  V30 30 1 6 4
M  V30 31 1 12 7
M  V30 32 1 30 14
M  V30 33 1 23 17
M  V30 34 2 30 26
M  V30 35 1 3 31
M  V30 36 1 4 32
M  V30 37 1 5 33
M  V30 38 1 5 34
M  V30 39 1 6 35
M  V30 40 1 6 36
M  V30 41 1 8 37
M  V30 42 1 10 38
M  V30 43 1 11 39
M  V30 44 1 13 40
M  V30 45 1 15 41
M  V30 46 1 18 42
M  V30 47 1 19 43
M  V30 48 1 22 44
M  V30 49 1 27 45
M  V30 50 1 28 46
M  V30 51 1 29 47
M  V30 END BOND
M  V30 END CTAB
M  END
>  <Dataset>  (683) 
ChEMBL_Kinases

>  <Ligand_Instance>  (683) 
nan

>  <PDB_ID>  (683) 
nan

>  <Standardized_SMILES>  (683) 
O=C(NC1CC1)c1cnccc1Nc1cc(-c2ccc(F)cc2F)nc2[nH]ccc12

>  <Name>  (683) 
nan

>  <Pocket>  (683) 
nan

>  <ATP_Site>  (683) 
nan

>  <Peripheral>  (683) 
nan

>  <Num_H_Atoms_ProtBoundConf>  (683) 
nan

>  <Num_Resolved_Atoms>  (683) 
nan

>  <Num_Not_Resolved_Atoms>  (683) 
nan

$$$$
CHEMBL4452797
     RDKit          3D

  0  0  0  0  0  0  0  0  0  0999 V3000
M  V30 BEGIN CTAB
M  V30 COUNTS 43 45 0 0 0
M  V30 BEGIN ATOM
M  V30 1 O 1.827513 1.373468 -0.705134 0
M  V30 2 C 1.063239 0.692922 0.043259 0
M  V30 3 N 1.291238 -0.675386 -0.151180 0
M  V30 4 C 2.321240 -0.897889 -1.138877 0
M  V30 5 C 2.028319 -1.026158 -2.485270 0
M  V30 6 C 3.071405 -1.237651 -3.368143 0
M  V30 7 C 4.397929 -1.325346 -2.950900 0
M  V30 8 C 4.603316 -1.185768 -1.585117 0
M  V30 9 F 5.902562 -1.272239 -1.181432 0
M  V30 10 C 3.611287 -0.973081 -0.647368 0
M  V30 11 C 0.136964 1.383733 0.922487 0
M  V30 12 C 0.125529 2.762245 0.908227 0
M  V30 13 C -0.707417 3.500892 1.696727 0
M  V30 14 C -0.664966 4.984004 1.628676 0
M  V30 15 F -0.906444 5.582460 2.851717 0
M  V30 16 F 0.615933 5.340557 1.207144 0
M  V30 17 F -1.534384 5.464586 0.655550 0
M  V30 18 C -1.598839 2.909698 2.565911 0
M  V30 19 C -1.612753 1.530866 2.604582 0
M  V30 20 C -0.758106 0.815157 1.794767 0
M  V30 21 O -0.823136 -0.543779 1.882295 0
M  V30 22 C -1.648518 -1.319428 2.691260 0
M  V30 23 C -1.362962 -2.750669 2.442545 0
M  V30 24 C -2.005638 -3.525869 1.485518 0
M  V30 25 C -1.651668 -4.849468 1.348225 0
M  V30 26 C -0.682120 -5.458223 2.117105 0
M  V30 27 F -0.356467 -6.765504 1.956799 0
M  V30 28 C -0.042784 -4.694850 3.066197 0
M  V30 29 C -0.392551 -3.371325 3.207795 0
M  V30 30 H 0.713246 -1.329009 0.417351 0
M  V30 31 H 0.998925 -0.959585 -2.821608 0
M  V30 32 H 2.839776 -1.337288 -4.417617 0
M  V30 33 H 5.225244 -1.490390 -3.628151 0
M  V30 34 H 3.890304 -0.880001 0.387857 0
M  V30 35 H 0.798638 3.299737 0.250237 0
M  V30 36 H -2.234167 3.545840 3.166009 0
M  V30 37 H -2.294172 1.040671 3.269697 0
M  V30 38 H -1.428682 -1.084721 3.758671 0
M  V30 39 H -2.731091 -1.185085 2.501934 0
M  V30 40 H -2.765169 -3.055285 0.880798 0
M  V30 41 H -2.129745 -5.476801 0.617074 0
M  V30 42 H 0.720741 -5.144457 3.682996 0
M  V30 43 H 0.123399 -2.790962 3.960178 0
M  V30 END ATOM
M  V30 BEGIN BOND
M  V30 1 2 1 2
M  V30 2 1 2 3
M  V30 3 1 3 4
M  V30 4 2 4 5
M  V30 5 1 5 6
M  V30 6 2 6 7
M  V30 7 1 7 8
M  V30 8 1 8 9
M  V30 9 2 8 10
M  V30 10 1 2 11
M  V30 11 2 11 12
M  V30 12 1 12 13
M  V30 13 1 13 14
M  V30 14 1 14 15
M  V30 15 1 14 16
M  V30 16 1 14 17
M  V30 17 2 13 18
M  V30 18 1 18 19
M  V30 19 2 19 20
M  V30 20 1 20 21
M  V30 21 1 21 22
M  V30 22 1 22 23
M  V30 23 2 23 24
M  V30 24 1 24 25
M  V30 25 2 25 26
M  V30 26 1 26 27
M  V30 27 1 26 28
M  V30 28 2 28 29
M  V30 29 1 10 4
M  V30 30 1 20 11
M  V30 31 1 29 23
M  V30 32 1 3 30
M  V30 33 1 5 31
M  V30 34 1 6 32
M  V30 35 1 7 33
M  V30 36 1 10 34
M  V30 37 1 12 35
M  V30 38 1 18 36
M  V30 39 1 19 37
M  V30 40 1 22 38
M  V30 41 1 22 39
M  V30 42 1 24 40
M  V30 43 1 25 41
M  V30 44 1 28 42
M  V30 45 1 29 43
M  V30 END BOND
M  V30 END CTAB
M  END
>  <Dataset>  (684) 
ChEMBL_Kinases

>  <Ligand_Instance>  (684) 
nan

>  <PDB_ID>  (684) 
nan

>  <Standardized_SMILES>  (684) 
O=C(Nc1cccc(F)c1)c1cc(C(F)(F)F)ccc1OCc1ccc(F)cc1

>  <Name>  (684) 
nan

>  <Pocket>  (684) 
nan

>  <ATP_Site>  (684) 
nan

>  <Peripheral>  (684) 
nan

>  <Num_H_Atoms_ProtBoundConf>  (684) 
nan

>  <Num_Resolved_Atoms>  (684) 
nan

>  <Num_Not_Resolved_Atoms>  (684) 
nan

$$$$
CHEMBL4452771
     RDKit          3D

  0  0  0  0  0  0  0  0  0  0999 V3000
M  V30 BEGIN CTAB
M  V30 COUNTS 41 44 0 0 0
M  V30 BEGIN ATOM
M  V30 1 O 2.424000 -1.475449 0.827768 0
M  V30 2 C 1.246101 -1.462707 0.331280 0
M  V30 3 N 1.069756 -2.412485 -0.698915 0
M  V30 4 C 2.365269 -3.115187 -0.847269 0
M  V30 5 N 2.809431 -4.054421 -0.367029 0
M  V30 6 C 3.981356 -4.632069 -0.547517 0
M  V30 7 C 4.497859 -5.766284 0.043638 0
M  V30 8 C 5.758617 -6.214919 -0.281493 0
M  V30 9 C 6.586717 -5.588646 -1.196939 0
M  V30 10 Br 8.334652 -6.167964 -1.680865 0
M  V30 11 C 6.099807 -4.451462 -1.806008 0
M  V30 12 C 4.813293 -4.027874 -1.448164 0
M  V30 13 S 3.817756 -2.608975 -2.001810 0
M  V30 14 C 0.184918 -0.561828 0.777120 0
M  V30 15 C -1.095372 -0.509718 0.269152 0
M  V30 16 C -2.014000 0.387671 0.771653 0
M  V30 17 C -1.729020 1.270707 1.786498 0
M  V30 18 N -2.693327 2.161586 2.262061 0
M  V30 19 C -4.071912 2.267165 1.838725 0
M  V30 20 C -4.272019 3.583193 1.108309 0
M  V30 21 O -3.310220 4.512522 1.467294 0
M  V30 22 C -3.159919 4.487735 2.866386 0
M  V30 23 C -2.514879 3.172774 3.278795 0
M  V30 24 C -0.452219 1.211121 2.285628 0
M  V30 25 C 0.487706 0.320654 1.799570 0
M  V30 26 H 0.175124 -2.512760 -1.185325 0
M  V30 27 H 3.997947 -6.399149 0.791010 0
M  V30 28 H 6.226953 -7.106468 0.150894 0
M  V30 29 H 6.601613 -3.844903 -2.534222 0
M  V30 30 H -1.299223 -1.209948 -0.526644 0
M  V30 31 H -2.970373 0.312398 0.276257 0
M  V30 32 H -4.790085 2.260141 2.704865 0
M  V30 33 H -4.383294 1.459095 1.137735 0
M  V30 34 H -5.294998 3.993640 1.334661 0
M  V30 35 H -4.165381 3.388930 0.010067 0
M  V30 36 H -2.468578 5.294362 3.190217 0
M  V30 37 H -4.127277 4.647857 3.382584 0
M  V30 38 H -1.441924 3.304637 3.494332 0
M  V30 39 H -3.055900 2.839412 4.189586 0
M  V30 40 H -0.114963 1.848667 3.076913 0
M  V30 41 H 1.498845 0.302896 2.224285 0
M  V30 END ATOM
M  V30 BEGIN BOND
M  V30 1 2 1 2
M  V30 2 1 2 3
M  V30 3 1 3 4
M  V30 4 2 4 5
M  V30 5 1 5 6
M  V30 6 2 6 7
M  V30 7 1 7 8
M  V30 8 2 8 9
M  V30 9 1 9 10
M  V30 10 1 9 11
M  V30 11 2 11 12
M  V30 12 1 12 13
M  V30 13 1 2 14
M  V30 14 2 14 15
M  V30 15 1 15 16
M  V30 16 2 16 17
M  V30 17 1 17 18
M  V30 18 1 18 19
M  V30 19 1 19 20
M  V30 20 1 20 21
M  V30 21 1 21 22
M  V30 22 1 22 23
M  V30 23 1 17 24
M  V30 24 2 24 25
M  V30 25 1 13 4
M  V30 26 1 25 14
M  V30 27 1 12 6
M  V30 28 1 23 18
M  V30 29 1 3 26
M  V30 30 1 7 27
M  V30 31 1 8 28
M  V30 32 1 11 29
M  V30 33 1 15 30
M  V30 34 1 16 31
M  V30 35 1 19 32
M  V30 36 1 19 33
M  V30 37 1 20 34
M  V30 38 1 20 35
M  V30 39 1 22 36
M  V30 40 1 22 37
M  V30 41 1 23 38
M  V30 42 1 23 39
M  V30 43 1 24 40
M  V30 44 1 25 41
M  V30 END BOND
M  V30 END CTAB
M  END
>  <Dataset>  (685) 
ChEMBL_Kinases

>  <Ligand_Instance>  (685) 
nan

>  <PDB_ID>  (685) 
nan

>  <Standardized_SMILES>  (685) 
O=C(Nc1nc2ccc(Br)cc2s1)c1ccc(N2CCOCC2)cc1

>  <Name>  (685) 
nan

>  <Pocket>  (685) 
nan

>  <ATP_Site>  (685) 
nan

>  <Peripheral>  (685) 
nan

>  <Num_H_Atoms_ProtBoundConf>  (685) 
nan

>  <Num_Resolved_Atoms>  (685) 
nan

>  <Num_Not_Resolved_Atoms>  (685) 
nan

$$$$
CHEMBL4747606
     RDKit          3D

  0  0  0  0  0  0  0  0  0  0999 V3000
M  V30 BEGIN CTAB
M  V30 COUNTS 33 34 0 0 0
M  V30 BEGIN ATOM
M  V30 1 C -4.101747 -5.046419 2.222031 0
M  V30 2 O -2.749682 -5.429898 2.068454 0
M  V30 3 C -1.833481 -4.467355 1.687836 0
M  V30 4 C -0.507612 -4.890177 1.547798 0
M  V30 5 C 0.444454 -3.952837 1.166503 0
M  V30 6 C 0.110831 -2.641738 0.929202 0
M  V30 7 C 1.175442 -1.727666 0.533120 0
M  V30 8 O 2.340398 -2.189397 0.430397 0
M  V30 9 C 0.937491 -0.314002 0.255659 0
M  V30 10 C 1.941344 0.454328 -0.096678 0
M  V30 11 C 1.839624 1.876203 -0.400231 0
M  V30 12 C 2.954498 2.625069 -0.767848 0
M  V30 13 C 2.873004 3.972038 -1.058102 0
M  V30 14 C 1.666444 4.638170 -0.994317 0
M  V30 15 O 1.615390 5.993402 -1.291845 0
M  V30 16 C 0.538911 3.929422 -0.633529 0
M  V30 17 Br -1.152378 4.821551 -0.534722 0
M  V30 18 C 0.665744 2.584869 -0.351882 0
M  V30 19 C -1.201062 -2.241298 1.071820 0
M  V30 20 C -2.144842 -3.161413 1.447745 0
M  V30 21 H -4.191262 -4.131312 2.820797 0
M  V30 22 H -4.680734 -5.849101 2.730125 0
M  V30 23 H -4.587000 -4.865299 1.225654 0
M  V30 24 H -0.235291 -5.924436 1.733370 0
M  V30 25 H 1.464210 -4.354658 1.076136 0
M  V30 26 H -0.049004 0.119634 0.333010 0
M  V30 27 H 2.919516 -0.002163 -0.167380 0
M  V30 28 H 3.908882 2.082427 -0.814739 0
M  V30 29 H 3.802375 4.442913 -1.329848 0
M  V30 30 H 1.082379 6.659408 -0.780028 0
M  V30 31 H -0.244615 2.099434 -0.080220 0
M  V30 32 H -1.483273 -1.216901 0.890243 0
M  V30 33 H -3.177976 -2.874868 1.566576 0
M  V30 END ATOM
M  V30 BEGIN BOND
M  V30 1 1 1 2
M  V30 2 1 2 3
M  V30 3 2 3 4
M  V30 4 1 4 5
M  V30 5 2 5 6
M  V30 6 1 6 7
M  V30 7 2 7 8
M  V30 8 1 7 9
M  V30 9 2 9 10
M  V30 10 1 10 11
M  V30 11 2 11 12
M  V30 12 1 12 13
M  V30 13 2 13 14
M  V30 14 1 14 15
M  V30 15 1 14 16
M  V30 16 1 16 17
M  V30 17 2 16 18
M  V30 18 1 6 19
M  V30 19 2 19 20
M  V30 20 1 20 3
M  V30 21 1 18 11
M  V30 22 1 1 21
M  V30 23 1 1 22
M  V30 24 1 1 23
M  V30 25 1 4 24
M  V30 26 1 5 25
M  V30 27 1 9 26
M  V30 28 1 10 27
M  V30 29 1 12 28
M  V30 30 1 13 29
M  V30 31 1 15 30
M  V30 32 1 18 31
M  V30 33 1 19 32
M  V30 34 1 20 33
M  V30 END BOND
M  V30 END CTAB
M  END
>  <Dataset>  (686) 
ChEMBL_Kinases

>  <Ligand_Instance>  (686) 
nan

>  <PDB_ID>  (686) 
nan

>  <Standardized_SMILES>  (686) 
COc1ccc(C(=O)/C=C/c2ccc(O)c(Br)c2)cc1

>  <Name>  (686) 
nan

>  <Pocket>  (686) 
nan

>  <ATP_Site>  (686) 
nan

>  <Peripheral>  (686) 
nan

>  <Num_H_Atoms_ProtBoundConf>  (686) 
nan

>  <Num_Resolved_Atoms>  (686) 
nan

>  <Num_Not_Resolved_Atoms>  (686) 
nan

$$$$
CHEMBL4452731
     RDKit          3D

  0  0  0  0  0  0  0  0  0  0999 V3000
M  V30 BEGIN CTAB
M  V30 COUNTS 43 45 0 0 0
M  V30 BEGIN ATOM
M  V30 1 C 1.599284 -6.142074 0.770822 0
M  V30 2 O 0.818323 -5.538516 -0.256893 0
M  V30 3 C 1.295717 -4.447473 -0.968037 0
M  V30 4 C 2.536580 -3.840625 -0.771595 0
M  V30 5 C 2.908354 -2.758769 -1.538414 0
M  V30 6 C 2.090473 -2.232622 -2.517505 0
M  V30 7 C 2.518248 -1.064649 -3.329310 0
M  V30 8 N 2.119351 0.197902 -2.711124 0
M  V30 9 C 1.419234 0.277859 -1.500283 0
M  V30 10 O 1.058562 -0.718624 -0.815381 0
M  V30 11 N 1.074723 1.558502 -0.977580 0
M  V30 12 C 0.363814 1.707140 0.247931 0
M  V30 13 N 1.085889 1.807583 1.383011 0
M  V30 14 C 0.284074 1.943094 2.461006 0
M  V30 15 C 0.517800 2.079741 3.814083 0
M  V30 16 C -0.578747 2.197124 4.645215 0
M  V30 17 C -1.858103 2.174950 4.108714 0
M  V30 18 C -3.006045 2.298027 4.980515 0
M  V30 19 C -2.858082 2.450490 6.461133 0
M  V30 20 O -4.199092 2.283740 4.540846 0
M  V30 21 C -2.081384 2.037916 2.754650 0
M  V30 22 C -0.996853 1.919269 1.908491 0
M  V30 23 N -0.940006 1.776742 0.573912 0
M  V30 24 C 0.881251 -2.861948 -2.674122 0
M  V30 25 C 0.452727 -3.948204 -1.937713 0
M  V30 26 H 0.979581 -6.753467 1.437363 0
M  V30 27 H 2.386198 -6.762297 0.301251 0
M  V30 28 H 2.132051 -5.360020 1.369951 0
M  V30 29 H 3.169353 -4.261932 -0.001041 0
M  V30 30 H 3.889522 -2.337681 -1.329180 0
M  V30 31 H 1.950247 -1.114927 -4.303751 0
M  V30 32 H 3.594516 -1.093864 -3.560346 0
M  V30 33 H 2.412461 1.035868 -3.269394 0
M  V30 34 H 1.337070 2.443472 -1.485201 0
M  V30 35 H 1.531639 2.086859 4.140274 0
M  V30 36 H -0.376521 2.303342 5.702207 0
M  V30 37 H -2.715086 1.449517 6.955468 0
M  V30 38 H -3.766186 2.885788 6.913423 0
M  V30 39 H -1.969686 3.066517 6.734310 0
M  V30 40 H -3.091133 2.022203 2.348123 0
M  V30 41 H -1.663103 1.720305 -0.144903 0
M  V30 42 H 0.195714 -2.477533 -3.442871 0
M  V30 43 H -0.527760 -4.388107 -2.129270 0
M  V30 END ATOM
M  V30 BEGIN BOND
M  V30 1 1 1 2
M  V30 2 1 2 3
M  V30 3 2 3 4
M  V30 4 1 4 5
M  V30 5 2 5 6
M  V30 6 1 6 7
M  V30 7 1 7 8
M  V30 8 1 8 9
M  V30 9 2 9 10
M  V30 10 1 9 11
M  V30 11 1 11 12
M  V30 12 2 12 13
M  V30 13 1 13 14
M  V30 14 2 14 15
M  V30 15 1 15 16
M  V30 16 2 16 17
M  V30 17 1 17 18
M  V30 18 1 18 19
M  V30 19 2 18 20
M  V30 20 1 17 21
M  V30 21 2 21 22
M  V30 22 1 22 23
M  V30 23 1 6 24
M  V30 24 2 24 25
M  V30 25 1 25 3
M  V30 26 1 23 12
M  V30 27 1 22 14
M  V30 28 1 1 26
M  V30 29 1 1 27
M  V30 30 1 1 28
M  V30 31 1 4 29
M  V30 32 1 5 30
M  V30 33 1 7 31
M  V30 34 1 7 32
M  V30 35 1 8 33
M  V30 36 1 11 34
M  V30 37 1 15 35
M  V30 38 1 16 36
M  V30 39 1 19 37
M  V30 40 1 19 38
M  V30 41 1 19 39
M  V30 42 1 21 40
M  V30 43 1 23 41
M  V30 44 1 24 42
M  V30 45 1 25 43
M  V30 END BOND
M  V30 END CTAB
M  END
>  <Dataset>  (687) 
ChEMBL_Kinases

>  <Ligand_Instance>  (687) 
nan

>  <PDB_ID>  (687) 
nan

>  <Standardized_SMILES>  (687) 
COc1ccc(CNC(=O)Nc2nc3ccc(C(C)=O)cc3[nH]2)cc1

>  <Name>  (687) 
nan

>  <Pocket>  (687) 
nan

>  <ATP_Site>  (687) 
nan

>  <Peripheral>  (687) 
nan

>  <Num_H_Atoms_ProtBoundConf>  (687) 
nan

>  <Num_Resolved_Atoms>  (687) 
nan

>  <Num_Not_Resolved_Atoms>  (687) 
nan

$$$$
CHEMBL4452726
     RDKit          3D

  0  0  0  0  0  0  0  0  0  0999 V3000
M  V30 BEGIN CTAB
M  V30 COUNTS 49 52 0 0 0
M  V30 BEGIN ATOM
M  V30 1 C 0.210018 -4.270320 2.318488 0
M  V30 2 C 1.134154 -3.446723 1.503148 0
M  V30 3 C 2.348994 -4.066590 1.183529 0
M  V30 4 C 3.351185 -3.491968 0.440017 0
M  V30 5 C 3.129916 -2.218483 -0.014528 0
M  V30 6 C 4.138246 -1.644197 -0.762297 0
M  V30 7 O 5.199682 -2.271346 -1.003839 0
M  V30 8 N 3.936676 -0.397910 -1.215750 0
M  V30 9 C 2.809083 0.281869 -0.965069 0
M  V30 10 C 2.649609 1.560655 -1.453635 0
M  V30 11 C 3.764190 2.129214 -2.251050 0
M  V30 12 C 1.469559 2.211963 -1.164688 0
M  V30 13 C 0.456960 1.609455 -0.402060 0
M  V30 14 O -0.604254 2.527471 -0.289419 0
M  V30 15 C 0.648466 0.304172 0.082604 0
M  V30 16 C -0.570860 0.051985 0.793092 0
M  V30 17 C -0.909460 0.299421 2.149300 0
M  V30 18 C -2.161687 0.066239 2.616575 0
M  V30 19 C -3.117588 -0.420490 1.750387 0
M  V30 20 C -4.493894 -0.675024 2.271035 0 CFG=1
M  V30 21 C -4.706897 0.012188 3.597116 0
M  V30 22 N -5.521471 -0.175570 1.380295 0
M  V30 23 C -2.877544 -0.687878 0.424557 0
M  V30 24 C -1.591738 -0.447793 -0.052708 0
M  V30 25 C 1.820638 -0.299147 -0.223968 0
M  V30 26 C 1.976563 -1.551990 0.254543 0
M  V30 27 C 1.038809 -2.178208 0.989276 0
M  V30 28 H 0.658069 -4.355672 3.340906 0
M  V30 29 H -0.808209 -3.822309 2.372142 0
M  V30 30 H 0.193022 -5.278974 1.852045 0
M  V30 31 H 2.566671 -5.082811 1.526240 0
M  V30 32 H 4.271615 -4.002055 0.215715 0
M  V30 33 H 4.697747 0.039011 -1.781767 0
M  V30 34 H 3.602728 3.234944 -2.395578 0
M  V30 35 H 4.750827 2.078657 -1.727357 0
M  V30 36 H 3.846419 1.696064 -3.272502 0
M  V30 37 H 1.459516 3.202170 -1.598600 0
M  V30 38 H -0.492070 3.195378 0.483615 0
M  V30 39 H -0.055807 0.672117 2.677414 0
M  V30 40 H -2.335673 0.282294 3.665634 0
M  V30 41 H -4.667055 -1.759736 2.426971 0
M  V30 42 H -4.112474 -0.380498 4.422345 0
M  V30 43 H -5.778529 -0.177395 3.874527 0
M  V30 44 H -4.629681 1.124546 3.481812 0
M  V30 45 H -5.440564 0.828779 1.189777 0
M  V30 46 H -5.648556 -0.782603 0.541024 0
M  V30 47 H -3.653967 -1.069141 -0.223262 0
M  V30 48 H -1.456334 -0.674010 -1.099189 0
M  V30 49 H 0.097851 -1.887203 1.318735 0
M  V30 END ATOM
M  V30 BEGIN BOND
M  V30 1 1 1 2
M  V30 2 2 2 3
M  V30 3 1 3 4
M  V30 4 2 4 5
M  V30 5 1 5 6
M  V30 6 2 6 7
M  V30 7 1 6 8
M  V30 8 1 8 9
M  V30 9 2 9 10
M  V30 10 1 10 11
M  V30 11 1 10 12
M  V30 12 2 12 13
M  V30 13 1 13 14
M  V30 14 1 13 15
M  V30 15 1 15 16
M  V30 16 2 16 17
M  V30 17 1 17 18
M  V30 18 2 18 19
M  V30 19 1 19 20
M  V30 20 1 20 21
M  V30 21 1 20 22
M  V30 22 1 19 23
M  V30 23 2 23 24
M  V30 24 2 15 25
M  V30 25 1 25 26
M  V30 26 2 26 27
M  V30 27 1 27 2
M  V30 28 1 26 5
M  V30 29 1 25 9
M  V30 30 1 24 16
M  V30 31 1 1 28
M  V30 32 1 1 29
M  V30 33 1 1 30
M  V30 34 1 3 31
M  V30 35 1 4 32
M  V30 36 1 8 33
M  V30 37 1 11 34
M  V30 38 1 11 35
M  V30 39 1 11 36
M  V30 40 1 12 37
M  V30 41 1 14 38
M  V30 42 1 17 39
M  V30 43 1 18 40
M  V30 44 1 20 41 CFG=1
M  V30 45 1 21 42
M  V30 46 1 21 43
M  V30 47 1 21 44
M  V30 48 1 22 45
M  V30 49 1 22 46
M  V30 50 1 23 47
M  V30 51 1 24 48
M  V30 52 1 27 49
M  V30 END BOND
M  V30 END CTAB
M  END
>  <Dataset>  (688) 
ChEMBL_Kinases

>  <Ligand_Instance>  (688) 
nan

>  <PDB_ID>  (688) 
nan

>  <Standardized_SMILES>  (688) 
Cc1ccc2c(=O)[nH]c3c(C)cc(O)c(-c4ccc([C@@H](C)N)cc4)c3c2c1

>  <Name>  (688) 
nan

>  <Pocket>  (688) 
nan

>  <ATP_Site>  (688) 
nan

>  <Peripheral>  (688) 
nan

>  <Num_H_Atoms_ProtBoundConf>  (688) 
nan

>  <Num_Resolved_Atoms>  (688) 
nan

>  <Num_Not_Resolved_Atoms>  (688) 
nan

$$$$
CHEMBL4452595
     RDKit          3D

  0  0  0  0  0  0  0  0  0  0999 V3000
M  V30 BEGIN CTAB
M  V30 COUNTS 52 55 0 0 0
M  V30 BEGIN ATOM
M  V30 1 C 0.008948 -4.135673 -0.877805 0
M  V30 2 C 1.107199 -3.266961 -0.447716 0
M  V30 3 C 2.366492 -3.823335 -0.567187 0
M  V30 4 C 3.549748 -3.203116 -0.228490 0
M  V30 5 C 3.449064 -1.923702 0.268256 0
M  V30 6 C 4.629434 -1.293347 0.612014 0
M  V30 7 O 5.732832 -1.869825 0.472336 0
M  V30 8 N 4.540050 -0.045739 1.098270 0
M  V30 9 C 3.369257 0.591548 1.256547 0
M  V30 10 C 3.339629 1.873434 1.761226 0
M  V30 11 C 4.628146 2.495082 2.110370 0
M  V30 12 C 2.100119 2.462573 1.894939 0
M  V30 13 C 0.909373 1.806751 1.540034 0
M  V30 14 O -0.154812 2.674466 1.797953 0
M  V30 15 C 0.982958 0.499204 1.028712 0
M  V30 16 C -0.396832 0.183607 0.791356 0
M  V30 17 C -1.169365 0.403958 -0.379791 0
M  V30 18 C -2.514496 0.106891 -0.374604 0
M  V30 19 C -3.094584 -0.400601 0.767019 0
M  V30 20 C -4.540271 -0.680134 0.653465 0 CFG=1
M  V30 21 C -5.338647 0.494471 0.170529 0
M  V30 22 C -4.717285 -1.777423 -0.382238 0
M  V30 23 N -4.030288 -2.979074 -0.005744 0
M  V30 24 C -2.402004 -0.636815 1.933137 0
M  V30 25 C -1.044062 -0.338498 1.932691 0
M  V30 26 C 2.214333 -0.049620 0.910494 0
M  V30 27 C 2.242337 -1.305362 0.416295 0
M  V30 28 C 1.139980 -1.991058 0.058272 0
M  V30 29 H -0.118137 -5.009215 -0.198260 0
M  V30 30 H -0.950983 -3.611980 -0.940487 0
M  V30 31 H 0.205788 -4.550210 -1.900627 0
M  V30 32 H 2.517853 -4.839735 -0.956212 0
M  V30 33 H 4.513658 -3.662134 -0.332981 0
M  V30 34 H 5.433891 0.434116 1.359593 0
M  V30 35 H 5.079116 2.048768 3.024124 0
M  V30 36 H 5.348157 2.497846 1.254561 0
M  V30 37 H 4.501409 3.589253 2.345538 0
M  V30 38 H 2.197854 3.465917 2.299689 0
M  V30 39 H -0.611167 2.563217 2.709432 0
M  V30 40 H -0.573315 0.804249 -1.189051 0
M  V30 41 H -3.040619 0.299979 -1.301291 0
M  V30 42 H -4.904803 -1.081624 1.617770 0
M  V30 43 H -6.384363 0.362991 0.516336 0
M  V30 44 H -4.959197 1.465871 0.537640 0
M  V30 45 H -5.389892 0.549250 -0.943222 0
M  V30 46 H -4.262035 -1.411105 -1.346738 0
M  V30 47 H -5.758734 -2.005282 -0.613382 0
M  V30 48 H -3.562130 -3.411217 -0.810102 0
M  V30 49 H -3.524525 -2.953704 0.884859 0
M  V30 50 H -2.889826 -1.036460 2.811725 0
M  V30 51 H -0.543418 -0.538951 2.864725 0
M  V30 52 H 0.132505 -1.738086 0.079709 0
M  V30 END ATOM
M  V30 BEGIN BOND
M  V30 1 1 1 2
M  V30 2 2 2 3
M  V30 3 1 3 4
M  V30 4 2 4 5
M  V30 5 1 5 6
M  V30 6 2 6 7
M  V30 7 1 6 8
M  V30 8 1 8 9
M  V30 9 2 9 10
M  V30 10 1 10 11
M  V30 11 1 10 12
M  V30 12 2 12 13
M  V30 13 1 13 14
M  V30 14 1 13 15
M  V30 15 1 15 16
M  V30 16 2 16 17
M  V30 17 1 17 18
M  V30 18 2 18 19
M  V30 19 1 19 20
M  V30 20 1 20 21
M  V30 21 1 20 22
M  V30 22 1 22 23
M  V30 23 1 19 24
M  V30 24 2 24 25
M  V30 25 2 15 26
M  V30 26 1 26 27
M  V30 27 2 27 28
M  V30 28 1 28 2
M  V30 29 1 27 5
M  V30 30 1 26 9
M  V30 31 1 25 16
M  V30 32 1 1 29
M  V30 33 1 1 30
M  V30 34 1 1 31
M  V30 35 1 3 32
M  V30 36 1 4 33
M  V30 37 1 8 34
M  V30 38 1 11 35
M  V30 39 1 11 36
M  V30 40 1 11 37
M  V30 41 1 12 38
M  V30 42 1 14 39
M  V30 43 1 17 40
M  V30 44 1 18 41
M  V30 45 1 20 42 CFG=1
M  V30 46 1 21 43
M  V30 47 1 21 44
M  V30 48 1 21 45
M  V30 49 1 22 46
M  V30 50 1 22 47
M  V30 51 1 23 48
M  V30 52 1 23 49
M  V30 53 1 24 50
M  V30 54 1 25 51
M  V30 55 1 28 52
M  V30 END BOND
M  V30 END CTAB
M  END
>  <Dataset>  (689) 
ChEMBL_Kinases

>  <Ligand_Instance>  (689) 
nan

>  <PDB_ID>  (689) 
nan

>  <Standardized_SMILES>  (689) 
Cc1ccc2c(=O)[nH]c3c(C)cc(O)c(-c4ccc([C@@H](C)CN)cc4)c3c2c1

>  <Name>  (689) 
nan

>  <Pocket>  (689) 
nan

>  <ATP_Site>  (689) 
nan

>  <Peripheral>  (689) 
nan

>  <Num_H_Atoms_ProtBoundConf>  (689) 
nan

>  <Num_Resolved_Atoms>  (689) 
nan

>  <Num_Not_Resolved_Atoms>  (689) 
nan

$$$$
CHEMBL4452507
     RDKit          3D

  0  0  0  0  0  0  0  0  0  0999 V3000
M  V30 BEGIN CTAB
M  V30 COUNTS 32 33 0 0 0
M  V30 BEGIN ATOM
M  V30 1 C -1.918030 -2.686344 2.279655 0
M  V30 2 C -0.840394 -3.640994 1.830286 0
M  V30 3 C -0.817840 -4.805558 2.807141 0
M  V30 4 N 0.457709 -3.023024 1.719611 0
M  V30 5 C 0.634926 -1.916714 0.819690 0
M  V30 6 S 0.495771 -0.153871 1.170497 0
M  V30 7 C 0.862132 0.382584 -0.453737 0
M  V30 8 C 0.924554 1.742709 -0.888456 0
M  V30 9 O 1.203080 2.044351 -2.071151 0
M  V30 10 C 0.655829 2.820705 0.073013 0
M  V30 11 C 0.684362 4.159815 -0.172399 0
M  V30 12 C 0.390909 4.952769 0.905680 0
M  V30 13 C 0.094226 4.410866 2.129726 0
M  V30 14 Br -0.343288 5.200547 3.776660 0
M  V30 15 S 0.232348 2.578052 1.766473 0
M  V30 16 C 1.073629 -0.774931 -1.194115 0
M  V30 17 N 1.398067 -0.648408 -2.586892 0
M  V30 18 C 0.957607 -1.955397 -0.543243 0
M  V30 19 C 1.146133 -3.253214 -1.185486 0
M  V30 20 N 1.285238 -4.296484 -1.716295 0
M  V30 21 H -1.505298 -1.644038 2.289342 0
M  V30 22 H -2.290518 -2.917586 3.300809 0
M  V30 23 H -2.812207 -2.696257 1.621159 0
M  V30 24 H -1.125771 -4.052658 0.849024 0
M  V30 25 H -1.833158 -4.907307 3.244375 0
M  V30 26 H -0.115732 -4.643786 3.646473 0
M  V30 27 H -0.609847 -5.775986 2.286817 0
M  V30 28 H 1.270314 -3.336272 2.256612 0
M  V30 29 H 0.922876 4.553212 -1.147746 0
M  V30 30 H 0.375184 6.054395 0.858468 0
M  V30 31 H 2.251331 -0.893284 -3.129332 0
M  V30 32 H 0.593743 -0.222187 -3.135285 0
M  V30 END ATOM
M  V30 BEGIN BOND
M  V30 1 1 1 2
M  V30 2 1 2 3
M  V30 3 1 2 4
M  V30 4 1 4 5
M  V30 5 1 5 6
M  V30 6 1 6 7
M  V30 7 1 7 8
M  V30 8 2 8 9
M  V30 9 1 8 10
M  V30 10 2 10 11
M  V30 11 1 11 12
M  V30 12 2 12 13
M  V30 13 1 13 14
M  V30 14 1 13 15
M  V30 15 2 7 16
M  V30 16 1 16 17
M  V30 17 1 16 18
M  V30 18 1 18 19
M  V30 19 3 19 20
M  V30 20 2 18 5
M  V30 21 1 15 10
M  V30 22 1 1 21
M  V30 23 1 1 22
M  V30 24 1 1 23
M  V30 25 1 2 24
M  V30 26 1 3 25
M  V30 27 1 3 26
M  V30 28 1 3 27
M  V30 29 1 4 28
M  V30 30 1 11 29
M  V30 31 1 12 30
M  V30 32 1 17 31
M  V30 33 1 17 32
M  V30 END BOND
M  V30 END CTAB
M  END
>  <Dataset>  (690) 
ChEMBL_Kinases

>  <Ligand_Instance>  (690) 
nan

>  <PDB_ID>  (690) 
nan

>  <Standardized_SMILES>  (690) 
CC(C)Nc1sc(C(=O)c2ccc(Br)s2)c(N)c1C#N

>  <Name>  (690) 
nan

>  <Pocket>  (690) 
nan

>  <ATP_Site>  (690) 
nan

>  <Peripheral>  (690) 
nan

>  <Num_H_Atoms_ProtBoundConf>  (690) 
nan

>  <Num_Resolved_Atoms>  (690) 
nan

>  <Num_Not_Resolved_Atoms>  (690) 
nan

$$$$
CHEMBL4451115
     RDKit          3D

  0  0  0  0  0  0  0  0  0  0999 V3000
M  V30 BEGIN CTAB
M  V30 COUNTS 37 39 0 0 0
M  V30 BEGIN ATOM
M  V30 1 C -1.584808 -3.945617 3.219741 0
M  V30 2 C -0.508243 -3.478141 2.897330 0
M  V30 3 C 0.801265 -2.881145 2.500262 0
M  V30 4 C 1.619441 -4.114060 2.082112 0
M  V30 5 C 1.447123 -2.417821 3.802675 0
M  V30 6 N 0.674603 -1.905568 1.491150 0
M  V30 7 C 0.531500 -0.900303 0.480033 0
M  V30 8 N -0.181200 0.230900 0.577454 0
M  V30 9 C -0.324197 1.165725 -0.354832 0
M  V30 10 C -1.132847 2.353720 -0.115960 0
M  V30 11 C -1.192289 3.237792 -1.171630 0
M  V30 12 C -1.956234 4.382241 -0.976232 0
M  V30 13 N -2.586656 4.561095 0.216242 0
M  V30 14 C -2.493543 3.662499 1.214925 0
M  V30 15 C -1.751696 2.490578 1.106775 0
M  V30 16 N 0.333281 0.889648 -1.476579 0
M  V30 17 C 1.078287 -0.192586 -1.712919 0
M  V30 18 C 1.657580 -0.238020 -2.964525 0
M  V30 19 N 2.426463 -1.334285 -3.232877 0
M  V30 20 C 2.585402 -2.300701 -2.293589 0
M  V30 21 C 1.977507 -2.191223 -1.063370 0
M  V30 22 C 1.187126 -1.124311 -0.707146 0
M  V30 23 H -2.519329 -4.341908 3.513604 0
M  V30 24 H 2.679311 -3.887353 1.937761 0
M  V30 25 H 1.128663 -4.615285 1.220060 0
M  V30 26 H 1.520653 -4.819045 2.923921 0
M  V30 27 H 2.538985 -2.317479 3.714942 0
M  V30 28 H 1.184027 -3.177817 4.566467 0
M  V30 29 H 0.944240 -1.475463 4.112181 0
M  V30 30 H 0.088640 -1.433432 2.247026 0
M  V30 31 H -0.667945 3.043645 -2.102355 0
M  V30 32 H -2.050600 5.117315 -1.751741 0
M  V30 33 H -3.018866 3.850507 2.156223 0
M  V30 34 H -1.656260 1.752950 1.883310 0
M  V30 35 H 1.517453 0.541656 -3.695336 0
M  V30 36 H 3.197531 -3.192065 -2.482046 0
M  V30 37 H 2.103278 -2.953065 -0.320087 0
M  V30 END ATOM
M  V30 BEGIN BOND
M  V30 1 3 1 2
M  V30 2 1 2 3
M  V30 3 1 3 4
M  V30 4 1 3 5
M  V30 5 1 3 6
M  V30 6 1 6 7
M  V30 7 2 7 8
M  V30 8 1 8 9
M  V30 9 1 9 10
M  V30 10 2 10 11
M  V30 11 1 11 12
M  V30 12 2 12 13
M  V30 13 1 13 14
M  V30 14 2 14 15
M  V30 15 2 9 16
M  V30 16 1 16 17
M  V30 17 2 17 18
M  V30 18 1 18 19
M  V30 19 2 19 20
M  V30 20 1 20 21
M  V30 21 2 21 22
M  V30 22 1 22 7
M  V30 23 1 15 10
M  V30 24 1 22 17
M  V30 25 1 1 23
M  V30 26 1 4 24
M  V30 27 1 4 25
M  V30 28 1 4 26
M  V30 29 1 5 27
M  V30 30 1 5 28
M  V30 31 1 5 29
M  V30 32 1 6 30
M  V30 33 1 11 31
M  V30 34 1 12 32
M  V30 35 1 14 33
M  V30 36 1 15 34
M  V30 37 1 18 35
M  V30 38 1 20 36
M  V30 39 1 21 37
M  V30 END BOND
M  V30 END CTAB
M  END
>  <Dataset>  (691) 
ChEMBL_Kinases

>  <Ligand_Instance>  (691) 
nan

>  <PDB_ID>  (691) 
nan

>  <Standardized_SMILES>  (691) 
C#CC(C)(C)Nc1nc(-c2ccncc2)nc2cnccc12

>  <Name>  (691) 
nan

>  <Pocket>  (691) 
nan

>  <ATP_Site>  (691) 
nan

>  <Peripheral>  (691) 
nan

>  <Num_H_Atoms_ProtBoundConf>  (691) 
nan

>  <Num_Resolved_Atoms>  (691) 
nan

>  <Num_Not_Resolved_Atoms>  (691) 
nan

$$$$
CHEMBL4452484
     RDKit          3D

  0  0  0  0  0  0  0  0  0  0999 V3000
M  V30 BEGIN CTAB
M  V30 COUNTS 26 27 0 0 0
M  V30 BEGIN ATOM
M  V30 1 C -1.806546 -2.060774 3.325508 0
M  V30 2 S -0.422304 -0.931260 3.307052 0
M  V30 3 C 0.054527 -0.504957 1.661840 0
M  V30 4 C 1.071613 0.325192 1.580792 0
M  V30 5 S 2.057493 1.098951 2.841636 0
M  V30 6 C 1.516271 0.620463 4.489837 0
M  V30 7 C 1.525782 0.725978 0.236284 0
M  V30 8 O 2.476207 1.506564 -0.049916 0
M  V30 9 C 0.860790 0.212336 -0.977252 0
M  V30 10 C 1.232530 0.544604 -2.261930 0
M  V30 11 C 0.583636 0.041428 -3.360914 0
M  V30 12 C -0.477142 -0.826103 -3.201513 0
M  V30 13 C -0.897200 -1.197216 -1.938726 0
M  V30 14 C -0.212880 -0.664520 -0.868954 0
M  V30 15 C -0.607906 -1.017451 0.489096 0
M  V30 16 O -1.565814 -1.800978 0.639230 0
M  V30 17 H -2.666291 -1.554434 2.816460 0
M  V30 18 H -2.053323 -2.464363 4.305334 0
M  V30 19 H -1.555521 -2.943871 2.677356 0
M  V30 20 H 2.206265 1.134196 5.222470 0
M  V30 21 H 0.479560 0.962961 4.732820 0
M  V30 22 H 1.661070 -0.445877 4.669878 0
M  V30 23 H 2.060954 1.222255 -2.392405 0
M  V30 24 H 0.933833 0.349012 -4.334740 0
M  V30 25 H -0.953779 -1.193711 -4.095754 0
M  V30 26 H -1.725864 -1.875353 -1.795344 0
M  V30 END ATOM
M  V30 BEGIN BOND
M  V30 1 1 1 2
M  V30 2 1 2 3
M  V30 3 2 3 4
M  V30 4 1 4 5
M  V30 5 1 5 6
M  V30 6 1 4 7
M  V30 7 2 7 8
M  V30 8 1 7 9
M  V30 9 2 9 10
M  V30 10 1 10 11
M  V30 11 2 11 12
M  V30 12 1 12 13
M  V30 13 2 13 14
M  V30 14 1 14 15
M  V30 15 2 15 16
M  V30 16 1 15 3
M  V30 17 1 14 9
M  V30 18 1 1 17
M  V30 19 1 1 18
M  V30 20 1 1 19
M  V30 21 1 6 20
M  V30 22 1 6 21
M  V30 23 1 6 22
M  V30 24 1 10 23
M  V30 25 1 11 24
M  V30 26 1 12 25
M  V30 27 1 13 26
M  V30 END BOND
M  V30 END CTAB
M  END
>  <Dataset>  (692) 
ChEMBL_Kinases

>  <Ligand_Instance>  (692) 
nan

>  <PDB_ID>  (692) 
nan

>  <Standardized_SMILES>  (692) 
CSC1=C(SC)C(=O)c2ccccc2C1=O

>  <Name>  (692) 
nan

>  <Pocket>  (692) 
nan

>  <ATP_Site>  (692) 
nan

>  <Peripheral>  (692) 
nan

>  <Num_H_Atoms_ProtBoundConf>  (692) 
nan

>  <Num_Resolved_Atoms>  (692) 
nan

>  <Num_Not_Resolved_Atoms>  (692) 
nan

$$$$
CHEMBL4747648
     RDKit          3D

  0  0  0  0  0  0  0  0  0  0999 V3000
M  V30 BEGIN CTAB
M  V30 COUNTS 60 64 0 0 0
M  V30 BEGIN ATOM
M  V30 1 C 0.740413 -3.262634 5.542709 0
M  V30 2 C 1.189807 -3.890210 4.237587 0
M  V30 3 C 1.761200 -5.258147 4.567415 0
M  V30 4 N 0.082481 -4.000163 3.296520 0
M  V30 5 C 0.144112 -3.259844 2.056357 0
M  V30 6 C 0.886428 -2.072100 1.986682 0
M  V30 7 C 0.997017 -1.304721 0.845829 0
M  V30 8 N 1.770045 -0.110563 0.853368 0
M  V30 9 C 1.857928 0.670235 -0.357020 0
M  V30 10 N 2.833391 0.443645 -1.254486 0
M  V30 11 C 2.874226 1.208960 -2.380417 0
M  V30 12 C 1.913117 2.151773 -2.507198 0
M  V30 13 C 0.897202 2.439343 -1.647811 0
M  V30 14 C -0.146704 3.422408 -1.654265 0
M  V30 15 C -0.780367 3.682646 -0.432915 0
M  V30 16 C -1.804151 4.591890 -0.305012 0
M  V30 17 C -2.256005 5.296036 -1.396157 0
M  V30 18 C -1.674216 5.076840 -2.601531 0
M  V30 19 N -1.908888 5.583082 -3.803053 0
M  V30 20 N -1.076934 5.023319 -4.662608 0
M  V30 21 C -1.081014 5.362944 -6.059024 0
M  V30 22 C -0.312853 4.160581 -4.005189 0
M  V30 23 C -0.662968 4.166266 -2.680034 0
M  V30 24 N 0.954061 1.631723 -0.582474 0
M  V30 25 C 0.340771 -1.728450 -0.291040 0
M  V30 26 C -0.396980 -2.894170 -0.248461 0
M  V30 27 C -0.506684 -3.660794 0.894205 0
M  V30 28 N -1.287975 -4.871966 0.906343 0
M  V30 29 C -1.962971 -5.290385 -0.303969 0
M  V30 30 C -1.341131 -5.593512 2.144252 0
M  V30 31 O -1.547298 -6.850860 2.034982 0
M  V30 32 C -1.145941 -4.760340 3.386283 0 CFG=1
M  V30 33 C -1.162163 -5.756058 4.523148 0
M  V30 34 H 0.744094 -3.972800 6.389164 0
M  V30 35 H 1.444540 -2.441861 5.851696 0
M  V30 36 H -0.249401 -2.801820 5.393516 0
M  V30 37 H 2.017140 -3.344145 3.755927 0
M  V30 38 H 1.733871 -5.967656 3.737845 0
M  V30 39 H 2.835300 -5.108001 4.827161 0
M  V30 40 H 1.316784 -5.648257 5.525873 0
M  V30 41 H 1.399310 -1.717853 2.849673 0
M  V30 42 H 2.256094 0.179614 1.722643 0
M  V30 43 H 3.640800 1.058268 -3.124473 0
M  V30 44 H 1.982969 2.755231 -3.375799 0
M  V30 45 H -0.499984 3.176282 0.504668 0
M  V30 46 H -2.270535 4.769242 0.652848 0
M  V30 47 H -3.057431 6.003215 -1.274941 0
M  V30 48 H -0.115646 5.120592 -6.545130 0
M  V30 49 H -1.302878 6.455812 -6.196062 0
M  V30 50 H -1.862996 4.766885 -6.592912 0
M  V30 51 H 0.416260 3.594294 -4.531714 0
M  V30 52 H 0.428437 -1.124100 -1.187591 0
M  V30 53 H -0.883720 -3.171918 -1.162579 0
M  V30 54 H -2.464131 -4.388584 -0.741936 0
M  V30 55 H -2.731154 -6.046808 -0.083133 0
M  V30 56 H -1.222642 -5.632501 -1.059364 0
M  V30 57 H -2.030043 -4.091127 3.441779 0
M  V30 58 H -2.200186 -6.204815 4.552145 0
M  V30 59 H -1.049122 -5.301281 5.522512 0
M  V30 60 H -0.506012 -6.607643 4.310040 0
M  V30 END ATOM
M  V30 BEGIN BOND
M  V30 1 1 1 2
M  V30 2 1 2 3
M  V30 3 1 2 4
M  V30 4 1 4 5
M  V30 5 2 5 6
M  V30 6 1 6 7
M  V30 7 1 7 8
M  V30 8 1 8 9
M  V30 9 2 9 10
M  V30 10 1 10 11
M  V30 11 2 11 12
M  V30 12 1 12 13
M  V30 13 1 13 14
M  V30 14 2 14 15
M  V30 15 1 15 16
M  V30 16 2 16 17
M  V30 17 1 17 18
M  V30 18 2 18 19
M  V30 19 1 19 20
M  V30 20 1 20 21
M  V30 21 1 20 22
M  V30 22 2 22 23
M  V30 23 2 13 24
M  V30 24 2 7 25
M  V30 25 1 25 26
M  V30 26 2 26 27
M  V30 27 1 27 28
M  V30 28 1 28 29
M  V30 29 1 28 30
M  V30 30 2 30 31
M  V30 31 1 30 32
M  V30 32 1 32 33
M  V30 33 1 32 4
M  V30 34 1 27 5
M  V30 35 1 24 9
M  V30 36 1 23 14
M  V30 37 1 23 18
M  V30 38 1 1 34
M  V30 39 1 1 35
M  V30 40 1 1 36
M  V30 41 1 2 37
M  V30 42 1 3 38
M  V30 43 1 3 39
M  V30 44 1 3 40
M  V30 45 1 6 41
M  V30 46 1 8 42
M  V30 47 1 11 43
M  V30 48 1 12 44
M  V30 49 1 15 45
M  V30 50 1 16 46
M  V30 51 1 17 47
M  V30 52 1 21 48
M  V30 53 1 21 49
M  V30 54 1 21 50
M  V30 55 1 22 51
M  V30 56 1 25 52
M  V30 57 1 26 53
M  V30 58 1 29 54
M  V30 59 1 29 55
M  V30 60 1 29 56
M  V30 61 1 32 57 CFG=1
M  V30 62 1 33 58
M  V30 63 1 33 59
M  V30 64 1 33 60
M  V30 END BOND
M  V30 END CTAB
M  END
>  <Dataset>  (693) 
ChEMBL_Kinases

>  <Ligand_Instance>  (693) 
nan

>  <PDB_ID>  (693) 
nan

>  <Standardized_SMILES>  (693) 
CC(C)N1c2cc(Nc3nccc(-c4cccc5nn(C)cc45)n3)ccc2N(C)C(=O)[C@H]1C

>  <Name>  (693) 
nan

>  <Pocket>  (693) 
nan

>  <ATP_Site>  (693) 
nan

>  <Peripheral>  (693) 
nan

>  <Num_H_Atoms_ProtBoundConf>  (693) 
nan

>  <Num_Resolved_Atoms>  (693) 
nan

>  <Num_Not_Resolved_Atoms>  (693) 
nan

$$$$
CHEMBL4452451
     RDKit          3D

  0  0  0  0  0  0  0  0  0  0999 V3000
M  V30 BEGIN CTAB
M  V30 COUNTS 53 55 0 0 0
M  V30 BEGIN ATOM
M  V30 1 C 2.463687 -4.381816 3.078380 0
M  V30 2 C 3.254768 -3.215896 2.581215 0
M  V30 3 C 3.271520 -2.054468 3.526136 0
M  V30 4 O 4.539556 -3.591265 2.262759 0
M  V30 5 C 2.561636 -2.693919 1.290501 0
M  V30 6 O 3.290989 -1.652294 0.874344 0
M  V30 7 C 2.902326 -1.055962 -0.277287 0
M  V30 8 C 1.531827 -0.486213 -0.347946 0
M  V30 9 C 1.412399 0.261949 -1.667361 0
M  V30 10 C 1.297710 0.522699 0.778996 0
M  V30 11 N 0.452644 -1.430613 -0.265357 0
M  V30 12 C -0.844502 -0.812152 -0.201335 0
M  V30 13 N -1.075011 0.495412 -0.225435 0
M  V30 14 C -2.287969 1.067121 -0.171977 0
M  V30 15 C -2.425989 2.515542 -0.207289 0
M  V30 16 C -1.437870 3.465002 -0.297196 0
M  V30 17 N -1.956229 4.703786 -0.301994 0
M  V30 18 N -3.259270 4.570138 -0.216916 0
M  V30 19 C -3.580578 3.244705 -0.157276 0
M  V30 20 C -4.965184 2.708580 -0.055343 0
M  V30 21 F -5.875330 3.764746 -0.029751 0
M  V30 22 F -5.085351 1.967511 1.094092 0
M  V30 23 F -5.242834 1.879131 -1.143597 0
M  V30 24 N -3.403079 0.318968 -0.086350 0
M  V30 25 C -3.272990 -1.027316 -0.055313 0
M  V30 26 C -4.408202 -1.792303 0.032420 0
M  V30 27 N -4.323719 -3.135006 0.066520 0
M  V30 28 C -3.097255 -3.702096 0.012202 0
M  V30 29 C -1.968570 -2.921048 -0.075629 0
M  V30 30 C -2.002954 -1.544835 -0.113647 0
M  V30 31 H 2.783865 -5.322212 2.573098 0
M  V30 32 H 1.380523 -4.265701 2.851860 0
M  V30 33 H 2.516946 -4.510043 4.184038 0
M  V30 34 H 2.276751 -1.539289 3.566252 0
M  V30 35 H 3.648976 -2.282451 4.524033 0
M  V30 36 H 3.983432 -1.303830 3.077274 0
M  V30 37 H 4.764539 -4.443227 2.703850 0
M  V30 38 H 2.392185 -3.529399 0.613986 0
M  V30 39 H 1.579067 -2.316064 1.711279 0
M  V30 40 H 3.670221 -0.248215 -0.486722 0
M  V30 41 H 3.038599 -1.807212 -1.122974 0
M  V30 42 H 2.402818 0.402166 -2.143716 0
M  V30 43 H 0.985633 1.258166 -1.509686 0
M  V30 44 H 0.780284 -0.298076 -2.374779 0
M  V30 45 H 0.997680 1.489555 0.349175 0
M  V30 46 H 0.530696 0.189457 1.488303 0
M  V30 47 H 2.240981 0.662423 1.347329 0
M  V30 48 H 0.516286 -2.460299 -0.273819 0
M  V30 49 H -0.377726 3.314569 -0.359067 0
M  V30 50 H -1.439276 5.615968 -0.361443 0
M  V30 51 H -5.380481 -1.325404 0.074986 0
M  V30 52 H -3.097975 -4.788086 0.043796 0
M  V30 53 H -1.074134 -3.494865 -0.110015 0
M  V30 END ATOM
M  V30 BEGIN BOND
M  V30 1 1 1 2
M  V30 2 1 2 3
M  V30 3 1 2 4
M  V30 4 1 2 5
M  V30 5 1 5 6
M  V30 6 1 6 7
M  V30 7 1 7 8
M  V30 8 1 8 9
M  V30 9 1 8 10
M  V30 10 1 8 11
M  V30 11 1 11 12
M  V30 12 2 12 13
M  V30 13 1 13 14
M  V30 14 1 14 15
M  V30 15 2 15 16
M  V30 16 1 16 17
M  V30 17 1 17 18
M  V30 18 2 18 19
M  V30 19 1 19 20
M  V30 20 1 20 21
M  V30 21 1 20 22
M  V30 22 1 20 23
M  V30 23 2 14 24
M  V30 24 1 24 25
M  V30 25 2 25 26
M  V30 26 1 26 27
M  V30 27 2 27 28
M  V30 28 1 28 29
M  V30 29 2 29 30
M  V30 30 1 30 12
M  V30 31 1 19 15
M  V30 32 1 30 25
M  V30 33 1 1 31
M  V30 34 1 1 32
M  V30 35 1 1 33
M  V30 36 1 3 34
M  V30 37 1 3 35
M  V30 38 1 3 36
M  V30 39 1 4 37
M  V30 40 1 5 38
M  V30 41 1 5 39
M  V30 42 1 7 40
M  V30 43 1 7 41
M  V30 44 1 9 42
M  V30 45 1 9 43
M  V30 46 1 9 44
M  V30 47 1 10 45
M  V30 48 1 10 46
M  V30 49 1 10 47
M  V30 50 1 11 48
M  V30 51 1 16 49
M  V30 52 1 17 50
M  V30 53 1 26 51
M  V30 54 1 28 52
M  V30 55 1 29 53
M  V30 END BOND
M  V30 END CTAB
M  END
>  <Dataset>  (694) 
ChEMBL_Kinases

>  <Ligand_Instance>  (694) 
nan

>  <PDB_ID>  (694) 
nan

>  <Standardized_SMILES>  (694) 
CC(C)(O)COCC(C)(C)Nc1nc(-c2c[nH]nc2C(F)(F)F)nc2cnccc12

>  <Name>  (694) 
nan

>  <Pocket>  (694) 
nan

>  <ATP_Site>  (694) 
nan

>  <Peripheral>  (694) 
nan

>  <Num_H_Atoms_ProtBoundConf>  (694) 
nan

>  <Num_Resolved_Atoms>  (694) 
nan

>  <Num_Not_Resolved_Atoms>  (694) 
nan

$$$$
CHEMBL4747653
     RDKit          3D

  0  0  0  0  0  0  0  0  0  0999 V3000
M  V30 BEGIN CTAB
M  V30 COUNTS 46 50 0 0 0
M  V30 BEGIN ATOM
M  V30 1 C 0.611898 -1.803311 2.892445 0
M  V30 2 C 0.529555 -3.019558 2.086929 0
M  V30 3 C 0.851683 -2.879892 0.755552 0
M  V30 4 C 1.250855 -1.690993 0.014963 0
M  V30 5 C 2.349178 -1.817538 -0.841735 0
M  V30 6 C 2.824250 -0.755068 -1.611171 0
M  V30 7 C 2.205479 0.475028 -1.541924 0
M  V30 8 C 1.128140 0.553116 -0.685360 0
M  V30 9 C 0.624109 -0.465566 0.091877 0
M  V30 10 C 0.622537 1.926667 -0.760195 0
M  V30 11 C -0.395264 2.547973 -0.171011 0
M  V30 12 C -0.837126 3.929561 -0.294590 0
M  V30 13 C -0.353479 5.214867 -0.285812 0
M  V30 14 C -1.364535 6.128851 -0.491468 0
M  V30 15 C -1.158619 7.545666 -0.532781 0
M  V30 16 N -0.994298 8.695233 -0.553723 0
M  V30 17 C -2.508105 5.372178 -0.630464 0
M  V30 18 N -2.178844 4.070206 -0.511069 0
M  V30 19 C 1.462419 2.621693 -1.698795 0
M  V30 20 O 1.447641 3.797617 -2.110088 0
M  V30 21 N 2.446727 1.719819 -2.184597 0
M  V30 22 C 0.789424 -4.031464 -0.033573 0
M  V30 23 N 0.431278 -5.255183 0.451925 0
M  V30 24 C 0.112280 -5.405244 1.758243 0
M  V30 25 C 0.171327 -4.257036 2.557631 0
M  V30 26 N -0.173768 -4.394327 3.931142 0
M  V30 27 C -1.163646 -5.418013 4.304336 0
M  V30 28 C -0.724240 -6.706610 3.670349 0
M  V30 29 O -0.258758 -6.578523 2.348759 0
M  V30 30 H 1.269641 -1.026346 2.451492 0
M  V30 31 H -0.419670 -1.464191 3.101021 0
M  V30 32 H 1.057792 -2.045077 3.897121 0
M  V30 33 H 2.860309 -2.773973 -0.919724 0
M  V30 34 H 3.687939 -0.900422 -2.267031 0
M  V30 35 H -0.225029 -0.337541 0.738250 0
M  V30 36 H -0.934768 1.849638 0.499971 0
M  V30 37 H 0.701072 5.363034 -0.113964 0
M  V30 38 H -3.446685 5.889301 -0.803280 0
M  V30 39 H -3.003402 3.406708 -0.606426 0
M  V30 40 H 3.214935 1.871292 -2.869697 0
M  V30 41 H 1.014577 -4.059749 -1.079060 0
M  V30 42 H 0.303121 -3.746215 4.597556 0
M  V30 43 H -1.144248 -5.520107 5.402002 0
M  V30 44 H -2.176663 -5.119015 3.936264 0
M  V30 45 H 0.007120 -7.179215 4.367020 0
M  V30 46 H -1.625840 -7.374741 3.630592 0
M  V30 END ATOM
M  V30 BEGIN BOND
M  V30 1 1 1 2
M  V30 2 2 2 3
M  V30 3 1 3 4
M  V30 4 2 4 5
M  V30 5 1 5 6
M  V30 6 2 6 7
M  V30 7 1 7 8
M  V30 8 2 8 9
M  V30 9 1 8 10
M  V30 10 2 10 11
M  V30 11 1 11 12
M  V30 12 2 12 13
M  V30 13 1 13 14
M  V30 14 1 14 15
M  V30 15 3 15 16
M  V30 16 2 14 17
M  V30 17 1 17 18
M  V30 18 1 10 19
M  V30 19 2 19 20
M  V30 20 1 19 21
M  V30 21 1 3 22
M  V30 22 2 22 23
M  V30 23 1 23 24
M  V30 24 2 24 25
M  V30 25 1 25 26
M  V30 26 1 26 27
M  V30 27 1 27 28
M  V30 28 1 28 29
M  V30 29 1 25 2
M  V30 30 1 9 4
M  V30 31 1 18 12
M  V30 32 1 29 24
M  V30 33 1 21 7
M  V30 34 1 1 30
M  V30 35 1 1 31
M  V30 36 1 1 32
M  V30 37 1 5 33
M  V30 38 1 6 34
M  V30 39 1 9 35
M  V30 40 1 11 36
M  V30 41 1 13 37
M  V30 42 1 17 38
M  V30 43 1 18 39
M  V30 44 1 21 40
M  V30 45 1 22 41
M  V30 46 1 26 42
M  V30 47 1 27 43
M  V30 48 1 27 44
M  V30 49 1 28 45
M  V30 50 1 28 46
M  V30 END BOND
M  V30 END CTAB
M  END
>  <Dataset>  (695) 
ChEMBL_Kinases

>  <Ligand_Instance>  (695) 
nan

>  <PDB_ID>  (695) 
nan

>  <Standardized_SMILES>  (695) 
Cc1c(-c2ccc3c(c2)/C(=C/c2cc(C#N)c[nH]2)C(=O)N3)cnc2c1NCCO2

>  <Name>  (695) 
nan

>  <Pocket>  (695) 
nan

>  <ATP_Site>  (695) 
nan

>  <Peripheral>  (695) 
nan

>  <Num_H_Atoms_ProtBoundConf>  (695) 
nan

>  <Num_Resolved_Atoms>  (695) 
nan

>  <Num_Not_Resolved_Atoms>  (695) 
nan

$$$$
CHEMBL4747690
     RDKit          3D

  0  0  0  0  0  0  0  0  0  0999 V3000
M  V30 BEGIN CTAB
M  V30 COUNTS 114 120 0 0 0
M  V30 BEGIN ATOM
M  V30 1 C 5.041767 3.389254 3.503838 0
M  V30 2 C 5.533737 3.585986 2.080941 0
M  V30 3 C 7.036711 3.911596 2.253560 0
M  V30 4 C 5.480100 2.276222 1.397590 0
M  V30 5 C 6.543198 1.387629 1.194451 0
M  V30 6 C 6.154766 0.271221 0.514492 0
M  V30 7 N 4.848831 0.441590 0.283100 0
M  V30 8 N 4.022500 -0.376316 -0.347114 0
M  V30 9 C 2.736370 -0.027859 -0.479873 0
M  V30 10 N 2.267084 1.137699 0.015256 0
M  V30 11 C 3.095218 1.992599 0.664925 0
M  V30 12 N 2.569154 3.199533 1.161738 0
M  V30 13 C 1.156373 3.410415 0.868623 0 CFG=1
M  V30 14 C 0.591344 4.669413 1.419666 0
M  V30 15 C -0.875699 4.764961 1.066296 0
M  V30 16 C -1.072407 4.801296 -0.426770 0 CFG=1
M  V30 17 N -1.754132 5.937755 -0.834567 0
M  V30 18 C -3.102749 6.111915 -0.438331 0
M  V30 19 C -3.945597 5.985172 -1.724070 0
M  V30 20 N -3.190217 5.191644 -2.651095 0
M  V30 21 C -3.539796 3.843333 -2.905219 0
M  V30 22 O -4.580102 3.625911 -2.200670 0
M  V30 23 C -2.955574 2.787186 -3.749381 0
M  V30 24 C -3.673796 1.457312 -3.490786 0
M  V30 25 C -2.968036 0.447706 -4.352227 0
M  V30 26 O -2.065398 0.430812 -5.227691 0
M  V30 27 N -3.459356 -0.871032 -4.099613 0
M  V30 28 C -2.952512 -2.063578 -4.769404 0
M  V30 29 C -3.621605 -3.329729 -4.320908 0
M  V30 30 C -3.018252 -4.534326 -5.001955 0
M  V30 31 C -1.536017 -4.649202 -4.706868 0
M  V30 32 C -1.228484 -4.734370 -3.260168 0
M  V30 33 C -1.858459 -5.921536 -2.592268 0
M  V30 34 N -1.551492 -5.942393 -1.158447 0
M  V30 35 C -1.912187 -6.880213 -0.171198 0
M  V30 36 C -2.648609 -7.961680 -0.572757 0
M  V30 37 C -3.043897 -8.933832 0.324068 0
M  V30 38 C -2.708809 -8.849294 1.668510 0
M  V30 39 C -1.966523 -7.742183 2.028173 0
M  V30 40 C -1.550999 -6.751088 1.169555 0
M  V30 41 C -0.802722 -5.720321 1.835261 0
M  V30 42 O -0.281872 -4.685181 1.364919 0
M  V30 43 N -0.729171 -6.072021 3.232493 0
M  V30 44 C -0.076550 -5.316490 4.283240 0
M  V30 45 C 1.025062 -6.062925 4.937532 0
M  V30 46 C 0.786839 -6.473807 6.359941 0
M  V30 47 C -0.037782 -5.559961 7.148380 0
M  V30 48 O 0.137745 -5.506308 8.409784 0
M  V30 49 N -1.040973 -4.705150 6.627846 0
M  V30 50 C -1.086945 -4.743422 5.218544 0
M  V30 51 O -2.057327 -4.262851 4.539337 0
M  V30 52 C -1.443278 -7.302667 3.318041 0
M  V30 53 O -1.561689 -7.883112 4.434060 0
M  V30 54 C -2.110160 6.041428 -3.168922 0
M  V30 55 C -1.334235 6.640427 -1.985459 0
M  V30 56 C 0.250562 4.557926 -1.124962 0
M  V30 57 C 0.873010 3.293608 -0.589648 0
M  V30 58 C 4.414297 1.609720 0.787420 0
M  V30 59 H 5.698204 2.573202 3.925428 0
M  V30 60 H 4.011050 3.001869 3.551017 0
M  V30 61 H 5.244520 4.272947 4.109466 0
M  V30 62 H 5.120729 4.429077 1.545381 0
M  V30 63 H 7.496829 4.243460 1.318574 0
M  V30 64 H 7.563974 3.111333 2.791614 0
M  V30 65 H 7.038168 4.791255 2.949589 0
M  V30 66 H 7.582868 1.517875 1.518781 0
M  V30 67 H 6.763791 -0.580627 0.217677 0
M  V30 68 H 2.021326 -0.670633 -0.989728 0
M  V30 69 H 2.901146 4.009373 1.695801 0
M  V30 70 H 0.641553 2.565661 1.409751 0
M  V30 71 H 1.100510 5.540369 0.935602 0
M  V30 72 H 0.729557 4.752505 2.530897 0
M  V30 73 H -1.358860 5.644127 1.547882 0
M  V30 74 H -1.324417 3.802450 1.447868 0
M  V30 75 H -1.705278 3.905370 -0.735567 0
M  V30 76 H -3.390807 5.294335 0.241558 0
M  V30 77 H -3.310422 7.072193 0.047038 0
M  V30 78 H -4.850846 5.417164 -1.430732 0
M  V30 79 H -4.218067 6.994525 -2.102564 0
M  V30 80 H -3.106028 3.067329 -4.809112 0
M  V30 81 H -1.881116 2.609519 -3.529174 0
M  V30 82 H -4.717630 1.595464 -3.805520 0
M  V30 83 H -3.597877 1.189913 -2.424869 0
M  V30 84 H -4.226533 -1.092883 -3.411392 0
M  V30 85 H -3.059159 -1.887376 -5.858090 0
M  V30 86 H -1.853182 -2.180413 -4.584201 0
M  V30 87 H -3.737907 -3.413845 -3.243454 0
M  V30 88 H -4.675357 -3.271095 -4.729361 0
M  V30 89 H -3.125845 -4.388244 -6.093854 0
M  V30 90 H -3.561545 -5.458310 -4.734919 0
M  V30 91 H -1.204645 -5.618057 -5.168814 0
M  V30 92 H -0.935458 -3.874091 -5.212088 0
M  V30 93 H -1.388419 -3.790756 -2.702219 0
M  V30 94 H -0.114113 -4.902946 -3.182800 0
M  V30 95 H -2.965409 -5.961283 -2.744499 0
M  V30 96 H -1.451306 -6.863063 -3.010371 0
M  V30 97 H -0.970637 -5.134564 -0.808776 0
M  V30 98 H -2.993473 -8.178875 -1.580631 0
M  V30 99 H -3.634172 -9.821071 0.053843 0
M  V30 100 H -2.960850 -9.544225 2.461957 0
M  V30 101 H 0.372285 -4.404589 3.783890 0
M  V30 102 H 1.161475 -7.028400 4.364809 0
M  V30 103 H 2.015051 -5.549196 4.800749 0
M  V30 104 H 0.464597 -7.549730 6.450756 0
M  V30 105 H 1.806059 -6.477649 6.847214 0
M  V30 106 H -1.700783 -4.094770 7.140219 0
M  V30 107 H -2.584765 6.816930 -3.780498 0
M  V30 108 H -1.447825 5.423885 -3.779772 0
M  V30 109 H -1.647469 7.692711 -1.902959 0
M  V30 110 H -0.264699 6.587446 -2.144215 0
M  V30 111 H 0.014248 4.351491 -2.205045 0
M  V30 112 H 0.947907 5.393513 -1.040978 0
M  V30 113 H 1.860952 3.157719 -1.120036 0
M  V30 114 H 0.288577 2.390471 -0.857682 0
M  V30 END ATOM
M  V30 BEGIN BOND
M  V30 1 1 1 2
M  V30 2 1 2 3
M  V30 3 1 2 4
M  V30 4 1 4 5
M  V30 5 2 5 6
M  V30 6 1 6 7
M  V30 7 1 7 8
M  V30 8 2 8 9
M  V30 9 1 9 10
M  V30 10 2 10 11
M  V30 11 1 11 12
M  V30 12 1 12 13
M  V30 13 1 13 14
M  V30 14 1 14 15
M  V30 15 1 15 16
M  V30 16 1 16 17
M  V30 17 1 17 18
M  V30 18 1 18 19
M  V30 19 1 19 20
M  V30 20 1 20 21
M  V30 21 2 21 22
M  V30 22 1 21 23
M  V30 23 1 23 24
M  V30 24 1 24 25
M  V30 25 2 25 26
M  V30 26 1 25 27
M  V30 27 1 27 28
M  V30 28 1 28 29
M  V30 29 1 29 30
M  V30 30 1 30 31
M  V30 31 1 31 32
M  V30 32 1 32 33
M  V30 33 1 33 34
M  V30 34 1 34 35
M  V30 35 2 35 36
M  V30 36 1 36 37
M  V30 37 2 37 38
M  V30 38 1 38 39
M  V30 39 2 39 40
M  V30 40 1 40 41
M  V30 41 2 41 42
M  V30 42 1 41 43
M  V30 43 1 43 44
M  V30 44 1 44 45
M  V30 45 1 45 46
M  V30 46 1 46 47
M  V30 47 2 47 48
M  V30 48 1 47 49
M  V30 49 1 49 50
M  V30 50 2 50 51
M  V30 51 1 43 52
M  V30 52 2 52 53
M  V30 53 1 20 54
M  V30 54 1 54 55
M  V30 55 1 16 56
M  V30 56 1 56 57
M  V30 57 1 11 58
M  V30 58 2 58 4
M  V30 59 1 58 7
M  V30 60 1 57 13
M  V30 61 1 55 17
M  V30 62 1 40 35
M  V30 63 1 50 44
M  V30 64 1 52 39
M  V30 65 1 1 59
M  V30 66 1 1 60
M  V30 67 1 1 61
M  V30 68 1 2 62
M  V30 69 1 3 63
M  V30 70 1 3 64
M  V30 71 1 3 65
M  V30 72 1 5 66
M  V30 73 1 6 67
M  V30 74 1 9 68
M  V30 75 1 12 69
M  V30 76 1 13 70 CFG=1
M  V30 77 1 14 71
M  V30 78 1 14 72
M  V30 79 1 15 73
M  V30 80 1 15 74
M  V30 81 1 16 75 CFG=3
M  V30 82 1 18 76
M  V30 83 1 18 77
M  V30 84 1 19 78
M  V30 85 1 19 79
M  V30 86 1 23 80
M  V30 87 1 23 81
M  V30 88 1 24 82
M  V30 89 1 24 83
M  V30 90 1 27 84
M  V30 91 1 28 85
M  V30 92 1 28 86
M  V30 93 1 29 87
M  V30 94 1 29 88
M  V30 95 1 30 89
M  V30 96 1 30 90
M  V30 97 1 31 91
M  V30 98 1 31 92
M  V30 99 1 32 93
M  V30 100 1 32 94
M  V30 101 1 33 95
M  V30 102 1 33 96
M  V30 103 1 34 97
M  V30 104 1 36 98
M  V30 105 1 37 99
M  V30 106 1 38 100
M  V30 107 1 44 101
M  V30 108 1 45 102
M  V30 109 1 45 103
M  V30 110 1 46 104
M  V30 111 1 46 105
M  V30 112 1 49 106
M  V30 113 1 54 107
M  V30 114 1 54 108
M  V30 115 1 55 109
M  V30 116 1 55 110
M  V30 117 1 56 111
M  V30 118 1 56 112
M  V30 119 1 57 113
M  V30 120 1 57 114
M  V30 END BOND
M  V30 END CTAB
M  END
>  <Dataset>  (696) 
ChEMBL_Kinases

>  <Ligand_Instance>  (696) 
nan

>  <PDB_ID>  (696) 
nan

>  <Standardized_SMILES>  (696) 
CC(C)c1ccn2ncnc(N[C@H]3CC[C@@H](N4CCN(C(=O)CCC(=O)NCCCCCCNc5cccc6c5C(=O)N(C5CCC(=O)NC5=O)C6=O)CC4)CC3)c12

>  <Name>  (696) 
nan

>  <Pocket>  (696) 
nan

>  <ATP_Site>  (696) 
nan

>  <Peripheral>  (696) 
nan

>  <Num_H_Atoms_ProtBoundConf>  (696) 
nan

>  <Num_Resolved_Atoms>  (696) 
nan

>  <Num_Not_Resolved_Atoms>  (696) 
nan

$$$$
CHEMBL4747695
     RDKit          3D

  0  0  0  0  0  0  0  0  0  0999 V3000
M  V30 BEGIN CTAB
M  V30 COUNTS 33 35 0 0 0
M  V30 BEGIN ATOM
M  V30 1 C -1.409097 -3.567033 3.973933 0
M  V30 2 N -1.801097 -3.521603 2.581405 0
M  V30 3 C -1.204277 -2.945240 1.440781 0
M  V30 4 N -0.032420 -2.309003 1.677025 0
M  V30 5 C 0.649767 -1.716366 0.678264 0
M  V30 6 N 1.835252 -0.973061 0.442552 0
M  V30 7 C 1.949214 0.397838 0.095905 0
M  V30 8 C 3.246810 0.830706 -0.210826 0
M  V30 9 N 3.396958 2.133350 -0.578096 0
M  V30 10 C 2.332622 2.979063 -0.643807 0
M  V30 11 N 2.315076 4.268493 -0.989741 0
M  V30 12 C 1.021144 4.707835 -0.918012 0
M  V30 13 C 0.196387 3.651114 -0.509766 0
M  V30 14 C 1.028348 2.562747 -0.338131 0
M  V30 15 C 0.868823 1.247110 0.034183 0
M  V30 16 N 0.129432 -1.772097 -0.583166 0
M  V30 17 C -1.050419 -2.405471 -0.861075 0
M  V30 18 C -1.735161 -3.006683 0.171954 0
M  V30 19 C -2.998493 -3.736378 -0.083043 0
M  V30 20 F -3.403100 -3.657580 -1.400082 0
M  V30 21 F -4.046835 -3.371472 0.715073 0
M  V30 22 F -2.712599 -5.066626 0.241452 0
M  V30 23 H -0.728696 -2.720961 4.201692 0
M  V30 24 H -2.275166 -3.550581 4.653670 0
M  V30 25 H -0.776348 -4.491262 4.110373 0
M  V30 26 H -2.695980 -4.016809 2.413728 0
M  V30 27 H 2.569034 -1.682226 0.591637 0
M  V30 28 H 4.105679 0.145184 -0.159365 0
M  V30 29 H 3.075591 4.949492 -1.293161 0
M  V30 30 H 0.618382 5.702015 -1.127616 0
M  V30 31 H -0.863832 3.582175 -0.333539 0
M  V30 32 H -0.132251 0.864337 0.288949 0
M  V30 33 H -1.531767 -2.493080 -1.848042 0
M  V30 END ATOM
M  V30 BEGIN BOND
M  V30 1 1 1 2
M  V30 2 1 2 3
M  V30 3 2 3 4
M  V30 4 1 4 5
M  V30 5 1 5 6
M  V30 6 1 6 7
M  V30 7 2 7 8
M  V30 8 1 8 9
M  V30 9 2 9 10
M  V30 10 1 10 11
M  V30 11 1 11 12
M  V30 12 2 12 13
M  V30 13 1 13 14
M  V30 14 2 14 15
M  V30 15 2 5 16
M  V30 16 1 16 17
M  V30 17 2 17 18
M  V30 18 1 18 19
M  V30 19 1 19 20
M  V30 20 1 19 21
M  V30 21 1 19 22
M  V30 22 1 18 3
M  V30 23 1 15 7
M  V30 24 1 14 10
M  V30 25 1 1 23
M  V30 26 1 1 24
M  V30 27 1 1 25
M  V30 28 1 2 26
M  V30 29 1 6 27
M  V30 30 1 8 28
M  V30 31 1 11 29
M  V30 32 1 12 30
M  V30 33 1 13 31
M  V30 34 1 15 32
M  V30 35 1 17 33
M  V30 END BOND
M  V30 END CTAB
M  END
>  <Dataset>  (697) 
ChEMBL_Kinases

>  <Ligand_Instance>  (697) 
nan

>  <PDB_ID>  (697) 
nan

>  <Standardized_SMILES>  (697) 
CNc1nc(Nc2cnc3[nH]ccc3c2)ncc1C(F)(F)F

>  <Name>  (697) 
nan

>  <Pocket>  (697) 
nan

>  <ATP_Site>  (697) 
nan

>  <Peripheral>  (697) 
nan

>  <Num_H_Atoms_ProtBoundConf>  (697) 
nan

>  <Num_Resolved_Atoms>  (697) 
nan

>  <Num_Not_Resolved_Atoms>  (697) 
nan

$$$$
CHEMBL4747753
     RDKit          3D

  0  0  0  0  0  0  0  0  0  0999 V3000
M  V30 BEGIN CTAB
M  V30 COUNTS 37 39 0 0 0
M  V30 BEGIN ATOM
M  V30 1 C 4.634300 -4.834270 3.087999 0
M  V30 2 C 3.643625 -4.244553 2.126829 0
M  V30 3 O 2.534811 -4.236582 2.713337 0
M  V30 4 N 3.885298 -3.782671 0.817008 0
M  V30 5 C 2.632139 -3.305827 0.287230 0
M  V30 6 C 1.867764 -4.243127 -0.378047 0
M  V30 7 C 0.649344 -3.792383 -0.896640 0
M  V30 8 C 0.248392 -2.482583 -0.743718 0
M  V30 9 C 1.088537 -1.643954 -0.065875 0
M  V30 10 C 0.677240 -0.196481 0.119887 0
M  V30 11 C 1.233247 0.846430 0.703605 0
M  V30 12 C 0.572751 2.006931 0.677557 0
M  V30 13 N 1.007909 3.184319 1.234641 0
M  V30 14 C 0.244777 4.282921 1.137038 0
M  V30 15 N -0.973788 4.412716 0.529587 0
M  V30 16 C -1.409444 3.245974 -0.024777 0
M  V30 17 S -2.972892 3.053074 -0.904084 0
M  V30 18 C -4.259217 2.589534 0.302975 0
M  V30 19 C -5.586642 2.408103 -0.334318 0
M  V30 20 O -6.372925 3.385071 -0.439963 0
M  V30 21 O -6.119777 1.243345 -0.863988 0
M  V30 22 C -0.606467 2.060862 0.069828 0
M  V30 23 S -0.834968 0.451748 -0.498399 0
M  V30 24 C 2.300769 -1.980895 0.481185 0
M  V30 25 H 4.634946 -4.237325 4.042227 0
M  V30 26 H 4.317993 -5.870502 3.287596 0
M  V30 27 H 5.664476 -4.842982 2.661171 0
M  V30 28 H 4.861121 -3.867120 0.498403 0
M  V30 29 H 2.187715 -5.267040 -0.494169 0
M  V30 30 H 0.037119 -4.517015 -1.422317 0
M  V30 31 H -0.702606 -2.153570 -1.154879 0
M  V30 32 H 2.217851 0.632001 1.163965 0
M  V30 33 H 0.615575 5.215907 1.592211 0
M  V30 34 H -4.293517 3.276132 1.160968 0
M  V30 35 H -3.898330 1.612405 0.741038 0
M  V30 36 H -7.083389 0.950345 -0.784037 0
M  V30 37 H 2.953912 -1.315365 1.011900 0
M  V30 END ATOM
M  V30 BEGIN BOND
M  V30 1 1 1 2
M  V30 2 2 2 3
M  V30 3 1 2 4
M  V30 4 1 4 5
M  V30 5 2 5 6
M  V30 6 1 6 7
M  V30 7 2 7 8
M  V30 8 1 8 9
M  V30 9 1 9 10
M  V30 10 2 10 11
M  V30 11 1 11 12
M  V30 12 2 12 13
M  V30 13 1 13 14
M  V30 14 2 14 15
M  V30 15 1 15 16
M  V30 16 1 16 17
M  V30 17 1 17 18
M  V30 18 1 18 19
M  V30 19 2 19 20
M  V30 20 1 19 21
M  V30 21 2 16 22
M  V30 22 1 22 23
M  V30 23 2 9 24
M  V30 24 1 24 5
M  V30 25 1 23 10
M  V30 26 1 22 12
M  V30 27 1 1 25
M  V30 28 1 1 26
M  V30 29 1 1 27
M  V30 30 1 4 28
M  V30 31 1 6 29
M  V30 32 1 7 30
M  V30 33 1 8 31
M  V30 34 1 11 32
M  V30 35 1 14 33
M  V30 36 1 18 34
M  V30 37 1 18 35
M  V30 38 1 21 36
M  V30 39 1 24 37
M  V30 END BOND
M  V30 END CTAB
M  END
>  <Dataset>  (698) 
ChEMBL_Kinases

>  <Ligand_Instance>  (698) 
nan

>  <PDB_ID>  (698) 
nan

>  <Standardized_SMILES>  (698) 
CC(=O)Nc1cccc(-c2cc3ncnc(SCC(=O)O)c3s2)c1

>  <Name>  (698) 
nan

>  <Pocket>  (698) 
nan

>  <ATP_Site>  (698) 
nan

>  <Peripheral>  (698) 
nan

>  <Num_H_Atoms_ProtBoundConf>  (698) 
nan

>  <Num_Resolved_Atoms>  (698) 
nan

>  <Num_Not_Resolved_Atoms>  (698) 
nan

$$$$
CHEMBL4747773
     RDKit          3D

  0  0  0  0  0  0  0  0  0  0999 V3000
M  V30 BEGIN CTAB
M  V30 COUNTS 78 83 0 0 0
M  V30 BEGIN ATOM
M  V30 1 C 4.413868 1.322921 4.474168 0
M  V30 2 C 5.255247 0.550698 3.510193 0
M  V30 3 C 4.511286 -0.090370 2.414514 0 CFG=2
M  V30 4 C 5.467267 -0.914015 1.565166 0
M  V30 5 N 6.600602 -1.488431 2.064366 0
M  V30 6 N 7.111297 -2.231617 1.129285 0
M  V30 7 C 6.358525 -2.184369 -0.009080 0
M  V30 8 C 6.659654 -2.907646 -1.243430 0
M  V30 9 N 5.360660 -1.355580 0.313649 0
M  V30 10 C 4.322417 -0.788535 -0.420102 0
M  V30 11 C 4.123135 -1.228921 -1.696740 0
M  V30 12 N 3.099735 -0.705606 -2.430906 0
M  V30 13 C 2.300603 0.240998 -1.878328 0
M  V30 14 N 1.179960 0.945478 -2.388638 0
M  V30 15 C -0.089323 0.294854 -2.231147 0
M  V30 16 C -0.196900 -0.974512 -1.700938 0
M  V30 17 C -1.356013 -1.692892 -1.514223 0
M  V30 18 C -2.536777 -1.094754 -1.890647 0
M  V30 19 C -3.826540 -1.751292 -1.753510 0
M  V30 20 O -4.884878 -1.061159 -1.939788 0
M  V30 21 N -3.921836 -3.132006 -1.420260 0
M  V30 22 N -4.997663 -3.970582 -1.226721 0
M  V30 23 C -6.292824 -3.353996 -1.290993 0
M  V30 24 C -6.600795 -2.651370 0.008392 0
M  V30 25 N -5.409049 -2.497994 0.794647 0
M  V30 26 C -5.675111 -1.638750 1.938671 0
M  V30 27 C -4.893993 -3.783120 1.207270 0
M  V30 28 C -4.881466 -4.691988 0.012824 0
M  V30 29 C -2.481232 0.179351 -2.428185 0
M  V30 30 C -1.289380 0.876634 -2.603036 0
M  V30 31 O -1.253427 2.148153 -3.142252 0
M  V30 32 C -2.485210 2.736129 -3.519538 0
M  V30 33 N 2.566208 0.612882 -0.629516 0
M  V30 34 C 3.520034 0.189172 0.186529 0
M  V30 35 N 3.699626 0.680033 1.541138 0
M  V30 36 C 3.006105 1.923016 1.744190 0
M  V30 37 C 1.553250 1.874695 1.632354 0
M  V30 38 C 0.729197 1.335620 2.595659 0
M  V30 39 C -0.650587 1.307763 2.572168 0
M  V30 40 C -1.287261 1.876659 1.473426 0
M  V30 41 C -0.541277 2.441661 0.458488 0
M  V30 42 C 0.840669 2.423527 0.569406 0
M  V30 43 H 4.662443 0.988063 5.558432 0
M  V30 44 H 3.330934 1.130228 4.429628 0
M  V30 45 H 4.648508 2.405353 4.516668 0
M  V30 46 H 6.112129 1.186148 3.153873 0
M  V30 47 H 5.734563 -0.295714 4.102915 0
M  V30 48 H 3.817958 -0.865827 2.880544 0
M  V30 49 H 5.937262 -3.726952 -1.496587 0
M  V30 50 H 7.614125 -3.500387 -1.064461 0
M  V30 51 H 6.943428 -2.274638 -2.112810 0
M  V30 52 H 4.654716 -1.955326 -2.258466 0
M  V30 53 H 1.197905 1.866420 -2.854086 0
M  V30 54 H 0.724014 -1.482026 -1.388763 0
M  V30 55 H -1.333894 -2.684975 -1.088529 0
M  V30 56 H -3.060862 -3.720342 -1.273064 0
M  V30 57 H -7.024683 -4.211405 -1.396036 0
M  V30 58 H -6.475788 -2.739246 -2.190524 0
M  V30 59 H -7.343451 -3.244139 0.600274 0
M  V30 60 H -7.030168 -1.660250 -0.241525 0
M  V30 61 H -6.670641 -1.875221 2.332968 0
M  V30 62 H -4.946924 -1.852647 2.773874 0
M  V30 63 H -5.639558 -0.594718 1.630110 0
M  V30 64 H -3.875687 -3.654005 1.623385 0
M  V30 65 H -5.547309 -4.162074 2.032846 0
M  V30 66 H -3.969776 -5.337681 0.041551 0
M  V30 67 H -5.749939 -5.392330 0.149023 0
M  V30 68 H -3.411400 0.675645 -2.736145 0
M  V30 69 H -3.144541 2.741734 -2.607810 0
M  V30 70 H -2.362141 3.758084 -3.908269 0
M  V30 71 H -2.938335 2.050569 -4.272744 0
M  V30 72 H 3.409934 2.596400 0.882921 0
M  V30 73 H 3.387976 2.460116 2.613891 0
M  V30 74 H 1.152055 0.876212 3.477831 0
M  V30 75 H -1.277438 0.880970 3.336844 0
M  V30 76 H -2.370547 1.896832 1.377783 0
M  V30 77 H -1.066570 2.873376 -0.378654 0
M  V30 78 H 1.318749 2.922547 -0.273494 0
M  V30 END ATOM
M  V30 BEGIN BOND
M  V30 1 1 1 2
M  V30 2 1 2 3
M  V30 3 1 3 4
M  V30 4 2 4 5
M  V30 5 1 5 6
M  V30 6 2 6 7
M  V30 7 1 7 8
M  V30 8 1 7 9
M  V30 9 1 9 10
M  V30 10 2 10 11
M  V30 11 1 11 12
M  V30 12 2 12 13
M  V30 13 1 13 14
M  V30 14 1 14 15
M  V30 15 2 15 16
M  V30 16 1 16 17
M  V30 17 2 17 18
M  V30 18 1 18 19
M  V30 19 2 19 20
M  V30 20 1 19 21
M  V30 21 1 21 22
M  V30 22 1 22 23
M  V30 23 1 23 24
M  V30 24 1 24 25
M  V30 25 1 25 26
M  V30 26 1 25 27
M  V30 27 1 27 28
M  V30 28 1 18 29
M  V30 29 2 29 30
M  V30 30 1 30 31
M  V30 31 1 31 32
M  V30 32 1 13 33
M  V30 33 2 33 34
M  V30 34 1 34 35
M  V30 35 1 35 36
M  V30 36 1 36 37
M  V30 37 2 37 38
M  V30 38 1 38 39
M  V30 39 2 39 40
M  V30 40 1 40 41
M  V30 41 2 41 42
M  V30 42 1 35 3
M  V30 43 1 42 37
M  V30 44 1 9 4
M  V30 45 1 34 10
M  V30 46 1 30 15
M  V30 47 1 28 22
M  V30 48 1 1 43
M  V30 49 1 1 44
M  V30 50 1 1 45
M  V30 51 1 2 46
M  V30 52 1 2 47
M  V30 53 1 3 48 CFG=1
M  V30 54 1 8 49
M  V30 55 1 8 50
M  V30 56 1 8 51
M  V30 57 1 11 52
M  V30 58 1 14 53
M  V30 59 1 16 54
M  V30 60 1 17 55
M  V30 61 1 21 56
M  V30 62 1 23 57
M  V30 63 1 23 58
M  V30 64 1 24 59
M  V30 65 1 24 60
M  V30 66 1 26 61
M  V30 67 1 26 62
M  V30 68 1 26 63
M  V30 69 1 27 64
M  V30 70 1 27 65
M  V30 71 1 28 66
M  V30 72 1 28 67
M  V30 73 1 29 68
M  V30 74 1 32 69
M  V30 75 1 32 70
M  V30 76 1 32 71
M  V30 77 1 36 72
M  V30 78 1 36 73
M  V30 79 1 38 74
M  V30 80 1 39 75
M  V30 81 1 40 76
M  V30 82 1 41 77
M  V30 83 1 42 78
M  V30 END BOND
M  V30 END CTAB
M  END
>  <Dataset>  (699) 
ChEMBL_Kinases

>  <Ligand_Instance>  (699) 
nan

>  <PDB_ID>  (699) 
nan

>  <Standardized_SMILES>  (699) 
CC[C@@H]1c2nnc(C)n2-c2cnc(Nc3ccc(C(=O)NN4CCN(C)CC4)cc3OC)nc2N1Cc1ccccc1

>  <Name>  (699) 
nan

>  <Pocket>  (699) 
nan

>  <ATP_Site>  (699) 
nan

>  <Peripheral>  (699) 
nan

>  <Num_H_Atoms_ProtBoundConf>  (699) 
nan

>  <Num_Resolved_Atoms>  (699) 
nan

>  <Num_Not_Resolved_Atoms>  (699) 
nan

$$$$
CHEMBL4452434
     RDKit          3D

  0  0  0  0  0  0  0  0  0  0999 V3000
M  V30 BEGIN CTAB
M  V30 COUNTS 40 43 0 0 0
M  V30 BEGIN ATOM
M  V30 1 C -0.519634 -4.981477 2.272970 0
M  V30 2 C 0.129192 -4.340098 1.100379 0
M  V30 3 C 0.273791 -4.982048 -0.103768 0
M  V30 4 C 0.845422 -4.443656 -1.253423 0
M  V30 5 C 1.284693 -3.121805 -1.069339 0
M  V30 6 C 1.157259 -2.427020 0.144990 0
M  V30 7 N 1.652037 -1.184156 -0.064569 0
M  V30 8 C 2.151970 0.095615 -0.342308 0
M  V30 9 N 3.400550 0.141661 -0.845288 0
M  V30 10 C 4.062937 1.212429 -1.229761 0
M  V30 11 N 3.406402 2.349934 -1.094201 0
M  V30 12 C 2.148263 2.368614 -0.592864 0
M  V30 13 S 1.025651 3.836837 -0.304007 0
M  V30 14 C -0.271044 2.782110 0.334634 0
M  V30 15 C 0.163818 1.502558 0.300719 0
M  V30 16 C 1.424282 1.276570 -0.181166 0
M  V30 17 C -0.771009 0.449481 0.806470 0
M  V30 18 C -1.923776 1.012124 1.515132 0
M  V30 19 N -1.928047 2.365339 1.908557 0
M  V30 20 C -1.206334 2.677319 3.119236 0
M  V30 21 C -1.605766 3.281730 0.828975 0
M  V30 22 C 0.578107 -3.054160 1.216317 0
M  V30 23 H -1.581954 -5.160865 1.941622 0
M  V30 24 H -0.034240 -5.891883 2.634273 0
M  V30 25 H -0.581660 -4.227389 3.092529 0
M  V30 26 H -0.100445 -5.989774 -0.110703 0
M  V30 27 H 0.910006 -5.039489 -2.152685 0
M  V30 28 H 1.722093 -2.784349 -2.028354 0
M  V30 29 H 1.965668 -1.030149 0.958105 0
M  V30 30 H 5.053987 1.274957 -1.633896 0
M  V30 31 H -1.140222 -0.176964 -0.053961 0
M  V30 32 H -0.228030 -0.285577 1.440610 0
M  V30 33 H -2.909714 0.830575 0.978697 0
M  V30 34 H -2.075060 0.409546 2.465587 0
M  V30 35 H -0.850106 3.740394 3.076825 0
M  V30 36 H -0.304365 2.022005 3.152944 0
M  V30 37 H -1.794723 2.473532 4.035197 0
M  V30 38 H -2.362523 3.317881 0.053149 0
M  V30 39 H -1.488953 4.293654 1.284488 0
M  V30 40 H 0.524953 -2.442449 2.103717 0
M  V30 END ATOM
M  V30 BEGIN BOND
M  V30 1 1 1 2
M  V30 2 2 2 3
M  V30 3 1 3 4
M  V30 4 2 4 5
M  V30 5 1 5 6
M  V30 6 1 6 7
M  V30 7 1 7 8
M  V30 8 2 8 9
M  V30 9 1 9 10
M  V30 10 2 10 11
M  V30 11 1 11 12
M  V30 12 1 12 13
M  V30 13 1 13 14
M  V30 14 2 14 15
M  V30 15 1 15 16
M  V30 16 1 15 17
M  V30 17 1 17 18
M  V30 18 1 18 19
M  V30 19 1 19 20
M  V30 20 1 19 21
M  V30 21 2 6 22
M  V30 22 1 22 2
M  V30 23 1 16 8
M  V30 24 2 16 12
M  V30 25 1 21 14
M  V30 26 1 1 23
M  V30 27 1 1 24
M  V30 28 1 1 25
M  V30 29 1 3 26
M  V30 30 1 4 27
M  V30 31 1 5 28
M  V30 32 1 7 29
M  V30 33 1 10 30
M  V30 34 1 17 31
M  V30 35 1 17 32
M  V30 36 1 18 33
M  V30 37 1 18 34
M  V30 38 1 20 35
M  V30 39 1 20 36
M  V30 40 1 20 37
M  V30 41 1 21 38
M  V30 42 1 21 39
M  V30 43 1 22 40
M  V30 END BOND
M  V30 END CTAB
M  END
>  <Dataset>  (700) 
ChEMBL_Kinases

>  <Ligand_Instance>  (700) 
nan

>  <PDB_ID>  (700) 
nan

>  <Standardized_SMILES>  (700) 
Cc1cccc(Nc2ncnc3sc4c(c23)CCN(C)C4)c1

>  <Name>  (700) 
nan

>  <Pocket>  (700) 
nan

>  <ATP_Site>  (700) 
nan

>  <Peripheral>  (700) 
nan

>  <Num_H_Atoms_ProtBoundConf>  (700) 
nan

>  <Num_Resolved_Atoms>  (700) 
nan

>  <Num_Not_Resolved_Atoms>  (700) 
nan

$$$$
CHEMBL4747805
     RDKit          3D

  0  0  0  0  0  0  0  0  0  0999 V3000
M  V30 BEGIN CTAB
M  V30 COUNTS 35 37 0 0 0
M  V30 BEGIN ATOM
M  V30 1 C -0.674325 -3.151289 2.876982 0
M  V30 2 N -0.153442 -3.031859 1.574395 0
M  V30 3 C -0.769775 -3.860665 0.592166 0
M  V30 4 C 1.217827 -2.766580 1.395319 0
M  V30 5 C 1.703557 -1.408334 1.797329 0
M  V30 6 N 1.057557 -0.343092 1.067849 0
M  V30 7 C 1.668190 0.007108 -0.087912 0
M  V30 8 O 2.703951 -0.532732 -0.521434 0
M  V30 9 C 1.048700 1.045014 -0.793804 0
M  V30 10 C 1.673767 1.405613 -1.981710 0
M  V30 11 C 1.079157 2.423391 -2.689043 0
M  V30 12 F 1.705629 2.767981 -3.858789 0
M  V30 13 C -0.076063 3.106891 -2.315861 0
M  V30 14 C -0.649903 2.687816 -1.107661 0
M  V30 15 C -0.091385 1.676783 -0.369520 0
M  V30 16 N -0.637874 1.285162 0.770161 0
M  V30 17 C -1.723878 1.708037 1.421828 0
M  V30 18 S -2.825453 2.860611 1.113178 0
M  V30 19 N -1.839762 0.975837 2.541509 0
M  V30 20 N -0.821064 0.112740 2.561045 0
M  V30 21 C -0.060591 0.291919 1.463342 0
M  V30 22 H -1.755113 -2.902630 2.925972 0
M  V30 23 H -0.094365 -2.624642 3.664569 0
M  V30 24 H -0.628035 -4.242206 3.157347 0
M  V30 25 H -0.978269 -3.281770 -0.334969 0
M  V30 26 H -1.739768 -4.286844 0.923545 0
M  V30 27 H -0.059756 -4.701821 0.353714 0
M  V30 28 H 1.809446 -3.549256 1.927929 0
M  V30 29 H 1.453512 -2.925991 0.310281 0
M  V30 30 H 2.811066 -1.384971 1.644170 0
M  V30 31 H 1.470656 -1.279629 2.878452 0
M  V30 32 H 2.577750 0.918192 -2.334849 0
M  V30 33 H -0.415344 3.880527 -2.982210 0
M  V30 34 H -1.524030 3.237712 -0.871274 0
M  V30 35 H -2.568407 1.011523 3.317243 0
M  V30 END ATOM
M  V30 BEGIN BOND
M  V30 1 1 1 2
M  V30 2 1 2 3
M  V30 3 1 2 4
M  V30 4 1 4 5
M  V30 5 1 5 6
M  V30 6 1 6 7
M  V30 7 2 7 8
M  V30 8 1 7 9
M  V30 9 2 9 10
M  V30 10 1 10 11
M  V30 11 1 11 12
M  V30 12 2 11 13
M  V30 13 1 13 14
M  V30 14 2 14 15
M  V30 15 1 15 16
M  V30 16 1 16 17
M  V30 17 2 17 18
M  V30 18 1 17 19
M  V30 19 1 19 20
M  V30 20 2 20 21
M  V30 21 1 21 6
M  V30 22 1 15 9
M  V30 23 1 21 16
M  V30 24 1 1 22
M  V30 25 1 1 23
M  V30 26 1 1 24
M  V30 27 1 3 25
M  V30 28 1 3 26
M  V30 29 1 3 27
M  V30 30 1 4 28
M  V30 31 1 4 29
M  V30 32 1 5 30
M  V30 33 1 5 31
M  V30 34 1 10 32
M  V30 35 1 13 33
M  V30 36 1 14 34
M  V30 37 1 19 35
M  V30 END BOND
M  V30 END CTAB
M  END
>  <Dataset>  (701) 
ChEMBL_Kinases

>  <Ligand_Instance>  (701) 
nan

>  <PDB_ID>  (701) 
nan

>  <Standardized_SMILES>  (701) 
CN(C)CCn1c(=O)c2cc(F)ccc2n2c(=S)[nH]nc12

>  <Name>  (701) 
nan

>  <Pocket>  (701) 
nan

>  <ATP_Site>  (701) 
nan

>  <Peripheral>  (701) 
nan

>  <Num_H_Atoms_ProtBoundConf>  (701) 
nan

>  <Num_Resolved_Atoms>  (701) 
nan

>  <Num_Not_Resolved_Atoms>  (701) 
nan

$$$$
CHEMBL4747851
     RDKit          3D

  0  0  0  0  0  0  0  0  0  0999 V3000
M  V30 BEGIN CTAB
M  V30 COUNTS 47 50 0 0 0
M  V30 BEGIN ATOM
M  V30 1 C 3.273810 -3.678051 0.022297 0
M  V30 2 C 2.963778 -2.240948 0.407713 0
M  V30 3 C 1.532492 -2.187208 0.827054 0
M  V30 4 N 3.265897 -1.412543 -0.738124 0
M  V30 5 C 3.573222 -1.657939 -2.040962 0
M  V30 6 N 3.766461 -0.511348 -2.696015 0
M  V30 7 N 3.588605 0.495776 -1.832882 0
M  V30 8 C 3.287980 -0.051603 -0.657798 0
M  V30 9 C 3.026982 0.751255 0.523653 0
M  V30 10 C 4.113231 1.259466 1.244111 0
M  V30 11 C 3.763445 2.008251 2.348308 0
M  V30 12 C 2.479874 2.279956 2.774300 0
M  V30 13 C 1.471118 1.738861 2.003989 0
M  V30 14 N 0.098223 1.952514 2.346891 0
M  V30 15 C -0.973741 1.400690 1.562285 0
M  V30 16 O -0.723466 0.713380 0.550373 0
M  V30 17 N -2.343250 1.601580 1.886389 0
M  V30 18 C -3.190659 0.944514 0.942726 0
M  V30 19 C -3.617994 1.623209 -0.198415 0
M  V30 20 C -4.431067 0.878579 -1.028655 0
M  V30 21 N -4.805785 -0.390043 -0.801744 0
M  V30 22 C -4.399260 -1.049821 0.293135 0
M  V30 23 C -4.739415 -2.347819 0.595541 0
M  V30 24 C -4.283986 -2.973130 1.747160 0
M  V30 25 C -3.465741 -2.314464 2.642417 0
M  V30 26 C -3.153099 -1.017967 2.296312 0
M  V30 27 C -3.580406 -0.359116 1.168280 0
M  V30 28 N 1.754296 0.997166 0.911633 0
M  V30 29 H 2.823914 -4.382787 0.749792 0
M  V30 30 H 4.352566 -3.865741 -0.064781 0
M  V30 31 H 2.758227 -3.872391 -0.940725 0
M  V30 32 H 3.655657 -1.999024 1.262929 0
M  V30 33 H 1.031865 -3.198258 0.818026 0
M  V30 34 H 1.488722 -1.864845 1.895892 0
M  V30 35 H 0.894766 -1.562650 0.163115 0
M  V30 36 H 3.622521 -2.694171 -2.375740 0
M  V30 37 H 5.148234 1.092698 0.977238 0
M  V30 38 H 4.608270 2.407498 2.914480 0
M  V30 39 H 2.281931 2.875681 3.651036 0
M  V30 40 H -0.173377 2.511930 3.171998 0
M  V30 41 H -2.505300 2.190452 2.752250 0
M  V30 42 H -3.332378 2.645355 -0.407712 0
M  V30 43 H -4.790206 1.376694 -1.940086 0
M  V30 44 H -5.382323 -2.857321 -0.113166 0
M  V30 45 H -4.563991 -3.994170 1.964850 0
M  V30 46 H -3.076808 -2.743594 3.556812 0
M  V30 47 H -2.503749 -0.462823 2.985413 0
M  V30 END ATOM
M  V30 BEGIN BOND
M  V30 1 1 1 2
M  V30 2 1 2 3
M  V30 3 1 2 4
M  V30 4 1 4 5
M  V30 5 2 5 6
M  V30 6 1 6 7
M  V30 7 2 7 8
M  V30 8 1 8 9
M  V30 9 2 9 10
M  V30 10 1 10 11
M  V30 11 2 11 12
M  V30 12 1 12 13
M  V30 13 1 13 14
M  V30 14 1 14 15
M  V30 15 2 15 16
M  V30 16 1 15 17
M  V30 17 1 17 18
M  V30 18 2 18 19
M  V30 19 1 19 20
M  V30 20 2 20 21
M  V30 21 1 21 22
M  V30 22 2 22 23
M  V30 23 1 23 24
M  V30 24 2 24 25
M  V30 25 1 25 26
M  V30 26 2 26 27
M  V30 27 2 13 28
M  V30 28 1 8 4
M  V30 29 1 28 9
M  V30 30 1 27 18
M  V30 31 1 27 22
M  V30 32 1 1 29
M  V30 33 1 1 30
M  V30 34 1 1 31
M  V30 35 1 2 32
M  V30 36 1 3 33
M  V30 37 1 3 34
M  V30 38 1 3 35
M  V30 39 1 5 36
M  V30 40 1 10 37
M  V30 41 1 11 38
M  V30 42 1 12 39
M  V30 43 1 14 40
M  V30 44 1 17 41
M  V30 45 1 19 42
M  V30 46 1 20 43
M  V30 47 1 23 44
M  V30 48 1 24 45
M  V30 49 1 25 46
M  V30 50 1 26 47
M  V30 END BOND
M  V30 END CTAB
M  END
>  <Dataset>  (702) 
ChEMBL_Kinases

>  <Ligand_Instance>  (702) 
nan

>  <PDB_ID>  (702) 
nan

>  <Standardized_SMILES>  (702) 
CC(C)n1cnnc1-c1cccc(NC(=O)Nc2ccnc3ccccc23)n1

>  <Name>  (702) 
nan

>  <Pocket>  (702) 
nan

>  <ATP_Site>  (702) 
nan

>  <Peripheral>  (702) 
nan

>  <Num_H_Atoms_ProtBoundConf>  (702) 
nan

>  <Num_Resolved_Atoms>  (702) 
nan

>  <Num_Not_Resolved_Atoms>  (702) 
nan

$$$$
CHEMBL4452485
     RDKit          3D

  0  0  0  0  0  0  0  0  0  0999 V3000
M  V30 BEGIN CTAB
M  V30 COUNTS 38 40 0 0 0
M  V30 BEGIN ATOM
M  V30 1 O -0.258353 -3.429458 2.341555 0
M  V30 2 C -0.159501 -2.416716 1.580567 0
M  V30 3 N 0.384981 -2.625780 0.284819 0
M  V30 4 C 0.852362 -3.850437 -0.293532 0
M  V30 5 C 2.185362 -4.259070 0.227382 0
M  V30 6 C 2.409777 -5.075528 1.313662 0
M  V30 7 C 3.718529 -5.378454 1.705755 0
M  V30 8 N 4.787386 -4.889193 1.044183 0
M  V30 9 C 4.586789 -4.080974 -0.032162 0
M  V30 10 C 3.313804 -3.777850 -0.424543 0
M  V30 11 C -0.591583 -1.100809 2.034842 0
M  V30 12 C -0.574894 0.113627 1.339870 0
M  V30 13 C -1.082686 1.117828 2.172726 0
M  V30 14 C -1.254586 2.509411 1.801658 0
M  V30 15 O -1.142007 3.278642 2.819677 0
M  V30 16 C -1.518430 3.218455 0.563057 0
M  V30 17 C -1.101824 4.525407 0.516216 0
M  V30 18 Cl -0.269009 5.342342 1.812765 0
M  V30 19 C -1.329215 5.314959 -0.619579 0
M  V30 20 C -1.980569 4.758012 -1.694371 0
M  V30 21 C -2.391330 3.457649 -1.637531 0
M  V30 22 C -2.181344 2.642121 -0.520321 0
M  V30 23 Cl -2.773536 1.017998 -0.506428 0
M  V30 24 C -1.398464 0.503497 3.356776 0
M  V30 25 N -1.097456 -0.797739 3.240670 0
M  V30 26 H 0.429374 -1.729423 -0.286485 0
M  V30 27 H 0.960696 -3.700447 -1.384944 0
M  V30 28 H 0.114070 -4.653840 -0.081497 0
M  V30 29 H 1.529942 -5.458626 1.830033 0
M  V30 30 H 3.858465 -6.031209 2.575009 0
M  V30 31 H 5.486457 -3.731578 -0.506198 0
M  V30 32 H 3.297600 -3.124188 -1.296449 0
M  V30 33 H -0.182014 0.110374 0.335270 0
M  V30 34 H -1.008230 6.363288 -0.686224 0
M  V30 35 H -2.157906 5.380894 -2.584289 0
M  V30 36 H -2.905202 3.040227 -2.501636 0
M  V30 37 H -1.814382 1.040813 4.191029 0
M  V30 38 H -1.268356 -1.445355 4.050848 0
M  V30 END ATOM
M  V30 BEGIN BOND
M  V30 1 2 1 2
M  V30 2 1 2 3
M  V30 3 1 3 4
M  V30 4 1 4 5
M  V30 5 2 5 6
M  V30 6 1 6 7
M  V30 7 2 7 8
M  V30 8 1 8 9
M  V30 9 2 9 10
M  V30 10 1 2 11
M  V30 11 2 11 12
M  V30 12 1 12 13
M  V30 13 1 13 14
M  V30 14 2 14 15
M  V30 15 1 14 16
M  V30 16 2 16 17
M  V30 17 1 17 18
M  V30 18 1 17 19
M  V30 19 2 19 20
M  V30 20 1 20 21
M  V30 21 2 21 22
M  V30 22 1 22 23
M  V30 23 2 13 24
M  V30 24 1 24 25
M  V30 25 1 10 5
M  V30 26 1 25 11
M  V30 27 1 22 16
M  V30 28 1 3 26
M  V30 29 1 4 27
M  V30 30 1 4 28
M  V30 31 1 6 29
M  V30 32 1 7 30
M  V30 33 1 9 31
M  V30 34 1 10 32
M  V30 35 1 12 33
M  V30 36 1 19 34
M  V30 37 1 20 35
M  V30 38 1 21 36
M  V30 39 1 24 37
M  V30 40 1 25 38
M  V30 END BOND
M  V30 END CTAB
M  END
>  <Dataset>  (703) 
ChEMBL_Kinases

>  <Ligand_Instance>  (703) 
nan

>  <PDB_ID>  (703) 
nan

>  <Standardized_SMILES>  (703) 
O=C(NCc1ccncc1)c1cc(C(=O)c2c(Cl)cccc2Cl)c[nH]1

>  <Name>  (703) 
nan

>  <Pocket>  (703) 
nan

>  <ATP_Site>  (703) 
nan

>  <Peripheral>  (703) 
nan

>  <Num_H_Atoms_ProtBoundConf>  (703) 
nan

>  <Num_Resolved_Atoms>  (703) 
nan

>  <Num_Not_Resolved_Atoms>  (703) 
nan

$$$$
CHEMBL4453393
     RDKit          3D

  0  0  0  0  0  0  0  0  0  0999 V3000
M  V30 BEGIN CTAB
M  V30 COUNTS 38 41 0 0 0
M  V30 BEGIN ATOM
M  V30 1 O 1.660170 -1.744039 2.983080 0
M  V30 2 C 0.497837 -2.171592 2.764396 0
M  V30 3 N 0.213661 -2.712190 1.482716 0
M  V30 4 C 1.168718 -2.799202 0.427478 0
M  V30 5 C 2.088151 -3.748245 0.024359 0
M  V30 6 N 2.742703 -3.283606 -1.070554 0
M  V30 7 C 2.260574 -2.070152 -1.366270 0
M  V30 8 N 2.616102 -1.232182 -2.375899 0
M  V30 9 C 1.999806 -0.041889 -2.498288 0
M  V30 10 C 1.009591 0.368399 -1.630618 0
M  V30 11 C 0.307310 1.637639 -1.708044 0
M  V30 12 C -1.004800 1.736398 -1.286921 0
M  V30 13 C -1.629135 2.980290 -1.384272 0
M  V30 14 C -0.940300 4.072231 -1.889860 0
M  V30 15 F -1.660377 5.221867 -1.931280 0
M  V30 16 C 0.367543 3.937118 -2.300475 0
M  V30 17 C 1.006884 2.710758 -2.212596 0
M  V30 18 C 0.659123 -0.494596 -0.609181 0
M  V30 19 C 1.275399 -1.722424 -0.460182 0
M  V30 20 C -0.480979 -2.083908 3.841044 0
M  V30 21 C -0.065773 -1.533754 5.036637 0
M  V30 22 C -0.953885 -1.426160 6.092311 0
M  V30 23 C -2.252391 -1.870899 5.942221 0
M  V30 24 N -2.612598 -2.398603 4.763134 0
M  V30 25 C -1.781204 -2.524204 3.704824 0
M  V30 26 H -0.743640 -3.072969 1.278223 0
M  V30 27 H 2.152915 -4.660732 0.595241 0
M  V30 28 H 3.482224 -3.870624 -1.519658 0
M  V30 29 H 2.275826 0.647166 -3.309395 0
M  V30 30 H -1.547610 0.886921 -0.891290 0
M  V30 31 H -2.646118 3.038518 -1.053381 0
M  V30 32 H 0.824324 4.849011 -2.682390 0
M  V30 33 H 2.024720 2.676785 -2.549962 0
M  V30 34 H -0.119081 -0.220628 0.107105 0
M  V30 35 H 0.944269 -1.172953 5.195405 0
M  V30 36 H -0.597585 -0.985686 7.029269 0
M  V30 37 H -2.949010 -1.787142 6.768481 0
M  V30 38 H -2.118645 -2.955854 2.776772 0
M  V30 END ATOM
M  V30 BEGIN BOND
M  V30 1 2 1 2
M  V30 2 1 2 3
M  V30 3 1 3 4
M  V30 4 2 4 5
M  V30 5 1 5 6
M  V30 6 1 6 7
M  V30 7 2 7 8
M  V30 8 1 8 9
M  V30 9 2 9 10
M  V30 10 1 10 11
M  V30 11 2 11 12
M  V30 12 1 12 13
M  V30 13 2 13 14
M  V30 14 1 14 15
M  V30 15 1 14 16
M  V30 16 2 16 17
M  V30 17 1 10 18
M  V30 18 2 18 19
M  V30 19 1 2 20
M  V30 20 2 20 21
M  V30 21 1 21 22
M  V30 22 2 22 23
M  V30 23 1 23 24
M  V30 24 2 24 25
M  V30 25 1 19 4
M  V30 26 1 25 20
M  V30 27 1 19 7
M  V30 28 1 17 11
M  V30 29 1 3 26
M  V30 30 1 5 27
M  V30 31 1 6 28
M  V30 32 1 9 29
M  V30 33 1 12 30
M  V30 34 1 13 31
M  V30 35 1 16 32
M  V30 36 1 17 33
M  V30 37 1 18 34
M  V30 38 1 21 35
M  V30 39 1 22 36
M  V30 40 1 23 37
M  V30 41 1 25 38
M  V30 END BOND
M  V30 END CTAB
M  END
>  <Dataset>  (704) 
ChEMBL_Kinases

>  <Ligand_Instance>  (704) 
nan

>  <PDB_ID>  (704) 
nan

>  <Standardized_SMILES>  (704) 
O=C(Nc1c[nH]c2ncc(-c3ccc(F)cc3)cc12)c1cccnc1

>  <Name>  (704) 
nan

>  <Pocket>  (704) 
nan

>  <ATP_Site>  (704) 
nan

>  <Peripheral>  (704) 
nan

>  <Num_H_Atoms_ProtBoundConf>  (704) 
nan

>  <Num_Resolved_Atoms>  (704) 
nan

>  <Num_Not_Resolved_Atoms>  (704) 
nan

$$$$
CHEMBL4747194
     RDKit          3D

  0  0  0  0  0  0  0  0  0  0999 V3000
M  V30 BEGIN CTAB
M  V30 COUNTS 59 63 0 0 0
M  V30 BEGIN ATOM
M  V30 1 C 6.056811 -0.990335 2.388706 0
M  V30 2 O 6.285660 0.331289 1.939549 0
M  V30 3 C 5.300247 1.210363 1.560592 0
M  V30 4 C 5.484410 2.503773 1.118205 0
M  V30 5 C 4.411898 3.295199 0.763992 0
M  V30 6 C 3.109272 2.859969 0.825409 0
M  V30 7 C 1.953817 3.670524 0.460772 0
M  V30 8 C 2.054999 4.971521 0.016890 0
M  V30 9 C 0.987274 5.771387 -0.334831 0
M  V30 10 N -0.241829 5.237028 -0.235386 0
M  V30 11 C -0.379054 3.951709 0.200478 0
M  V30 12 N -1.692560 3.395552 0.303768 0
M  V30 13 C -2.019457 2.050382 0.741131 0 CFG=1
M  V30 14 C -3.505692 1.775406 0.759859 0
M  V30 15 O -3.564759 0.388209 0.726761 0
M  V30 16 C -2.585559 -0.051438 -0.139453 0 CFG=1
M  V30 17 C -1.600700 1.044439 -0.337275 0 CFG=2
M  V30 18 O -0.340412 0.567665 -0.111394 0
M  V30 19 C -0.397073 -0.568137 0.654882 0
M  V30 20 C -1.772638 -1.137343 0.483540 0 CFG=2
M  V30 21 N -1.741668 -2.357650 -0.332550 0
M  V30 22 C -2.104202 -3.657745 0.068295 0
M  V30 23 O -2.510021 -3.901330 1.228741 0
M  V30 24 N -1.984626 -4.674791 -0.913399 0
M  V30 25 C -2.333542 -6.013634 -0.579120 0
M  V30 26 C -1.239696 -6.725062 -0.076855 0
M  V30 27 C -1.362855 -8.043835 0.308362 0
M  V30 28 C -2.594321 -8.672928 0.194482 0
M  V30 29 C -3.667246 -7.965339 -0.301270 0
M  V30 30 C -4.977298 -8.563748 -0.444819 0
M  V30 31 N -6.030890 -9.065937 -0.567765 0
M  V30 32 C -3.554473 -6.647443 -0.688848 0
M  V30 33 N 0.681012 3.219037 0.528386 0
M  V30 34 C 2.881856 1.572165 1.262771 0
M  V30 35 C 3.981424 0.786094 1.616999 0
M  V30 36 H 5.492671 -1.510555 1.579546 0
M  V30 37 H 7.045546 -1.492465 2.485192 0
M  V30 38 H 5.569298 -1.061674 3.364619 0
M  V30 39 H 6.498127 2.862914 1.063240 0
M  V30 40 H 4.619816 4.299509 0.424924 0
M  V30 41 H 3.022712 5.444230 -0.079423 0
M  V30 42 H 1.110851 6.791801 -0.679871 0
M  V30 43 H -2.528314 3.988815 0.046267 0
M  V30 44 H -1.538480 1.842509 1.705057 0
M  V30 45 H -3.977506 2.235507 -0.112837 0
M  V30 46 H -3.903861 2.175818 1.715028 0
M  V30 47 H -2.996237 -0.317749 -1.141328 0
M  V30 48 H -1.644310 1.499905 -1.341801 0
M  V30 49 H 0.405481 -1.286243 0.394364 0
M  V30 50 H -0.193747 -0.256068 1.704258 0
M  V30 51 H -2.138907 -1.380025 1.511385 0
M  V30 52 H -1.396943 -2.111526 -1.294929 0
M  V30 53 H -1.647577 -4.513114 -1.900958 0
M  V30 54 H -0.240299 -6.332366 0.052678 0
M  V30 55 H -0.542828 -8.628966 0.701330 0
M  V30 56 H -2.701787 -9.705121 0.493291 0
M  V30 57 H -4.329932 -6.007609 -1.087839 0
M  V30 58 H 1.911477 1.123312 1.353124 0
M  V30 59 H 3.785509 -0.240785 1.964624 0
M  V30 END ATOM
M  V30 BEGIN BOND
M  V30 1 1 1 2
M  V30 2 1 2 3
M  V30 3 2 3 4
M  V30 4 1 4 5
M  V30 5 2 5 6
M  V30 6 1 6 7
M  V30 7 2 7 8
M  V30 8 1 8 9
M  V30 9 2 9 10
M  V30 10 1 10 11
M  V30 11 1 11 12
M  V30 12 1 12 13
M  V30 13 1 13 14
M  V30 14 1 14 15
M  V30 15 1 15 16
M  V30 16 1 16 17
M  V30 17 1 17 18
M  V30 18 1 18 19
M  V30 19 1 19 20
M  V30 20 1 20 21
M  V30 21 1 21 22
M  V30 22 2 22 23
M  V30 23 1 22 24
M  V30 24 1 24 25
M  V30 25 2 25 26
M  V30 26 1 26 27
M  V30 27 2 27 28
M  V30 28 1 28 29
M  V30 29 1 29 30
M  V30 30 3 30 31
M  V30 31 2 29 32
M  V30 32 2 11 33
M  V30 33 1 6 34
M  V30 34 2 34 35
M  V30 35 1 35 3
M  V30 36 1 33 7
M  V30 37 1 17 13
M  V30 38 1 32 25
M  V30 39 1 20 16
M  V30 40 1 1 36
M  V30 41 1 1 37
M  V30 42 1 1 38
M  V30 43 1 4 39
M  V30 44 1 5 40
M  V30 45 1 8 41
M  V30 46 1 9 42
M  V30 47 1 12 43
M  V30 48 1 13 44 CFG=1
M  V30 49 1 14 45
M  V30 50 1 14 46
M  V30 51 1 16 47 CFG=3
M  V30 52 1 17 48 CFG=3
M  V30 53 1 19 49
M  V30 54 1 19 50
M  V30 55 1 20 51 CFG=1
M  V30 56 1 21 52
M  V30 57 1 24 53
M  V30 58 1 26 54
M  V30 59 1 27 55
M  V30 60 1 28 56
M  V30 61 1 32 57
M  V30 62 1 34 58
M  V30 63 1 35 59
M  V30 END BOND
M  V30 END CTAB
M  END
>  <Dataset>  (705) 
ChEMBL_Kinases

>  <Ligand_Instance>  (705) 
nan

>  <PDB_ID>  (705) 
nan

>  <Standardized_SMILES>  (705) 
COc1ccc(-c2ccnc(N[C@H]3CO[C@H]4[C@@H]3OC[C@@H]4NC(=O)Nc3cccc(C#N)c3)n2)cc1

>  <Name>  (705) 
nan

>  <Pocket>  (705) 
nan

>  <ATP_Site>  (705) 
nan

>  <Peripheral>  (705) 
nan

>  <Num_H_Atoms_ProtBoundConf>  (705) 
nan

>  <Num_Resolved_Atoms>  (705) 
nan

>  <Num_Not_Resolved_Atoms>  (705) 
nan

$$$$
CHEMBL4747227
     RDKit          3D

  0  0  0  0  0  0  0  0  0  0999 V3000
M  V30 BEGIN CTAB
M  V30 COUNTS 59 62 0 0 0
M  V30 BEGIN ATOM
M  V30 1 C 0.930494 3.271555 6.541225 0
M  V30 2 C 1.740451 2.227894 5.853234 0
M  V30 3 O 1.872196 1.024871 6.264268 0
M  V30 4 N 2.451141 2.496184 4.650311 0
M  V30 5 C 3.222644 1.483869 4.004191 0 CFG=2
M  V30 6 C 4.681402 1.889021 3.962536 0
M  V30 7 C 5.530088 0.846769 3.282895 0
M  V30 8 C 4.989755 0.441828 1.940499 0
M  V30 9 C 3.551895 0.012825 2.124151 0 CFG=2
M  V30 10 C 3.017316 -0.698354 0.952246 0
M  V30 11 O 3.841531 -0.824499 0.010438 0
M  V30 12 N 1.689194 -1.157251 0.981244 0
M  V30 13 C 1.202212 -1.840994 -0.166938 0
M  V30 14 C -0.087396 -2.329830 -0.235759 0
M  V30 15 C -0.572078 -2.996598 -1.347538 0
M  V30 16 C -1.960204 -3.503765 -1.378724 0
M  V30 17 C -2.460221 -4.727196 -0.987262 0
M  V30 18 N -3.798080 -4.688801 -1.221248 0
M  V30 19 N -4.125092 -3.514372 -1.729206 0
M  V30 20 C -3.017934 -2.728091 -1.852087 0
M  V30 21 C -3.376460 -1.398797 -2.425166 0
M  V30 22 C -4.651997 -1.734240 -3.152308 0
M  V30 23 C -5.558526 -0.555485 -3.351131 0
M  V30 24 C -4.359848 -2.365067 -4.508793 0
M  V30 25 C -5.269043 -2.755122 -2.210323 0
M  V30 26 O -6.210424 -3.542893 -2.842825 0
M  V30 27 C 0.243057 -3.194243 -2.442971 0
M  V30 28 Cl -0.299817 -4.028322 -3.884376 0
M  V30 29 C 1.522990 -2.703569 -2.362295 0
M  V30 30 N 1.954153 -2.060968 -1.262091 0
M  V30 31 C 2.763431 1.195029 2.571508 0
M  V30 32 H 1.555865 4.038495 7.042944 0
M  V30 33 H 0.365612 2.716938 7.345225 0
M  V30 34 H 0.236297 3.722122 5.796101 0
M  V30 35 H 2.424849 3.443497 4.210354 0
M  V30 36 H 3.189377 0.514348 4.544700 0
M  V30 37 H 5.024095 1.957740 5.022078 0
M  V30 38 H 4.836122 2.883227 3.511728 0
M  V30 39 H 6.552817 1.281161 3.178680 0
M  V30 40 H 5.628706 -0.052141 3.906979 0
M  V30 41 H 5.625791 -0.382394 1.560090 0
M  V30 42 H 4.959792 1.305800 1.238747 0
M  V30 43 H 3.557380 -0.713530 2.986586 0
M  V30 44 H 1.049979 -1.030252 1.777191 0
M  V30 45 H -0.754941 -2.191172 0.609175 0
M  V30 46 H -1.836307 -5.502065 -0.585255 0
M  V30 47 H -2.573896 -1.072654 -3.114387 0
M  V30 48 H -3.545834 -0.653985 -1.639332 0
M  V30 49 H -5.581324 0.015601 -2.388308 0
M  V30 50 H -5.123945 0.053306 -4.173674 0
M  V30 51 H -6.570466 -0.946169 -3.600532 0
M  V30 52 H -3.582146 -1.784557 -5.044876 0
M  V30 53 H -5.267714 -2.366003 -5.129993 0
M  V30 54 H -4.039188 -3.424632 -4.309649 0
M  V30 55 H -5.673953 -2.209332 -1.335141 0
M  V30 56 H -6.218438 -4.479341 -2.502195 0
M  V30 57 H 2.170978 -2.853078 -3.216005 0
M  V30 58 H 1.672248 1.085721 2.548718 0
M  V30 59 H 3.130282 2.087024 1.991892 0
M  V30 END ATOM
M  V30 BEGIN BOND
M  V30 1 1 1 2
M  V30 2 2 2 3
M  V30 3 1 2 4
M  V30 4 1 4 5
M  V30 5 1 5 6
M  V30 6 1 6 7
M  V30 7 1 7 8
M  V30 8 1 8 9
M  V30 9 1 9 10
M  V30 10 2 10 11
M  V30 11 1 10 12
M  V30 12 1 12 13
M  V30 13 2 13 14
M  V30 14 1 14 15
M  V30 15 1 15 16
M  V30 16 1 16 17
M  V30 17 2 17 18
M  V30 18 1 18 19
M  V30 19 1 19 20
M  V30 20 1 20 21
M  V30 21 1 21 22
M  V30 22 1 22 23
M  V30 23 1 22 24
M  V30 24 1 22 25
M  V30 25 1 25 26
M  V30 26 2 15 27
M  V30 27 1 27 28
M  V30 28 1 27 29
M  V30 29 2 29 30
M  V30 30 1 9 31
M  V30 31 1 31 5
M  V30 32 1 30 13
M  V30 33 2 20 16
M  V30 34 1 25 19
M  V30 35 1 1 32
M  V30 36 1 1 33
M  V30 37 1 1 34
M  V30 38 1 4 35
M  V30 39 1 5 36 CFG=1
M  V30 40 1 6 37
M  V30 41 1 6 38
M  V30 42 1 7 39
M  V30 43 1 7 40
M  V30 44 1 8 41
M  V30 45 1 8 42
M  V30 46 1 9 43 CFG=1
M  V30 47 1 12 44
M  V30 48 1 14 45
M  V30 49 1 17 46
M  V30 50 1 21 47
M  V30 51 1 21 48
M  V30 52 1 23 49
M  V30 53 1 23 50
M  V30 54 1 23 51
M  V30 55 1 24 52
M  V30 56 1 24 53
M  V30 57 1 24 54
M  V30 58 1 25 55
M  V30 59 1 26 56
M  V30 60 1 29 57
M  V30 61 1 31 58
M  V30 62 1 31 59
M  V30 END BOND
M  V30 END CTAB
M  END
>  <Dataset>  (706) 
ChEMBL_Kinases

>  <Ligand_Instance>  (706) 
nan

>  <PDB_ID>  (706) 
nan

>  <Standardized_SMILES>  (706) 
CC(=O)N[C@@H]1CCC[C@H](C(=O)Nc2cc(-c3cnn4c3CC(C)(C)C4O)c(Cl)cn2)C1

>  <Name>  (706) 
nan

>  <Pocket>  (706) 
nan

>  <ATP_Site>  (706) 
nan

>  <Peripheral>  (706) 
nan

>  <Num_H_Atoms_ProtBoundConf>  (706) 
nan

>  <Num_Resolved_Atoms>  (706) 
nan

>  <Num_Not_Resolved_Atoms>  (706) 
nan

$$$$
CHEMBL4453392
     RDKit          3D

  0  0  0  0  0  0  0  0  0  0999 V3000
M  V30 BEGIN CTAB
M  V30 COUNTS 50 52 0 0 0
M  V30 BEGIN ATOM
M  V30 1 C -0.192686 -1.578961 3.132371 0
M  V30 2 C 0.631533 -2.328976 2.120538 0
M  V30 3 C 0.814502 -3.687501 2.273043 0
M  V30 4 C 1.576968 -4.298651 1.310910 0
M  V30 5 C 2.148597 -3.669666 0.245669 0
M  V30 6 C 1.924314 -2.334219 0.163073 0
M  V30 7 C 1.168583 -1.572803 1.067435 0
M  V30 8 N 0.972630 -0.175407 0.955059 0
M  V30 9 N 1.965155 0.438948 1.618664 0
M  V30 10 C 1.792866 1.775063 1.521122 0
M  V30 11 C 2.584739 2.925070 2.057275 0
M  V30 12 C 3.626059 3.317507 1.032914 0
M  V30 13 C 1.707994 4.090659 2.365240 0
M  V30 14 C 3.341970 2.423733 3.268298 0
M  V30 15 C 0.675275 2.013298 0.785280 0
M  V30 16 C 0.182538 0.772410 0.444386 0
M  V30 17 N -0.944960 0.430888 -0.305177 0
M  V30 18 C -1.702611 -0.627566 -0.818796 0
M  V30 19 O -1.121900 -1.643769 -0.446871 0
M  V30 20 N -2.878416 -0.665677 -1.596794 0
M  V30 21 C -3.287147 -2.022502 -1.883233 0
M  V30 22 C -4.142884 -2.607295 -0.970882 0
M  V30 23 C -4.561431 -3.918668 -1.211940 0
M  V30 24 C -4.098161 -4.566691 -2.352446 0
M  V30 25 Cl -4.637130 -6.226498 -2.643519 0
M  V30 26 C -3.243115 -3.965059 -3.252454 0
M  V30 27 C -2.820480 -2.652224 -3.016646 0
M  V30 28 H 0.510140 -1.307759 3.948438 0
M  V30 29 H -0.733174 -0.728335 2.697143 0
M  V30 30 H -0.900178 -2.326748 3.586599 0
M  V30 31 H 0.369637 -4.207170 3.111611 0
M  V30 32 H 1.717293 -5.377444 1.439515 0
M  V30 33 H 2.747734 -4.175895 -0.502123 0
M  V30 34 H 2.339995 -1.729877 -0.658022 0
M  V30 35 H 4.376439 4.004578 1.440678 0
M  V30 36 H 3.063065 3.802015 0.185064 0
M  V30 37 H 4.058764 2.394155 0.590083 0
M  V30 38 H 2.355147 4.925346 2.713794 0
M  V30 39 H 1.251251 4.440378 1.426041 0
M  V30 40 H 0.967351 3.895397 3.140515 0
M  V30 41 H 4.308402 2.969846 3.371620 0
M  V30 42 H 2.718165 2.534242 4.170202 0
M  V30 43 H 3.572259 1.362878 3.103850 0
M  V30 44 H 0.213741 2.953205 0.491691 0
M  V30 45 H -1.466041 1.267526 -0.639785 0
M  V30 46 H -3.248250 0.281846 -1.830088 0
M  V30 47 H -4.505760 -2.105724 -0.081575 0
M  V30 48 H -5.227430 -4.459802 -0.559538 0
M  V30 49 H -2.922110 -4.527704 -4.118885 0
M  V30 50 H -2.147717 -2.171834 -3.720081 0
M  V30 END ATOM
M  V30 BEGIN BOND
M  V30 1 1 1 2
M  V30 2 2 2 3
M  V30 3 1 3 4
M  V30 4 2 4 5
M  V30 5 1 5 6
M  V30 6 2 6 7
M  V30 7 1 7 8
M  V30 8 1 8 9
M  V30 9 2 9 10
M  V30 10 1 10 11
M  V30 11 1 11 12
M  V30 12 1 11 13
M  V30 13 1 11 14
M  V30 14 1 10 15
M  V30 15 2 15 16
M  V30 16 1 16 17
M  V30 17 1 17 18
M  V30 18 2 18 19
M  V30 19 1 18 20
M  V30 20 1 20 21
M  V30 21 2 21 22
M  V30 22 1 22 23
M  V30 23 2 23 24
M  V30 24 1 24 25
M  V30 25 1 24 26
M  V30 26 2 26 27
M  V30 27 1 7 2
M  V30 28 1 16 8
M  V30 29 1 27 21
M  V30 30 1 1 28
M  V30 31 1 1 29
M  V30 32 1 1 30
M  V30 33 1 3 31
M  V30 34 1 4 32
M  V30 35 1 5 33
M  V30 36 1 6 34
M  V30 37 1 12 35
M  V30 38 1 12 36
M  V30 39 1 12 37
M  V30 40 1 13 38
M  V30 41 1 13 39
M  V30 42 1 13 40
M  V30 43 1 14 41
M  V30 44 1 14 42
M  V30 45 1 14 43
M  V30 46 1 15 44
M  V30 47 1 17 45
M  V30 48 1 20 46
M  V30 49 1 22 47
M  V30 50 1 23 48
M  V30 51 1 26 49
M  V30 52 1 27 50
M  V30 END BOND
M  V30 END CTAB
M  END
>  <Dataset>  (707) 
ChEMBL_Kinases

>  <Ligand_Instance>  (707) 
nan

>  <PDB_ID>  (707) 
nan

>  <Standardized_SMILES>  (707) 
Cc1ccccc1-n1nc(C(C)(C)C)cc1NC(=O)Nc1ccc(Cl)cc1

>  <Name>  (707) 
nan

>  <Pocket>  (707) 
nan

>  <ATP_Site>  (707) 
nan

>  <Peripheral>  (707) 
nan

>  <Num_H_Atoms_ProtBoundConf>  (707) 
nan

>  <Num_Resolved_Atoms>  (707) 
nan

>  <Num_Not_Resolved_Atoms>  (707) 
nan

$$$$
CHEMBL4453338
     RDKit          3D

  0  0  0  0  0  0  0  0  0  0999 V3000
M  V30 BEGIN CTAB
M  V30 COUNTS 47 50 0 0 0
M  V30 BEGIN ATOM
M  V30 1 N 1.196392 -5.823807 4.857106 0
M  V30 2 C 1.534563 -5.024208 4.056250 0
M  V30 3 C 1.959724 -4.042927 3.095855 0
M  V30 4 N 3.283212 -4.062401 2.852015 0
M  V30 5 C 3.834256 -3.184982 1.960899 0
M  V30 6 C 3.017747 -2.271917 1.307484 0
M  V30 7 N 3.444417 -1.327683 0.344501 0
M  V30 8 C 2.683175 -0.287616 -0.251294 0
M  V30 9 N 3.059618 0.905258 0.302597 0
M  V30 10 C 2.479959 2.076214 -0.086774 0
M  V30 11 C 1.495702 2.055227 -1.056240 0
M  V30 12 C 0.844173 3.306082 -1.512471 0
M  V30 13 C 0.373525 3.445572 -2.802243 0
M  V30 14 C -0.213997 4.680932 -3.107084 0
M  V30 15 N -0.299198 5.650046 -2.180401 0
M  V30 16 C 0.163924 5.482758 -0.948474 0
M  V30 17 C 0.760015 4.299240 -0.552840 0
M  V30 18 C 1.123015 0.840005 -1.609058 0
M  V30 19 N 1.721767 -0.308265 -1.197937 0
M  V30 20 C 1.679324 -2.317299 1.612242 0
M  V30 21 C 1.046317 -3.163517 2.491232 0
M  V30 22 O -0.241704 -3.334984 2.895862 0
M  V30 23 C -1.286774 -2.531638 2.416928 0
M  V30 24 C -2.129289 -3.294622 1.422622 0
M  V30 25 C -3.404735 -2.658543 1.061715 0
M  V30 26 C -3.979200 -1.697954 2.048624 0
M  V30 27 N -3.004417 -0.967030 2.810470 0
M  V30 28 C -2.120498 -1.900583 3.494954 0
M  V30 29 H 4.883619 -3.123197 1.699539 0
M  V30 30 H 4.433861 -1.424584 0.055723 0
M  V30 31 H 2.743797 3.039497 0.316845 0
M  V30 32 H 0.456031 2.651587 -3.518982 0
M  V30 33 H -0.605462 4.847345 -4.121926 0
M  V30 34 H 0.008742 6.368501 -0.337651 0
M  V30 35 H 1.110329 4.243656 0.466910 0
M  V30 36 H 0.361999 0.746607 -2.369060 0
M  V30 37 H 1.011301 -1.624229 1.124164 0
M  V30 38 H -0.820019 -1.687591 1.836552 0
M  V30 39 H -2.304361 -4.302261 1.842236 0
M  V30 40 H -1.461615 -3.457274 0.526425 0
M  V30 41 H -4.195994 -3.380192 0.775371 0
M  V30 42 H -3.217526 -2.064897 0.121461 0
M  V30 43 H -4.658544 -2.197480 2.780099 0
M  V30 44 H -4.619178 -0.933563 1.533745 0
M  V30 45 H -3.487310 -0.307835 3.431216 0
M  V30 46 H -2.645546 -2.615349 4.128969 0
M  V30 47 H -1.425049 -1.264367 4.103421 0
M  V30 END ATOM
M  V30 BEGIN BOND
M  V30 1 3 1 2
M  V30 2 1 2 3
M  V30 3 2 3 4
M  V30 4 1 4 5
M  V30 5 2 5 6
M  V30 6 1 6 7
M  V30 7 1 7 8
M  V30 8 2 8 9
M  V30 9 1 9 10
M  V30 10 2 10 11
M  V30 11 1 11 12
M  V30 12 2 12 13
M  V30 13 1 13 14
M  V30 14 2 14 15
M  V30 15 1 15 16
M  V30 16 2 16 17
M  V30 17 1 11 18
M  V30 18 2 18 19
M  V30 19 1 6 20
M  V30 20 2 20 21
M  V30 21 1 21 22
M  V30 22 1 22 23
M  V30 23 1 23 24
M  V30 24 1 24 25
M  V30 25 1 25 26
M  V30 26 1 26 27
M  V30 27 1 27 28
M  V30 28 1 21 3
M  V30 29 1 28 23
M  V30 30 1 19 8
M  V30 31 1 17 12
M  V30 32 1 5 29
M  V30 33 1 7 30
M  V30 34 1 10 31
M  V30 35 1 13 32
M  V30 36 1 14 33
M  V30 37 1 16 34
M  V30 38 1 17 35
M  V30 39 1 18 36
M  V30 40 1 20 37
M  V30 41 1 23 38
M  V30 42 1 24 39
M  V30 43 1 24 40
M  V30 44 1 25 41
M  V30 45 1 25 42
M  V30 46 1 26 43
M  V30 47 1 26 44
M  V30 48 1 27 45
M  V30 49 1 28 46
M  V30 50 1 28 47
M  V30 END BOND
M  V30 END CTAB
M  END
>  <Dataset>  (708) 
ChEMBL_Kinases

>  <Ligand_Instance>  (708) 
nan

>  <PDB_ID>  (708) 
nan

>  <Standardized_SMILES>  (708) 
N#Cc1ncc(Nc2ncc(-c3ccncc3)cn2)cc1OC1CCCNC1

>  <Name>  (708) 
nan

>  <Pocket>  (708) 
nan

>  <ATP_Site>  (708) 
nan

>  <Peripheral>  (708) 
nan

>  <Num_H_Atoms_ProtBoundConf>  (708) 
nan

>  <Num_Resolved_Atoms>  (708) 
nan

>  <Num_Not_Resolved_Atoms>  (708) 
nan

$$$$
CHEMBL474724
     RDKit          3D

  0  0  0  0  0  0  0  0  0  0999 V3000
M  V30 BEGIN CTAB
M  V30 COUNTS 59 64 0 0 0
M  V30 BEGIN ATOM
M  V30 1 C 3.865874 -2.771399 1.556442 0
M  V30 2 C 4.265987 -1.833595 2.660938 0
M  V30 3 N 3.256405 -0.823929 2.951171 0
M  V30 4 C 3.562337 0.092508 4.003020 0
M  V30 5 N 4.341541 -0.379360 4.944420 0
M  V30 6 S 2.984373 1.749267 4.113432 0
M  V30 7 C 1.953011 2.221151 2.727899 0
M  V30 8 C 2.724868 2.265364 1.445891 0
M  V30 9 C 1.829100 2.715400 0.331638 0
M  V30 10 N 0.726956 1.822972 0.173601 0
M  V30 11 C 0.736538 0.661863 -0.685573 0
M  V30 12 O 1.696243 0.271703 -1.390911 0
M  V30 13 C -0.614255 0.104304 -0.513934 0
M  V30 14 C -1.378226 0.815860 0.338224 0
M  V30 15 C -0.571628 1.914869 0.799836 0
M  V30 16 O -0.974563 2.794061 1.618468 0
M  V30 17 N -2.734671 0.522404 0.704699 0
M  V30 18 C -3.338669 1.088174 1.753545 0
M  V30 19 C -4.621205 0.581539 1.816159 0
M  V30 20 C -4.718014 -0.290496 0.763991 0
M  V30 21 C -5.845670 -1.040762 0.427401 0
M  V30 22 C -5.731194 -1.860521 -0.680083 0
M  V30 23 C -4.553922 -1.898068 -1.374506 0
M  V30 24 C -3.417539 -1.178763 -1.081306 0
M  V30 25 C -3.537286 -0.356462 0.031937 0
M  V30 26 C -2.257802 -1.346809 -1.943558 0
M  V30 27 C -2.054594 -2.654175 -2.604731 0
M  V30 28 C -0.709959 -3.104390 -2.145237 0
M  V30 29 C -0.138258 -4.326887 -2.493732 0
M  V30 30 C 1.097221 -4.613905 -1.936613 0
M  V30 31 C 1.711226 -3.701930 -1.071749 0
M  V30 32 C 1.121264 -2.505048 -0.747990 0
M  V30 33 C -0.098634 -2.208945 -1.294488 0
M  V30 34 N -1.006432 -1.086731 -1.228394 0
M  V30 35 H 2.787115 -2.991480 1.711666 0
M  V30 36 H 4.440533 -3.715621 1.707384 0
M  V30 37 H 4.087430 -2.393359 0.552891 0
M  V30 38 H 4.487207 -2.440421 3.564795 0
M  V30 39 H 5.240558 -1.368798 2.348530 0
M  V30 40 H 2.326450 -0.671834 2.492386 0
M  V30 41 H 4.593851 0.243373 5.729286 0
M  V30 42 H 1.159809 1.425944 2.576587 0
M  V30 43 H 1.425020 3.172529 2.892960 0
M  V30 44 H 3.640587 2.904688 1.523295 0
M  V30 45 H 3.116986 1.223975 1.262841 0
M  V30 46 H 2.413849 2.719579 -0.629651 0
M  V30 47 H 1.453720 3.755464 0.549383 0
M  V30 48 H -2.896945 1.806163 2.422369 0
M  V30 49 H -5.366439 0.842453 2.556320 0
M  V30 50 H -6.766925 -0.993365 0.993894 0
M  V30 51 H -6.597358 -2.449998 -0.955949 0
M  V30 52 H -4.557146 -2.548906 -2.215243 0
M  V30 53 H -2.369612 -0.584543 -2.778133 0
M  V30 54 H -1.978016 -2.591072 -3.725643 0
M  V30 55 H -2.789910 -3.427197 -2.385534 0
M  V30 56 H -0.595285 -5.046308 -3.159220 0
M  V30 57 H 1.545468 -5.579405 -2.215076 0
M  V30 58 H 2.664655 -4.074905 -0.725654 0
M  V30 59 H 1.632841 -1.871157 -0.054841 0
M  V30 END ATOM
M  V30 BEGIN BOND
M  V30 1 1 1 2
M  V30 2 1 2 3
M  V30 3 1 3 4
M  V30 4 2 4 5 CFG=2
M  V30 5 1 4 6
M  V30 6 1 6 7
M  V30 7 1 7 8
M  V30 8 1 8 9
M  V30 9 1 9 10
M  V30 10 1 10 11
M  V30 11 2 11 12
M  V30 12 1 11 13
M  V30 13 2 13 14
M  V30 14 1 14 15
M  V30 15 2 15 16
M  V30 16 1 14 17
M  V30 17 1 17 18
M  V30 18 2 18 19
M  V30 19 1 19 20
M  V30 20 2 20 21
M  V30 21 1 21 22
M  V30 22 2 22 23
M  V30 23 1 23 24
M  V30 24 2 24 25
M  V30 25 1 24 26
M  V30 26 1 26 27
M  V30 27 1 27 28
M  V30 28 2 28 29
M  V30 29 1 29 30
M  V30 30 2 30 31
M  V30 31 1 31 32
M  V30 32 2 32 33
M  V30 33 1 33 34
M  V30 34 1 15 10
M  V30 35 1 25 17
M  V30 36 1 34 26
M  V30 37 1 34 13
M  V30 38 1 25 20
M  V30 39 1 33 28
M  V30 40 1 1 35
M  V30 41 1 1 36
M  V30 42 1 1 37
M  V30 43 1 2 38
M  V30 44 1 2 39
M  V30 45 1 3 40
M  V30 46 1 5 41
M  V30 47 1 7 42
M  V30 48 1 7 43
M  V30 49 1 8 44
M  V30 50 1 8 45
M  V30 51 1 9 46
M  V30 52 1 9 47
M  V30 53 1 18 48
M  V30 54 1 19 49
M  V30 55 1 21 50
M  V30 56 1 22 51
M  V30 57 1 23 52
M  V30 58 1 26 53
M  V30 59 1 27 54
M  V30 60 1 27 55
M  V30 61 1 29 56
M  V30 62 1 30 57
M  V30 63 1 31 58
M  V30 64 1 32 59
M  V30 END BOND
M  V30 END CTAB
M  END
>  <Dataset>  (709) 
ChEMBL_Kinases

>  <Ligand_Instance>  (709) 
nan

>  <PDB_ID>  (709) 
nan

>  <Standardized_SMILES>  (709) 
CCNC(=N)SCCCN1C(=O)C2=C(C1=O)n1ccc3cccc(c31)C1Cc3ccccc3N21

>  <Name>  (709) 
nan

>  <Pocket>  (709) 
nan

>  <ATP_Site>  (709) 
nan

>  <Peripheral>  (709) 
nan

>  <Num_H_Atoms_ProtBoundConf>  (709) 
nan

>  <Num_Resolved_Atoms>  (709) 
nan

>  <Num_Not_Resolved_Atoms>  (709) 
nan

$$$$
CHEMBL4453280
     RDKit          3D

  0  0  0  0  0  0  0  0  0  0999 V3000
M  V30 BEGIN CTAB
M  V30 COUNTS 43 46 0 0 0
M  V30 BEGIN ATOM
M  V30 1 C 0.234387 -8.336409 0.892872 0
M  V30 2 C 0.215873 -6.854563 0.775615 0
M  V30 3 C 0.185810 -6.004132 1.862334 0
M  V30 4 C 0.176230 -4.697790 1.358757 0
M  V30 5 C 0.145014 -3.536308 2.259259 0
M  V30 6 C -1.318412 -3.188409 2.520162 0
M  V30 7 O 0.815796 -3.736512 3.443514 0
M  V30 8 C 0.811298 -2.418653 1.545600 0
M  V30 9 C 1.343091 -1.501691 0.966828 0
M  V30 10 C 1.959420 -0.408596 0.260753 0
M  V30 11 C 1.512720 0.848450 0.575980 0
M  V30 12 C 2.009763 1.996784 -0.019021 0
M  V30 13 N 1.550752 3.312498 0.302579 0
M  V30 14 C 2.295745 4.400649 0.657728 0
M  V30 15 C 1.442368 5.473252 0.881909 0
M  V30 16 C 0.154266 5.008109 0.653211 0
M  V30 17 C -1.073521 5.667985 0.735400 0
M  V30 18 N -2.184897 4.930350 0.446568 0
M  V30 19 C -2.091552 3.635171 0.101562 0
M  V30 20 N -3.333995 3.014182 -0.165918 0
M  V30 21 N -0.889295 3.027423 0.031530 0
M  V30 22 C 0.249878 3.680104 0.299452 0
M  V30 23 C 3.007208 1.800582 -0.973249 0
M  V30 24 C 3.456436 0.516689 -1.288363 0
M  V30 25 N 2.924406 -0.573522 -0.664805 0
M  V30 26 N 0.200594 -4.830067 0.020785 0
M  V30 27 O 0.223524 -6.108784 -0.290901 0
M  V30 28 H 0.932715 -8.589681 1.718707 0
M  V30 29 H -0.779290 -8.671898 1.244964 0
M  V30 30 H 0.437703 -8.838297 -0.052255 0
M  V30 31 H 0.172452 -6.319382 2.914072 0
M  V30 32 H -1.993377 -3.767016 1.853192 0
M  V30 33 H -1.484611 -2.119273 2.227670 0
M  V30 34 H -1.584194 -3.306091 3.605925 0
M  V30 35 H 1.261495 -2.906604 3.776376 0
M  V30 36 H 0.728096 1.027296 1.324248 0
M  V30 37 H 3.385855 4.373340 0.736732 0
M  V30 38 H 1.743804 6.475352 1.178480 0
M  V30 39 H -1.075283 6.713065 1.019612 0
M  V30 40 H -4.089528 3.182485 -0.838730 0
M  V30 41 H -3.400032 2.230822 0.521064 0
M  V30 42 H 3.457428 2.635610 -1.492531 0
M  V30 43 H 4.238827 0.384098 -2.038877 0
M  V30 END ATOM
M  V30 BEGIN BOND
M  V30 1 1 1 2
M  V30 2 2 2 3
M  V30 3 1 3 4
M  V30 4 1 4 5
M  V30 5 1 5 6
M  V30 6 1 5 7
M  V30 7 1 5 8
M  V30 8 3 8 9
M  V30 9 1 9 10
M  V30 10 2 10 11
M  V30 11 1 11 12
M  V30 12 1 12 13
M  V30 13 1 13 14
M  V30 14 2 14 15
M  V30 15 1 15 16
M  V30 16 2 16 17
M  V30 17 1 17 18
M  V30 18 2 18 19
M  V30 19 1 19 20
M  V30 20 1 19 21
M  V30 21 2 21 22
M  V30 22 2 12 23
M  V30 23 1 23 24
M  V30 24 2 24 25
M  V30 25 2 4 26
M  V30 26 1 26 27
M  V30 27 1 27 2
M  V30 28 1 25 10
M  V30 29 1 22 13
M  V30 30 1 22 16
M  V30 31 1 1 28
M  V30 32 1 1 29
M  V30 33 1 1 30
M  V30 34 1 3 31
M  V30 35 1 6 32
M  V30 36 1 6 33
M  V30 37 1 6 34
M  V30 38 1 7 35
M  V30 39 1 11 36
M  V30 40 1 14 37
M  V30 41 1 15 38
M  V30 42 1 17 39
M  V30 43 1 20 40
M  V30 44 1 20 41
M  V30 45 1 23 42
M  V30 46 1 24 43
M  V30 END BOND
M  V30 END CTAB
M  END
>  <Dataset>  (710) 
ChEMBL_Kinases

>  <Ligand_Instance>  (710) 
nan

>  <PDB_ID>  (710) 
nan

>  <Standardized_SMILES>  (710) 
Cc1cc(C(C)(O)C#Cc2cc(-n3ccc4cnc(N)nc43)ccn2)no1

>  <Name>  (710) 
nan

>  <Pocket>  (710) 
nan

>  <ATP_Site>  (710) 
nan

>  <Peripheral>  (710) 
nan

>  <Num_H_Atoms_ProtBoundConf>  (710) 
nan

>  <Num_Resolved_Atoms>  (710) 
nan

>  <Num_Not_Resolved_Atoms>  (710) 
nan

$$$$
CHEMBL4453264
     RDKit          3D

  0  0  0  0  0  0  0  0  0  0999 V3000
M  V30 BEGIN CTAB
M  V30 COUNTS 35 38 0 0 0
M  V30 BEGIN ATOM
M  V30 1 F 1.784543 -1.809417 5.436298 0
M  V30 2 C 1.812510 -2.000210 4.099736 0
M  V30 3 C 1.847702 -3.272769 3.533648 0
M  V30 4 C 1.874556 -3.427403 2.145462 0
M  V30 5 C 1.867308 -2.324803 1.283435 0
M  V30 6 C 1.832022 -1.106874 1.921582 0
M  V30 7 N 1.818428 0.081047 1.122317 0
M  V30 8 C 1.755084 0.310197 -0.267554 0
M  V30 9 N 2.903290 0.251473 -0.916195 0
M  V30 10 C 3.102899 0.430100 -2.207374 0
M  V30 11 N 2.036734 0.702348 -2.962651 0
M  V30 12 C 0.800845 0.780498 -2.355958 0
M  V30 13 S -0.852127 1.120235 -2.985044 0
M  V30 14 C -1.702049 0.995020 -1.439833 0
M  V30 15 C -0.661361 0.693693 -0.497533 0
M  V30 16 C 0.613145 0.585074 -0.970685 0
M  V30 17 C -1.265835 0.572701 0.847932 0
M  V30 18 C -2.296102 -0.558491 0.757631 0
M  V30 19 C -3.473661 -0.039751 -0.039638 0
M  V30 20 C -3.079533 1.111661 -0.934226 0
M  V30 21 C 1.804113 -0.877833 3.278918 0
M  V30 22 H 1.853427 -4.143192 4.194017 0
M  V30 23 H 1.902291 -4.431516 1.709505 0
M  V30 24 H 1.888083 -2.436525 0.217157 0
M  V30 25 H 1.857557 1.056939 1.482016 0
M  V30 26 H 3.998289 0.396536 -2.790283 0
M  V30 27 H -0.564959 0.440231 1.664697 0
M  V30 28 H -1.887816 1.500852 1.037693 0
M  V30 29 H -2.580611 -0.827097 1.794500 0
M  V30 30 H -1.774304 -1.399329 0.256882 0
M  V30 31 H -3.944464 -0.881362 -0.548972 0
M  V30 32 H -4.200597 0.368095 0.694301 0
M  V30 33 H -3.210620 2.063227 -0.416899 0
M  V30 34 H -3.741320 1.090206 -1.821192 0
M  V30 35 H 1.776695 0.114982 3.705598 0
M  V30 END ATOM
M  V30 BEGIN BOND
M  V30 1 1 1 2
M  V30 2 2 2 3
M  V30 3 1 3 4
M  V30 4 2 4 5
M  V30 5 1 5 6
M  V30 6 1 6 7
M  V30 7 1 7 8
M  V30 8 2 8 9
M  V30 9 1 9 10
M  V30 10 2 10 11
M  V30 11 1 11 12
M  V30 12 1 12 13
M  V30 13 1 13 14
M  V30 14 2 14 15
M  V30 15 1 15 16
M  V30 16 1 15 17
M  V30 17 1 17 18
M  V30 18 1 18 19
M  V30 19 1 19 20
M  V30 20 2 6 21
M  V30 21 1 21 2
M  V30 22 1 16 8
M  V30 23 2 16 12
M  V30 24 1 20 14
M  V30 25 1 3 22
M  V30 26 1 4 23
M  V30 27 1 5 24
M  V30 28 1 7 25
M  V30 29 1 10 26
M  V30 30 1 17 27
M  V30 31 1 17 28
M  V30 32 1 18 29
M  V30 33 1 18 30
M  V30 34 1 19 31
M  V30 35 1 19 32
M  V30 36 1 20 33
M  V30 37 1 20 34
M  V30 38 1 21 35
M  V30 END BOND
M  V30 END CTAB
M  END
>  <Dataset>  (711) 
ChEMBL_Kinases

>  <Ligand_Instance>  (711) 
nan

>  <PDB_ID>  (711) 
nan

>  <Standardized_SMILES>  (711) 
Fc1cccc(Nc2ncnc3sc4c(c23)CCCC4)c1

>  <Name>  (711) 
nan

>  <Pocket>  (711) 
nan

>  <ATP_Site>  (711) 
nan

>  <Peripheral>  (711) 
nan

>  <Num_H_Atoms_ProtBoundConf>  (711) 
nan

>  <Num_Resolved_Atoms>  (711) 
nan

>  <Num_Not_Resolved_Atoms>  (711) 
nan

$$$$
CHEMBL4453243
     RDKit          3D

  0  0  0  0  0  0  0  0  0  0999 V3000
M  V30 BEGIN CTAB
M  V30 COUNTS 42 44 0 0 0
M  V30 BEGIN ATOM
M  V30 1 C 3.395981 -3.065150 0.414300 0
M  V30 2 C 2.829402 -2.869251 1.778313 0
M  V30 3 N 3.380801 -3.115605 2.981129 0
M  V30 4 N 2.514203 -2.791189 3.940747 0
M  V30 5 C 1.380927 -2.327007 3.382427 0
M  V30 6 C 0.198132 -1.872797 4.172571 0
M  V30 7 C 1.579436 -2.375770 2.002402 0
M  V30 8 C 0.519346 -1.933276 1.104157 0
M  V30 9 N 0.469687 -0.653163 0.721061 0
M  V30 10 C -0.431040 -0.104585 -0.088870 0
M  V30 11 N -0.440066 1.258188 -0.464410 0
M  V30 12 C 0.617782 2.058459 0.095515 0
M  V30 13 C 1.928034 1.438325 -0.381784 0
M  V30 14 C 0.561708 2.226239 1.572125 0
M  V30 15 C 0.549295 3.429637 -0.539759 0
M  V30 16 F 1.570477 4.229948 -0.010955 0
M  V30 17 F -0.673292 4.039791 -0.288458 0
M  V30 18 F 0.797551 3.367861 -1.909568 0
M  V30 19 C -1.364730 -1.024297 -0.525414 0
M  V30 20 C -2.374928 -0.648329 -1.369008 0
M  V30 21 C -3.357452 -1.478491 -1.865671 0
M  V30 22 N -3.327374 -2.785736 -1.489599 0
M  V30 23 C -2.355577 -3.224099 -0.657310 0
M  V30 24 C -1.390240 -2.360269 -0.182381 0
M  V30 25 N -0.418476 -2.817351 0.654932 0
M  V30 26 H 2.611834 -3.256214 -0.327540 0
M  V30 27 H 4.094944 -2.246797 0.163343 0
M  V30 28 H 4.032550 -3.993922 0.448826 0
M  V30 29 H 2.713409 -2.893490 4.979299 0
M  V30 30 H -0.638798 -1.617711 3.486071 0
M  V30 31 H -0.143858 -2.752374 4.766420 0
M  V30 32 H 0.502499 -1.027509 4.817450 0
M  V30 33 H -1.141349 1.692998 -1.096286 0
M  V30 34 H 2.483028 2.082912 -1.081337 0
M  V30 35 H 2.613815 1.232729 0.469634 0
M  V30 36 H 1.773178 0.479697 -0.916228 0
M  V30 37 H 1.046908 3.197169 1.817482 0
M  V30 38 H -0.478785 2.317966 1.890672 0
M  V30 39 H 1.149810 1.477409 2.137213 0
M  V30 40 H -2.470445 0.368710 -1.714543 0
M  V30 41 H -4.147717 -1.203917 -2.520312 0
M  V30 42 H -2.295717 -4.252286 -0.334945 0
M  V30 END ATOM
M  V30 BEGIN BOND
M  V30 1 1 1 2
M  V30 2 2 2 3
M  V30 3 1 3 4
M  V30 4 1 4 5
M  V30 5 1 5 6
M  V30 6 2 5 7
M  V30 7 1 7 8
M  V30 8 2 8 9
M  V30 9 1 9 10
M  V30 10 1 10 11
M  V30 11 1 11 12
M  V30 12 1 12 13
M  V30 13 1 12 14
M  V30 14 1 12 15
M  V30 15 1 15 16
M  V30 16 1 15 17
M  V30 17 1 15 18
M  V30 18 2 10 19
M  V30 19 1 19 20
M  V30 20 2 20 21
M  V30 21 1 21 22
M  V30 22 2 22 23
M  V30 23 1 23 24
M  V30 24 2 24 25
M  V30 25 1 7 2
M  V30 26 1 25 8
M  V30 27 1 24 19
M  V30 28 1 1 26
M  V30 29 1 1 27
M  V30 30 1 1 28
M  V30 31 1 4 29
M  V30 32 1 6 30
M  V30 33 1 6 31
M  V30 34 1 6 32
M  V30 35 1 11 33
M  V30 36 1 13 34
M  V30 37 1 13 35
M  V30 38 1 13 36
M  V30 39 1 14 37
M  V30 40 1 14 38
M  V30 41 1 14 39
M  V30 42 1 20 40
M  V30 43 1 21 41
M  V30 44 1 23 42
M  V30 END BOND
M  V30 END CTAB
M  END
>  <Dataset>  (712) 
ChEMBL_Kinases

>  <Ligand_Instance>  (712) 
nan

>  <PDB_ID>  (712) 
nan

>  <Standardized_SMILES>  (712) 
Cc1n[nH]c(C)c1-c1nc(NC(C)(C)C(F)(F)F)c2ccncc2n1

>  <Name>  (712) 
nan

>  <Pocket>  (712) 
nan

>  <ATP_Site>  (712) 
nan

>  <Peripheral>  (712) 
nan

>  <Num_H_Atoms_ProtBoundConf>  (712) 
nan

>  <Num_Resolved_Atoms>  (712) 
nan

>  <Num_Not_Resolved_Atoms>  (712) 
nan

$$$$
CHEMBL4453232
     RDKit          3D

  0  0  0  0  0  0  0  0  0  0999 V3000
M  V30 BEGIN CTAB
M  V30 COUNTS 35 37 0 0 0
M  V30 BEGIN ATOM
M  V30 1 O 1.203045 0.391393 1.029921 0
M  V30 2 C 0.009143 0.716055 1.246281 0
M  V30 3 N -0.298264 1.880140 1.975498 0
M  V30 4 C 0.885534 2.577781 2.398282 0
M  V30 5 C 1.431809 2.240653 3.632495 0
M  V30 6 C 2.576206 2.904365 4.057851 0
M  V30 7 C 3.182661 3.884402 3.293020 0
M  V30 8 N 2.619892 4.187903 2.090755 0
M  V30 9 C 1.512573 3.556886 1.660993 0
M  V30 10 C -1.064420 -0.134145 0.729314 0
M  V30 11 C -0.944429 -1.300464 0.003819 0
M  V30 12 C -2.170649 -1.836165 -0.313601 0
M  V30 13 C -2.518790 -3.012248 -1.080743 0
M  V30 14 O -3.609440 -3.551546 -0.727109 0
M  V30 15 C -1.917133 -3.743036 -2.175070 0
M  V30 16 C -2.238925 -5.067353 -2.368261 0
M  V30 17 F -3.086243 -5.731100 -1.550990 0
M  V30 18 C -1.674665 -5.743759 -3.436188 0
M  V30 19 C -0.786895 -5.181071 -4.354241 0
M  V30 20 C -0.483737 -3.837808 -4.128524 0
M  V30 21 C -1.045255 -3.163298 -3.065702 0
M  V30 22 Cl -0.566867 -1.486299 -3.017975 0
M  V30 23 C -3.069126 -0.953778 0.246864 0
M  V30 24 N -2.374304 0.025730 0.845754 0
M  V30 25 H -1.303916 2.144871 2.150971 0
M  V30 26 H 1.000789 1.479245 4.277637 0
M  V30 27 H 2.992035 2.635900 5.015900 0
M  V30 28 H 4.073829 4.349010 3.706438 0
M  V30 29 H 1.079737 3.814312 0.698225 0
M  V30 30 H 0.051957 -1.692806 -0.229122 0
M  V30 31 H -1.925240 -6.789810 -3.594408 0
M  V30 32 H -0.375909 -5.747150 -5.164637 0
M  V30 33 H 0.209180 -3.427602 -4.858691 0
M  V30 34 H -4.167002 -0.987537 0.240664 0
M  V30 35 H -2.819574 0.835459 1.353795 0
M  V30 END ATOM
M  V30 BEGIN BOND
M  V30 1 2 1 2
M  V30 2 1 2 3
M  V30 3 1 3 4
M  V30 4 2 4 5
M  V30 5 1 5 6
M  V30 6 2 6 7
M  V30 7 1 7 8
M  V30 8 2 8 9
M  V30 9 1 2 10
M  V30 10 2 10 11
M  V30 11 1 11 12
M  V30 12 1 12 13
M  V30 13 2 13 14
M  V30 14 1 13 15
M  V30 15 2 15 16
M  V30 16 1 16 17
M  V30 17 1 16 18
M  V30 18 2 18 19
M  V30 19 1 19 20
M  V30 20 2 20 21
M  V30 21 1 21 22
M  V30 22 2 12 23
M  V30 23 1 23 24
M  V30 24 1 9 4
M  V30 25 1 24 10
M  V30 26 1 21 15
M  V30 27 1 3 25
M  V30 28 1 5 26
M  V30 29 1 6 27
M  V30 30 1 7 28
M  V30 31 1 9 29
M  V30 32 1 11 30
M  V30 33 1 18 31
M  V30 34 1 19 32
M  V30 35 1 20 33
M  V30 36 1 23 34
M  V30 37 1 24 35
M  V30 END BOND
M  V30 END CTAB
M  END
>  <Dataset>  (713) 
ChEMBL_Kinases

>  <Ligand_Instance>  (713) 
nan

>  <PDB_ID>  (713) 
nan

>  <Standardized_SMILES>  (713) 
O=C(Nc1cccnc1)c1cc(C(=O)c2c(F)cccc2Cl)c[nH]1

>  <Name>  (713) 
nan

>  <Pocket>  (713) 
nan

>  <ATP_Site>  (713) 
nan

>  <Peripheral>  (713) 
nan

>  <Num_H_Atoms_ProtBoundConf>  (713) 
nan

>  <Num_Resolved_Atoms>  (713) 
nan

>  <Num_Not_Resolved_Atoms>  (713) 
nan

$$$$
CHEMBL4453218
     RDKit          3D

  0  0  0  0  0  0  0  0  0  0999 V3000
M  V30 BEGIN CTAB
M  V30 COUNTS 45 48 0 0 0
M  V30 BEGIN ATOM
M  V30 1 C 2.034676 -6.246419 0.409290 0
M  V30 2 C 1.758088 -4.795417 0.640254 0
M  V30 3 C 1.337949 -4.290336 1.869645 0
M  V30 4 C 1.198759 -2.932413 1.661279 0
M  V30 5 C 1.527417 -2.666370 0.357699 0
M  V30 6 C 1.523470 -1.359297 -0.304171 0
M  V30 7 C 1.885271 -1.272194 -1.632844 0
M  V30 8 C 1.859817 -0.020452 -2.189700 0
M  V30 9 N 2.201744 0.147461 -3.489599 0
M  V30 10 C 2.171682 1.381025 -4.020674 0
M  V30 11 C 1.803331 2.489586 -3.286929 0
M  V30 12 N 1.469780 2.287773 -1.999212 0
M  V30 13 C 1.484810 1.057552 -1.416545 0
M  V30 14 C 1.119501 0.962049 -0.071085 0
M  V30 15 N 0.744691 2.119597 0.662822 0
M  V30 16 C 0.361633 2.040072 2.061490 0
M  V30 17 C -0.833563 1.164540 2.248280 0 CFG=1
M  V30 18 C -1.208859 1.103392 3.727003 0
M  V30 19 C -2.255455 0.010709 3.846240 0
M  V30 20 C -2.867747 -0.357600 2.514579 0
M  V30 21 N -3.191793 0.861741 1.812508 0
M  V30 22 C -2.029058 1.625136 1.453102 0
M  V30 23 N 1.165668 -0.272191 0.403233 0
M  V30 24 O 1.852648 -3.807465 -0.206098 0
M  V30 25 H 1.423401 -6.882984 1.093414 0
M  V30 26 H 1.747518 -6.569137 -0.624973 0
M  V30 27 H 3.096576 -6.492895 0.543546 0
M  V30 28 H 1.159526 -4.839944 2.786856 0
M  V30 29 H 0.881805 -2.180342 2.396876 0
M  V30 30 H 2.174617 -2.115022 -2.223667 0
M  V30 31 H 2.454282 1.470504 -5.069558 0
M  V30 32 H 1.795007 3.449765 -3.753780 0
M  V30 33 H 0.747700 3.034632 0.182060 0
M  V30 34 H 1.224289 1.507052 2.560450 0
M  V30 35 H 0.280697 3.018283 2.534785 0
M  V30 36 H -0.584929 0.130193 1.957714 0
M  V30 37 H -1.607108 2.056069 4.104109 0
M  V30 38 H -0.272797 0.845673 4.286385 0
M  V30 39 H -3.016488 0.243171 4.608070 0
M  V30 40 H -1.717386 -0.886460 4.211582 0
M  V30 41 H -2.247425 -1.054987 1.929900 0
M  V30 42 H -3.818023 -0.885296 2.729297 0
M  V30 43 H -3.902968 1.375035 2.349208 0
M  V30 44 H -1.837087 1.485851 0.379011 0
M  V30 45 H -2.266834 2.687356 1.688294 0
M  V30 END ATOM
M  V30 BEGIN BOND
M  V30 1 1 1 2
M  V30 2 2 2 3
M  V30 3 1 3 4
M  V30 4 2 4 5
M  V30 5 1 5 6
M  V30 6 2 6 7
M  V30 7 1 7 8
M  V30 8 2 8 9
M  V30 9 1 9 10
M  V30 10 2 10 11
M  V30 11 1 11 12
M  V30 12 2 12 13
M  V30 13 1 13 14
M  V30 14 1 14 15
M  V30 15 1 15 16
M  V30 16 1 16 17
M  V30 17 1 17 18
M  V30 18 1 18 19
M  V30 19 1 19 20
M  V30 20 1 20 21
M  V30 21 1 21 22
M  V30 22 2 14 23
M  V30 23 1 5 24
M  V30 24 1 24 2
M  V30 25 1 23 6
M  V30 26 1 13 8
M  V30 27 1 22 17
M  V30 28 1 1 25
M  V30 29 1 1 26
M  V30 30 1 1 27
M  V30 31 1 3 28
M  V30 32 1 4 29
M  V30 33 1 7 30
M  V30 34 1 10 31
M  V30 35 1 11 32
M  V30 36 1 15 33
M  V30 37 1 16 34
M  V30 38 1 16 35
M  V30 39 1 17 36 CFG=3
M  V30 40 1 18 37
M  V30 41 1 18 38
M  V30 42 1 19 39
M  V30 43 1 19 40
M  V30 44 1 20 41
M  V30 45 1 20 42
M  V30 46 1 21 43
M  V30 47 1 22 44
M  V30 48 1 22 45
M  V30 END BOND
M  V30 END CTAB
M  END
>  <Dataset>  (714) 
ChEMBL_Kinases

>  <Ligand_Instance>  (714) 
nan

>  <PDB_ID>  (714) 
nan

>  <Standardized_SMILES>  (714) 
Cc1ccc(-c2cc3nccnc3c(NC[C@H]3CCCNC3)n2)o1

>  <Name>  (714) 
nan

>  <Pocket>  (714) 
nan

>  <ATP_Site>  (714) 
nan

>  <Peripheral>  (714) 
nan

>  <Num_H_Atoms_ProtBoundConf>  (714) 
nan

>  <Num_Resolved_Atoms>  (714) 
nan

>  <Num_Not_Resolved_Atoms>  (714) 
nan

$$$$
CHEMBL4452896
     RDKit          3D

  0  0  0  0  0  0  0  0  0  0999 V3000
M  V30 BEGIN CTAB
M  V30 COUNTS 38 40 0 0 0
M  V30 BEGIN ATOM
M  V30 1 C -1.156452 -3.045926 3.596805 0
M  V30 2 C -0.965046 -2.248468 2.287852 0
M  V30 3 N 0.383243 -1.718776 2.348636 0
M  V30 4 C 0.913466 -0.776715 1.403252 0
M  V30 5 N 0.212363 -0.270661 0.381744 0
M  V30 6 C 0.675184 0.619569 -0.507241 0
M  V30 7 C -0.197288 1.093753 -1.580425 0
M  V30 8 C -1.490961 0.626026 -1.677393 0
M  V30 9 C -2.261921 1.124173 -2.727121 0
M  V30 10 N -1.799284 2.026584 -3.631089 0
M  V30 11 C -0.544342 2.460660 -3.511923 0
M  V30 12 C 0.275214 2.010583 -2.497497 0
M  V30 13 N 1.936707 1.079418 -0.419089 0
M  V30 14 C 2.732186 0.620849 0.592291 0
M  V30 15 C 4.015905 1.083498 0.688157 0
M  V30 16 N 4.826249 0.641657 1.685441 0
M  V30 17 C 4.357598 -0.265031 2.592163 0
M  V30 18 C 3.057450 -0.702639 2.455584 0
M  V30 19 C 2.190783 -0.292728 1.468990 0
M  V30 20 C -2.010087 -1.226354 2.199548 0
M  V30 21 O -3.121725 -1.800914 2.151824 0
M  V30 22 O -3.012357 -0.246773 2.114877 0
M  V30 23 C -1.070841 -3.230978 1.116147 0
M  V30 24 F -0.069023 -4.153975 1.292292 0
M  V30 25 F -2.324224 -3.833434 1.195511 0
M  V30 26 F -0.930661 -2.519373 -0.041659 0
M  V30 27 H -0.346062 -3.806619 3.626766 0
M  V30 28 H -0.966851 -2.313957 4.408038 0
M  V30 29 H -2.161911 -3.478363 3.623753 0
M  V30 30 H 0.996979 -2.042444 3.120329 0
M  V30 31 H -1.882563 -0.088711 -0.974906 0
M  V30 32 H -3.280297 0.716356 -2.752842 0
M  V30 33 H -0.213585 3.174947 -4.246466 0
M  V30 34 H 1.279726 2.408708 -2.466824 0
M  V30 35 H 4.348071 1.803092 -0.052783 0
M  V30 36 H 5.042565 -0.583765 3.365230 0
M  V30 37 H 2.796924 -1.411219 3.220181 0
M  V30 38 H -2.760413 0.746816 2.234024 0
M  V30 END ATOM
M  V30 BEGIN BOND
M  V30 1 1 1 2
M  V30 2 1 2 3
M  V30 3 1 3 4
M  V30 4 2 4 5
M  V30 5 1 5 6
M  V30 6 1 6 7
M  V30 7 2 7 8
M  V30 8 1 8 9
M  V30 9 2 9 10
M  V30 10 1 10 11
M  V30 11 2 11 12
M  V30 12 2 6 13
M  V30 13 1 13 14
M  V30 14 2 14 15
M  V30 15 1 15 16
M  V30 16 2 16 17
M  V30 17 1 17 18
M  V30 18 2 18 19
M  V30 19 1 2 20
M  V30 20 2 20 21
M  V30 21 1 20 22
M  V30 22 1 2 23
M  V30 23 1 23 24
M  V30 24 1 23 25
M  V30 25 1 23 26
M  V30 26 1 19 4
M  V30 27 1 12 7
M  V30 28 1 19 14
M  V30 29 1 1 27
M  V30 30 1 1 28
M  V30 31 1 1 29
M  V30 32 1 3 30
M  V30 33 1 8 31
M  V30 34 1 9 32
M  V30 35 1 11 33
M  V30 36 1 12 34
M  V30 37 1 15 35
M  V30 38 1 17 36
M  V30 39 1 18 37
M  V30 40 1 22 38
M  V30 END BOND
M  V30 END CTAB
M  END
>  <Dataset>  (715) 
ChEMBL_Kinases

>  <Ligand_Instance>  (715) 
nan

>  <PDB_ID>  (715) 
nan

>  <Standardized_SMILES>  (715) 
CC(Nc1nc(-c2ccncc2)nc2cnccc12)(C(=O)O)C(F)(F)F

>  <Name>  (715) 
nan

>  <Pocket>  (715) 
nan

>  <ATP_Site>  (715) 
nan

>  <Peripheral>  (715) 
nan

>  <Num_H_Atoms_ProtBoundConf>  (715) 
nan

>  <Num_Resolved_Atoms>  (715) 
nan

>  <Num_Not_Resolved_Atoms>  (715) 
nan

$$$$
CHEMBL4747376
     RDKit          3D

  0  0  0  0  0  0  0  0  0  0999 V3000
M  V30 BEGIN CTAB
M  V30 COUNTS 43 46 0 0 0
M  V30 BEGIN ATOM
M  V30 1 O 3.583794 -1.082888 4.132229 0
M  V30 2 C 2.805518 -0.437614 3.347441 0
M  V30 3 N 3.467484 0.433308 2.478321 0
M  V30 4 C 2.701417 1.094954 1.678005 0
M  V30 5 N 3.205892 2.035997 0.715855 0
M  V30 6 C 4.455743 1.774975 -0.010928 0
M  V30 7 C 4.236865 0.568855 -0.844941 0
M  V30 8 C 4.484101 -0.742602 -0.494036 0
M  V30 9 C 4.229168 -1.803725 -1.371242 0
M  V30 10 C 3.715982 -1.546566 -2.625278 0
M  V30 11 O 3.451409 -2.571594 -3.516611 0
M  V30 12 C 3.442655 -0.266010 -3.050813 0
M  V30 13 C 3.716979 0.732238 -2.137762 0
M  V30 14 S 0.962460 0.651563 1.969105 0
M  V30 15 C 1.356931 -0.513446 3.269542 0
M  V30 16 C 0.678591 -1.295483 4.048055 0
M  V30 17 C -0.775289 -1.255002 3.838724 0
M  V30 18 C -1.795141 -1.266025 4.763724 0
M  V30 19 C -3.009105 -1.216430 4.110944 0
M  V30 20 C -2.670466 -1.175747 2.763173 0
M  V30 21 C -3.616219 -1.116446 1.649548 0
M  V30 22 C -3.162116 -1.086710 0.350099 0
M  V30 23 C -4.005547 -1.032087 -0.740090 0
M  V30 24 C -5.353294 -1.006400 -0.508107 0
M  V30 25 C -5.797909 -1.036661 0.801112 0
M  V30 26 Cl -7.521743 -1.005581 1.113893 0
M  V30 27 C -4.963795 -1.091676 1.908845 0
M  V30 28 O -1.367708 -1.199696 2.647331 0
M  V30 29 H 2.609657 2.907272 0.582595 0
M  V30 30 H 5.297589 1.635566 0.701786 0
M  V30 31 H 4.714675 2.613479 -0.668818 0
M  V30 32 H 4.883360 -0.901103 0.482886 0
M  V30 33 H 4.435677 -2.811391 -1.056667 0
M  V30 34 H 2.694838 -2.512996 -4.213570 0
M  V30 35 H 3.036308 0.032076 -4.022910 0
M  V30 36 H 3.511812 1.757883 -2.443911 0
M  V30 37 H 1.142874 -1.930366 4.794804 0
M  V30 38 H -1.677092 -1.305749 5.842601 0
M  V30 39 H -3.981036 -1.211728 4.581690 0
M  V30 40 H -2.084482 -1.107379 0.157650 0
M  V30 41 H -3.587142 -1.012652 -1.749672 0
M  V30 42 H -6.083738 -0.963817 -1.305507 0
M  V30 43 H -5.394990 -1.111976 2.919695 0
M  V30 END ATOM
M  V30 BEGIN BOND
M  V30 1 2 1 2
M  V30 2 1 2 3
M  V30 3 2 3 4
M  V30 4 1 4 5
M  V30 5 1 5 6
M  V30 6 1 6 7
M  V30 7 2 7 8
M  V30 8 1 8 9
M  V30 9 2 9 10
M  V30 10 1 10 11
M  V30 11 1 10 12
M  V30 12 2 12 13
M  V30 13 1 4 14
M  V30 14 1 14 15
M  V30 15 2 15 16
M  V30 16 1 16 17
M  V30 17 2 17 18
M  V30 18 1 18 19
M  V30 19 2 19 20
M  V30 20 1 20 21
M  V30 21 2 21 22
M  V30 22 1 22 23
M  V30 23 2 23 24
M  V30 24 1 24 25
M  V30 25 1 25 26
M  V30 26 2 25 27
M  V30 27 1 20 28
M  V30 28 1 15 2
M  V30 29 1 28 17
M  V30 30 1 13 7
M  V30 31 1 27 21
M  V30 32 1 5 29
M  V30 33 1 6 30
M  V30 34 1 6 31
M  V30 35 1 8 32
M  V30 36 1 9 33
M  V30 37 1 11 34
M  V30 38 1 12 35
M  V30 39 1 13 36
M  V30 40 1 16 37
M  V30 41 1 18 38
M  V30 42 1 19 39
M  V30 43 1 22 40
M  V30 44 1 23 41
M  V30 45 1 24 42
M  V30 46 1 27 43
M  V30 END BOND
M  V30 END CTAB
M  END
>  <Dataset>  (716) 
ChEMBL_Kinases

>  <Ligand_Instance>  (716) 
nan

>  <PDB_ID>  (716) 
nan

>  <Standardized_SMILES>  (716) 
O=C1N=C(NCc2ccc(O)cc2)S/C1=C\c1ccc(-c2cccc(Cl)c2)o1

>  <Name>  (716) 
nan

>  <Pocket>  (716) 
nan

>  <ATP_Site>  (716) 
nan

>  <Peripheral>  (716) 
nan

>  <Num_H_Atoms_ProtBoundConf>  (716) 
nan

>  <Num_Resolved_Atoms>  (716) 
nan

>  <Num_Not_Resolved_Atoms>  (716) 
nan

$$$$
CHEMBL4453187
     RDKit          3D

  0  0  0  0  0  0  0  0  0  0999 V3000
M  V30 BEGIN CTAB
M  V30 COUNTS 50 52 0 0 0
M  V30 BEGIN ATOM
M  V30 1 C 3.010579 -3.567515 3.427391 0
M  V30 2 N 2.081310 -3.616082 2.323372 0
M  V30 3 C 1.618002 -4.979645 2.178324 0
M  V30 4 C 2.656875 -3.183028 1.090602 0
M  V30 5 C 2.981535 -1.744243 0.975111 0
M  V30 6 C 1.811153 -0.788868 1.090380 0
M  V30 7 C 1.152912 -0.939298 2.439737 0
M  V30 8 C 2.416562 0.597065 1.018477 0
M  V30 9 N 0.876164 -0.905803 -0.015238 0
M  V30 10 C -0.294686 -0.265280 -0.462487 0
M  V30 11 C -0.894063 0.804002 0.164344 0
M  V30 12 C -2.029762 1.474686 -0.224251 0
M  V30 13 C -2.619754 2.600304 0.484646 0
M  V30 14 C -2.146377 3.179503 1.640853 0
M  V30 15 C -2.838252 4.255255 2.192562 0
M  V30 16 N -3.956417 4.767446 1.653443 0
M  V30 17 C -4.444050 4.219927 0.519470 0
M  V30 18 C -3.770615 3.154010 -0.038998 0
M  V30 19 F -4.316321 2.644550 -1.189282 0
M  V30 20 N -2.584627 0.992445 -1.356844 0
M  V30 21 C -2.066224 -0.042692 -2.028434 0
M  V30 22 C -2.696095 -0.469307 -3.174207 0
M  V30 23 N -2.255905 -1.503333 -3.925197 0
M  V30 24 C -1.127435 -2.173726 -3.542915 0
M  V30 25 C -0.515126 -1.728103 -2.393274 0
M  V30 26 C -0.933449 -0.683005 -1.607182 0
M  V30 27 H 3.254057 -4.599668 3.765241 0
M  V30 28 H 3.940658 -3.011397 3.186388 0
M  V30 29 H 2.451265 -3.105714 4.282020 0
M  V30 30 H 1.332301 -5.440404 3.158508 0
M  V30 31 H 0.801422 -4.985745 1.440292 0
M  V30 32 H 2.453154 -5.592611 1.740859 0
M  V30 33 H 3.645173 -3.733826 1.006560 0
M  V30 34 H 2.075316 -3.587013 0.232754 0
M  V30 35 H 3.470717 -1.530761 0.023817 0
M  V30 36 H 3.641669 -1.486656 1.848979 0
M  V30 37 H 0.555405 -1.842015 2.565851 0
M  V30 38 H 1.995625 -0.917899 3.196742 0
M  V30 39 H 0.566536 -0.018697 2.724168 0
M  V30 40 H 1.843650 1.379493 1.508304 0
M  V30 41 H 3.488742 0.582469 1.378884 0
M  V30 42 H 2.531378 0.808449 -0.084386 0
M  V30 43 H 1.229375 -1.695148 -0.588153 0
M  V30 44 H -0.476463 1.214353 1.062091 0
M  V30 45 H -1.252681 2.771973 2.075218 0
M  V30 46 H -2.424901 4.674243 3.102415 0
M  V30 47 H -5.349811 4.635806 0.083872 0
M  V30 48 H -3.580548 0.037246 -3.493960 0
M  V30 49 H -0.770506 -3.001018 -4.138984 0
M  V30 50 H 0.364057 -2.296164 -2.148620 0
M  V30 END ATOM
M  V30 BEGIN BOND
M  V30 1 1 1 2
M  V30 2 1 2 3
M  V30 3 1 2 4
M  V30 4 1 4 5
M  V30 5 1 5 6
M  V30 6 1 6 7
M  V30 7 1 6 8
M  V30 8 1 6 9
M  V30 9 1 9 10
M  V30 10 2 10 11
M  V30 11 1 11 12
M  V30 12 1 12 13
M  V30 13 2 13 14
M  V30 14 1 14 15
M  V30 15 2 15 16
M  V30 16 1 16 17
M  V30 17 2 17 18
M  V30 18 1 18 19
M  V30 19 2 12 20
M  V30 20 1 20 21
M  V30 21 2 21 22
M  V30 22 1 22 23
M  V30 23 2 23 24
M  V30 24 1 24 25
M  V30 25 2 25 26
M  V30 26 1 26 10
M  V30 27 1 18 13
M  V30 28 1 26 21
M  V30 29 1 1 27
M  V30 30 1 1 28
M  V30 31 1 1 29
M  V30 32 1 3 30
M  V30 33 1 3 31
M  V30 34 1 3 32
M  V30 35 1 4 33
M  V30 36 1 4 34
M  V30 37 1 5 35
M  V30 38 1 5 36
M  V30 39 1 7 37
M  V30 40 1 7 38
M  V30 41 1 7 39
M  V30 42 1 8 40
M  V30 43 1 8 41
M  V30 44 1 8 42
M  V30 45 1 9 43
M  V30 46 1 11 44
M  V30 47 1 14 45
M  V30 48 1 15 46
M  V30 49 1 17 47
M  V30 50 1 22 48
M  V30 51 1 24 49
M  V30 52 1 25 50
M  V30 END BOND
M  V30 END CTAB
M  END
>  <Dataset>  (717) 
ChEMBL_Kinases

>  <Ligand_Instance>  (717) 
nan

>  <PDB_ID>  (717) 
nan

>  <Standardized_SMILES>  (717) 
CN(C)CCC(C)(C)Nc1cc(-c2ccncc2F)nc2cnccc12

>  <Name>  (717) 
nan

>  <Pocket>  (717) 
nan

>  <ATP_Site>  (717) 
nan

>  <Peripheral>  (717) 
nan

>  <Num_H_Atoms_ProtBoundConf>  (717) 
nan

>  <Num_Resolved_Atoms>  (717) 
nan

>  <Num_Not_Resolved_Atoms>  (717) 
nan

$$$$
CHEMBL4747386
     RDKit          3D

  0  0  0  0  0  0  0  0  0  0999 V3000
M  V30 BEGIN CTAB
M  V30 COUNTS 34 36 0 0 0
M  V30 BEGIN ATOM
M  V30 1 C -1.342943 -2.380233 3.731478 0
M  V30 2 C -0.064967 -3.105016 3.475846 0
M  V30 3 C 0.193395 -3.368255 2.013183 0
M  V30 4 N 0.272573 -2.177450 1.232383 0
M  V30 5 C 1.437477 -1.542705 1.038595 0
M  V30 6 O 2.479247 -2.022778 1.566007 0
M  V30 7 C 1.505989 -0.393941 0.283875 0
M  V30 8 C 2.728729 0.220351 0.115244 0
M  V30 9 C 2.735930 1.366915 -0.650133 0
M  V30 10 C 1.608498 1.902915 -1.231917 0
M  V30 11 C 0.384917 1.286487 -1.062028 0
M  V30 12 O -0.605608 1.937191 -1.693405 0
M  V30 13 C -0.483311 3.115947 -2.457519 0
M  V30 14 C 0.394842 0.154897 -0.303274 0
M  V30 15 N -0.752718 -0.474357 -0.109724 0
M  V30 16 C -1.990223 -0.244766 -0.508403 0
M  V30 17 S -2.748285 0.858067 -1.396146 0
M  V30 18 N -2.805161 -1.195243 -0.034145 0
M  V30 19 N -2.078555 -2.059103 0.687534 0
M  V30 20 C -0.798291 -1.585350 0.624281 0
M  V30 21 H -1.503095 -2.376662 4.835480 0
M  V30 22 H -2.198225 -2.990900 3.331226 0
M  V30 23 H -1.371158 -1.346587 3.376700 0
M  V30 24 H -0.070008 -4.048470 4.056733 0
M  V30 25 H 0.755405 -2.478440 3.909715 0
M  V30 26 H -0.607710 -4.038994 1.639753 0
M  V30 27 H 1.127714 -3.958187 1.936589 0
M  V30 28 H 3.589675 -0.229966 0.586936 0
M  V30 29 H 3.700046 1.837724 -0.774026 0
M  V30 30 H 1.787853 2.822826 -1.811606 0
M  V30 31 H -1.520423 3.544931 -2.581183 0
M  V30 32 H 0.017664 2.968059 -3.422899 0
M  V30 33 H 0.050554 3.890444 -1.868385 0
M  V30 34 H -3.831433 -1.432836 -0.078522 0
M  V30 END ATOM
M  V30 BEGIN BOND
M  V30 1 1 1 2
M  V30 2 1 2 3
M  V30 3 1 3 4
M  V30 4 1 4 5
M  V30 5 2 5 6
M  V30 6 1 5 7
M  V30 7 2 7 8
M  V30 8 1 8 9
M  V30 9 2 9 10
M  V30 10 1 10 11
M  V30 11 1 11 12
M  V30 12 1 12 13
M  V30 13 2 11 14
M  V30 14 1 14 15
M  V30 15 1 15 16
M  V30 16 2 16 17
M  V30 17 1 16 18
M  V30 18 1 18 19
M  V30 19 2 19 20
M  V30 20 1 20 4
M  V30 21 1 14 7
M  V30 22 1 20 15
M  V30 23 1 1 21
M  V30 24 1 1 22
M  V30 25 1 1 23
M  V30 26 1 2 24
M  V30 27 1 2 25
M  V30 28 1 3 26
M  V30 29 1 3 27
M  V30 30 1 8 28
M  V30 31 1 9 29
M  V30 32 1 10 30
M  V30 33 1 13 31
M  V30 34 1 13 32
M  V30 35 1 13 33
M  V30 36 1 18 34
M  V30 END BOND
M  V30 END CTAB
M  END
>  <Dataset>  (718) 
ChEMBL_Kinases

>  <Ligand_Instance>  (718) 
nan

>  <PDB_ID>  (718) 
nan

>  <Standardized_SMILES>  (718) 
CCCn1c(=O)c2cccc(OC)c2n2c(=S)[nH]nc12

>  <Name>  (718) 
nan

>  <Pocket>  (718) 
nan

>  <ATP_Site>  (718) 
nan

>  <Peripheral>  (718) 
nan

>  <Num_H_Atoms_ProtBoundConf>  (718) 
nan

>  <Num_Resolved_Atoms>  (718) 
nan

>  <Num_Not_Resolved_Atoms>  (718) 
nan

$$$$
CHEMBL4453008
     RDKit          3D

  0  0  0  0  0  0  0  0  0  0999 V3000
M  V30 BEGIN CTAB
M  V30 COUNTS 39 41 0 0 0
M  V30 BEGIN ATOM
M  V30 1 C -0.495940 -4.568696 1.980895 0
M  V30 2 C 0.133123 -3.725787 0.926173 0
M  V30 3 N 0.319485 -2.371941 1.342771 0
M  V30 4 C 1.315907 -2.349085 2.404938 0
M  V30 5 C 1.553025 -0.964297 2.926616 0
M  V30 6 C -0.211306 -1.098281 0.948563 0
M  V30 7 C 0.745434 -0.296385 0.316543 0
M  V30 8 C 0.491383 0.952972 -0.171218 0
M  V30 9 C 1.450643 1.821567 -0.834714 0
M  V30 10 C 2.756732 1.516829 -1.065071 0
M  V30 11 C 3.697467 2.307438 -1.689267 0
M  V30 12 N 3.279192 3.514580 -2.119004 0
M  V30 13 C 2.012259 3.888750 -1.931148 0
M  V30 14 C 1.091309 3.066488 -1.298224 0
M  V30 15 Cl -0.559579 3.645712 -1.094956 0
M  V30 16 N -0.772005 1.423968 -0.022737 0
M  V30 17 C -1.737125 0.712473 0.571080 0
M  V30 18 C -3.037550 1.124246 0.758082 0
M  V30 19 N -3.964211 0.348475 1.371221 0
M  V30 20 C -3.656710 -0.885503 1.837318 0
M  V30 21 C -2.374792 -1.332314 1.671283 0
M  V30 22 C -1.454121 -0.541316 1.052751 0
M  V30 23 H -1.465605 -5.000188 1.594046 0
M  V30 24 H 0.175351 -5.421289 2.265543 0
M  V30 25 H -0.753325 -4.021814 2.896139 0
M  V30 26 H -0.503636 -3.777579 -0.001548 0
M  V30 27 H 1.106329 -4.189842 0.629536 0
M  V30 28 H 0.959557 -3.030605 3.202144 0
M  V30 29 H 2.291841 -2.734035 1.981846 0
M  V30 30 H 2.387745 -0.450633 2.446630 0
M  V30 31 H 1.679718 -1.013408 4.048762 0
M  V30 32 H 0.633006 -0.347626 2.762370 0
M  V30 33 H 1.774887 -0.615311 0.160050 0
M  V30 34 H 3.148338 0.552578 -0.738164 0
M  V30 35 H 4.721630 1.995286 -1.836421 0
M  V30 36 H 1.731237 4.870180 -2.296993 0
M  V30 37 H -3.292013 2.126420 0.380991 0
M  V30 38 H -4.437069 -1.472168 2.324079 0
M  V30 39 H -2.153645 -2.300661 2.045207 0
M  V30 END ATOM
M  V30 BEGIN BOND
M  V30 1 1 1 2
M  V30 2 1 2 3
M  V30 3 1 3 4
M  V30 4 1 4 5
M  V30 5 1 3 6
M  V30 6 2 6 7
M  V30 7 1 7 8
M  V30 8 1 8 9
M  V30 9 2 9 10
M  V30 10 1 10 11
M  V30 11 2 11 12
M  V30 12 1 12 13
M  V30 13 2 13 14
M  V30 14 1 14 15
M  V30 15 2 8 16
M  V30 16 1 16 17
M  V30 17 2 17 18
M  V30 18 1 18 19
M  V30 19 2 19 20
M  V30 20 1 20 21
M  V30 21 2 21 22
M  V30 22 1 22 6
M  V30 23 1 14 9
M  V30 24 1 22 17
M  V30 25 1 1 23
M  V30 26 1 1 24
M  V30 27 1 1 25
M  V30 28 1 2 26
M  V30 29 1 2 27
M  V30 30 1 4 28
M  V30 31 1 4 29
M  V30 32 1 5 30
M  V30 33 1 5 31
M  V30 34 1 5 32
M  V30 35 1 7 33
M  V30 36 1 10 34
M  V30 37 1 11 35
M  V30 38 1 13 36
M  V30 39 1 18 37
M  V30 40 1 20 38
M  V30 41 1 21 39
M  V30 END BOND
M  V30 END CTAB
M  END
>  <Dataset>  (719) 
ChEMBL_Kinases

>  <Ligand_Instance>  (719) 
nan

>  <PDB_ID>  (719) 
nan

>  <Standardized_SMILES>  (719) 
CCN(CC)c1cc(-c2ccncc2Cl)nc2cnccc12

>  <Name>  (719) 
nan

>  <Pocket>  (719) 
nan

>  <ATP_Site>  (719) 
nan

>  <Peripheral>  (719) 
nan

>  <Num_H_Atoms_ProtBoundConf>  (719) 
nan

>  <Num_Resolved_Atoms>  (719) 
nan

>  <Num_Not_Resolved_Atoms>  (719) 
nan

$$$$
CHEMBL4747390
     RDKit          3D

  0  0  0  0  0  0  0  0  0  0999 V3000
M  V30 BEGIN CTAB
M  V30 COUNTS 38 40 0 0 0
M  V30 BEGIN ATOM
M  V30 1 O -1.118663 -2.263726 2.785703 0
M  V30 2 C -0.633588 -2.964684 1.862661 0
M  V30 3 N 0.274109 -2.364895 0.982163 0
M  V30 4 C 0.768273 -1.038663 0.945677 0
M  V30 5 C 1.669410 -0.683382 -0.035032 0
M  V30 6 C 2.196503 0.585075 -0.138679 0
M  V30 7 Cl 3.329673 0.914267 -1.424019 0
M  V30 8 C 1.844592 1.579602 0.746475 0
M  V30 9 O 2.401574 2.833296 0.598530 0
M  V30 10 C 1.823009 3.832994 -0.183361 0
M  V30 11 C 0.636691 3.689487 -0.895080 0
M  V30 12 C 0.146904 4.745367 -1.642184 0
M  V30 13 C 0.806368 5.974378 -1.713670 0
M  V30 14 C 1.981285 6.083010 -0.995175 0
M  V30 15 C 2.491566 5.045962 -0.242423 0
M  V30 16 C 0.944752 1.261840 1.742169 0
M  V30 17 Cl 0.467584 2.495184 2.891352 0
M  V30 18 C 0.444964 -0.020640 1.805115 0
M  V30 19 C -1.067398 -4.351702 1.796030 0
M  V30 20 C -0.645939 -5.270820 0.856742 0
M  V30 21 C -1.044558 -6.567438 0.785742 0
M  V30 22 Cl -0.469768 -7.682479 -0.433948 0
M  V30 23 C -1.946936 -7.046238 1.713078 0
M  V30 24 C -2.410336 -6.180913 2.681497 0
M  V30 25 Cl -3.556069 -6.731640 3.884258 0
M  V30 26 C -1.968246 -4.875040 2.701706 0
M  V30 27 O -2.462664 -4.023537 3.703166 0
M  V30 28 H 0.611636 -3.034018 0.259525 0
M  V30 29 H 1.985346 -1.441366 -0.769940 0
M  V30 30 H 0.136531 2.734503 -0.831569 0
M  V30 31 H -0.772255 4.640660 -2.196262 0
M  V30 32 H 0.406014 6.788158 -2.304314 0
M  V30 33 H 2.530073 7.004326 -1.013438 0
M  V30 34 H 3.422275 5.188107 0.303933 0
M  V30 35 H -0.241390 -0.187510 2.598048 0
M  V30 36 H 0.056915 -4.968007 0.103383 0
M  V30 37 H -2.299949 -8.061820 1.708979 0
M  V30 38 H -3.263573 -3.458831 3.445339 0
M  V30 END ATOM
M  V30 BEGIN BOND
M  V30 1 2 1 2
M  V30 2 1 2 3
M  V30 3 1 3 4
M  V30 4 2 4 5
M  V30 5 1 5 6
M  V30 6 1 6 7
M  V30 7 2 6 8
M  V30 8 1 8 9
M  V30 9 1 9 10
M  V30 10 2 10 11
M  V30 11 1 11 12
M  V30 12 2 12 13
M  V30 13 1 13 14
M  V30 14 2 14 15
M  V30 15 1 8 16
M  V30 16 1 16 17
M  V30 17 2 16 18
M  V30 18 1 2 19
M  V30 19 2 19 20
M  V30 20 1 20 21
M  V30 21 1 21 22
M  V30 22 2 21 23
M  V30 23 1 23 24
M  V30 24 1 24 25
M  V30 25 2 24 26
M  V30 26 1 26 27
M  V30 27 1 18 4
M  V30 28 1 26 19
M  V30 29 1 15 10
M  V30 30 1 3 28
M  V30 31 1 5 29
M  V30 32 1 11 30
M  V30 33 1 12 31
M  V30 34 1 13 32
M  V30 35 1 14 33
M  V30 36 1 15 34
M  V30 37 1 18 35
M  V30 38 1 20 36
M  V30 39 1 23 37
M  V30 40 1 27 38
M  V30 END BOND
M  V30 END CTAB
M  END
>  <Dataset>  (720) 
ChEMBL_Kinases

>  <Ligand_Instance>  (720) 
nan

>  <PDB_ID>  (720) 
nan

>  <Standardized_SMILES>  (720) 
O=C(Nc1cc(Cl)c(Oc2ccccc2)c(Cl)c1)c1cc(Cl)cc(Cl)c1O

>  <Name>  (720) 
nan

>  <Pocket>  (720) 
nan

>  <ATP_Site>  (720) 
nan

>  <Peripheral>  (720) 
nan

>  <Num_H_Atoms_ProtBoundConf>  (720) 
nan

>  <Num_Resolved_Atoms>  (720) 
nan

>  <Num_Not_Resolved_Atoms>  (720) 
nan

$$$$
CHEMBL4747410
     RDKit          3D

  0  0  0  0  0  0  0  0  0  0999 V3000
M  V30 BEGIN CTAB
M  V30 COUNTS 70 76 0 0 0
M  V30 BEGIN ATOM
M  V30 1 N -1.876134 -0.492843 3.030610 0
M  V30 2 C -1.091800 -1.213105 2.114444 0
M  V30 3 O -0.035619 -1.567679 2.671404 0
M  V30 4 C -1.729168 -1.336227 0.797967 0
M  V30 5 S -3.277335 -0.754747 0.154743 0
M  V30 6 C -2.998359 -1.472040 -1.507210 0
M  V30 7 C -3.949166 -1.368431 -2.636977 0
M  V30 8 C -3.725587 -1.907285 -3.860433 0
M  V30 9 C -4.696124 -1.739770 -4.834600 0
M  V30 10 N -5.838981 -1.054576 -4.569228 0
M  V30 11 C -6.087071 -0.509600 -3.365205 0
M  V30 12 N -7.271130 0.202602 -3.083257 0
M  V30 13 C -8.263785 0.360917 -4.115698 0
M  V30 14 O -8.006715 -0.158277 -5.231161 0
M  V30 15 C -9.473043 1.125210 -3.720995 0
M  V30 16 C -9.327917 2.334227 -2.834542 0
M  V30 17 C -9.973161 1.065036 -2.326180 0
M  V30 18 C -5.120449 -0.676490 -2.395208 0
M  V30 19 N -1.909497 -2.004216 -1.412559 0
M  V30 20 C -1.185752 -2.000101 -0.310776 0
M  V30 21 O 0.052837 -2.623546 -0.255248 0
M  V30 22 C 0.683016 -3.307096 -1.291071 0
M  V30 23 C 2.024857 -3.842268 -0.820136 0
M  V30 24 C 2.915979 -2.739115 -0.376819 0
M  V30 25 C 2.938408 -2.276845 0.945342 0
M  V30 26 N 3.818722 -1.286781 1.071403 0
M  V30 27 C 4.287984 -0.441649 2.087610 0
M  V30 28 C 5.473086 -0.566191 2.783048 0
M  V30 29 C 5.768237 0.377635 3.762518 0
M  V30 30 N 4.932827 1.403033 4.047881 0
M  V30 31 C 3.755467 1.557649 3.382710 0
M  V30 32 C 2.923477 2.612983 3.695878 0
M  V30 33 C 1.729929 2.745165 3.001845 0
M  V30 34 C 1.356784 1.839563 2.001419 0
M  V30 35 C 2.260728 0.823984 1.769590 0
M  V30 36 C 3.465284 0.619708 2.411397 0
M  V30 37 C 7.041551 0.266583 4.528682 0
M  V30 38 C 7.359875 -1.225059 4.586155 0
M  V30 39 C 7.680672 -1.634291 3.151241 0
M  V30 40 C 6.343109 -1.706248 2.427243 0
M  V30 41 N 4.356526 -1.107093 -0.133994 0
M  V30 42 N 3.823120 -1.972031 -1.010166 0
M  V30 43 H -2.321510 -0.892963 3.894204 0
M  V30 44 H -2.288252 0.448483 3.272633 0
M  V30 45 H -2.785790 -2.425652 -3.946208 0
M  V30 46 H -4.479540 -2.185491 -5.799764 0
M  V30 47 H -7.415128 0.604890 -2.135501 0
M  V30 48 H -10.229044 1.241214 -4.523127 0
M  V30 49 H -8.340552 2.581886 -2.402578 0
M  V30 50 H -9.993119 3.196546 -2.942097 0
M  V30 51 H -9.390279 0.412865 -1.638872 0
M  V30 52 H -11.066120 1.078341 -2.135633 0
M  V30 53 H -5.330866 -0.234307 -1.432332 0
M  V30 54 H 0.854640 -2.622112 -2.144687 0
M  V30 55 H 0.024228 -4.139085 -1.596223 0
M  V30 56 H 2.514017 -4.296793 -1.727626 0
M  V30 57 H 1.927202 -4.640158 -0.085106 0
M  V30 58 H 2.378124 -2.591799 1.814610 0
M  V30 59 H 3.164433 3.334481 4.454567 0
M  V30 60 H 1.052689 3.566859 3.225732 0
M  V30 61 H 0.434388 1.914462 1.442458 0
M  V30 62 H 1.968227 0.127811 0.996750 0
M  V30 63 H 6.953973 0.706258 5.548812 0
M  V30 64 H 7.894901 0.772239 4.036429 0
M  V30 65 H 8.235165 -1.336093 5.256601 0
M  V30 66 H 6.448912 -1.729916 4.927211 0
M  V30 67 H 8.251088 -0.803722 2.696281 0
M  V30 68 H 8.215209 -2.581042 3.104131 0
M  V30 69 H 5.896500 -2.683103 2.770098 0
M  V30 70 H 6.552592 -1.809121 1.356078 0
M  V30 END ATOM
M  V30 BEGIN BOND
M  V30 1 1 1 2
M  V30 2 2 2 3
M  V30 3 1 2 4
M  V30 4 1 4 5
M  V30 5 1 5 6
M  V30 6 1 6 7
M  V30 7 2 7 8
M  V30 8 1 8 9
M  V30 9 2 9 10
M  V30 10 1 10 11
M  V30 11 1 11 12
M  V30 12 1 12 13
M  V30 13 2 13 14
M  V30 14 1 13 15
M  V30 15 1 15 16
M  V30 16 1 16 17
M  V30 17 2 11 18
M  V30 18 2 6 19
M  V30 19 1 19 20
M  V30 20 1 20 21
M  V30 21 1 21 22
M  V30 22 1 22 23
M  V30 23 1 23 24
M  V30 24 2 24 25
M  V30 25 1 25 26
M  V30 26 1 26 27
M  V30 27 2 27 28
M  V30 28 1 28 29
M  V30 29 2 29 30
M  V30 30 1 30 31
M  V30 31 2 31 32
M  V30 32 1 32 33
M  V30 33 2 33 34
M  V30 34 1 34 35
M  V30 35 2 35 36
M  V30 36 1 29 37
M  V30 37 1 37 38
M  V30 38 1 38 39
M  V30 39 1 39 40
M  V30 40 1 26 41
M  V30 41 2 41 42
M  V30 42 2 20 4
M  V30 43 1 42 24
M  V30 44 1 18 7
M  V30 45 1 36 27
M  V30 46 1 17 15
M  V30 47 1 40 28
M  V30 48 1 36 31
M  V30 49 1 1 43
M  V30 50 1 1 44
M  V30 51 1 8 45
M  V30 52 1 9 46
M  V30 53 1 12 47
M  V30 54 1 15 48
M  V30 55 1 16 49
M  V30 56 1 16 50
M  V30 57 1 17 51
M  V30 58 1 17 52
M  V30 59 1 18 53
M  V30 60 1 22 54
M  V30 61 1 22 55
M  V30 62 1 23 56
M  V30 63 1 23 57
M  V30 64 1 25 58
M  V30 65 1 32 59
M  V30 66 1 33 60
M  V30 67 1 34 61
M  V30 68 1 35 62
M  V30 69 1 37 63
M  V30 70 1 37 64
M  V30 71 1 38 65
M  V30 72 1 38 66
M  V30 73 1 39 67
M  V30 74 1 39 68
M  V30 75 1 40 69
M  V30 76 1 40 70
M  V30 END BOND
M  V30 END CTAB
M  END
>  <Dataset>  (721) 
ChEMBL_Kinases

>  <Ligand_Instance>  (721) 
nan

>  <PDB_ID>  (721) 
nan

>  <Standardized_SMILES>  (721) 
NC(=O)c1sc(-c2ccnc(NC(=O)C3CC3)c2)nc1OCCc1cn(-c2c3c(nc4ccccc24)CCCC3)nn1

>  <Name>  (721) 
nan

>  <Pocket>  (721) 
nan

>  <ATP_Site>  (721) 
nan

>  <Peripheral>  (721) 
nan

>  <Num_H_Atoms_ProtBoundConf>  (721) 
nan

>  <Num_Resolved_Atoms>  (721) 
nan

>  <Num_Not_Resolved_Atoms>  (721) 
nan

$$$$
CHEMBL4747422
     RDKit          3D

  0  0  0  0  0  0  0  0  0  0999 V3000
M  V30 BEGIN CTAB
M  V30 COUNTS 50 53 0 0 0
M  V30 BEGIN ATOM
M  V30 1 C 0.038421 -6.641073 0.725878 0
M  V30 2 O -0.811613 -5.544884 0.451283 0
M  V30 3 C -0.261279 -4.276203 0.326022 0
M  V30 4 C 1.081830 -3.984988 0.449970 0
M  V30 5 N 1.540156 -2.718211 0.313451 0
M  V30 6 N 2.745088 -2.167305 0.380301 0
M  V30 7 C 2.636261 -0.828320 0.161558 0
M  V30 8 C 1.284222 -0.544735 -0.051566 0
M  V30 9 C 0.848815 0.830342 -0.316896 0
M  V30 10 C -0.057691 1.180685 -1.320576 0
M  V30 11 C -0.378283 2.515498 -1.457970 0
M  V30 12 N 0.128503 3.487806 -0.686970 0
M  V30 13 C 1.012401 3.150885 0.292526 0
M  V30 14 O 1.463658 4.244165 1.019932 0
M  V30 15 C 2.391326 4.148009 2.094571 0
M  V30 16 C 2.581783 5.590834 2.577366 0
M  V30 17 C 1.855118 3.361276 3.245047 0
M  V30 18 C 3.726498 3.627558 1.672945 0
M  V30 19 C 1.367849 1.834955 0.474315 0
M  V30 20 C 0.624333 -1.760326 0.051797 0
M  V30 21 N -0.705578 -1.950936 -0.085905 0
M  V30 22 C -1.151858 -3.232996 0.054466 0
M  V30 23 C -2.591161 -3.509844 -0.083738 0
M  V30 24 C -3.461589 -2.637298 0.573824 0
M  V30 25 N -4.713865 -3.085963 0.305505 0
M  V30 26 N -4.670700 -4.156751 -0.459369 0
M  V30 27 C -5.754702 -4.966958 -0.992261 0
M  V30 28 C -3.382159 -4.445624 -0.718145 0
M  V30 29 H 0.806238 -6.405787 1.514544 0
M  V30 30 H 0.586717 -6.949070 -0.189880 0
M  V30 31 H -0.550890 -7.514394 1.106427 0
M  V30 32 H 1.758005 -4.805943 0.660573 0
M  V30 33 H 3.480366 -0.133056 0.161010 0
M  V30 34 H -0.457171 0.389916 -1.932705 0
M  V30 35 H -1.088399 2.727219 -2.255492 0
M  V30 36 H 1.640329 5.850731 3.118071 0
M  V30 37 H 3.475306 5.691267 3.226802 0
M  V30 38 H 2.612112 6.217511 1.675129 0
M  V30 39 H 1.774518 3.962423 4.181710 0
M  V30 40 H 2.527918 2.506974 3.438385 0
M  V30 41 H 0.834486 2.994203 2.938079 0
M  V30 42 H 3.733150 3.314417 0.602409 0
M  V30 43 H 4.563482 4.321476 1.899284 0
M  V30 44 H 3.963908 2.700061 2.253263 0
M  V30 45 H 2.060320 1.633763 1.252887 0
M  V30 46 H -3.289692 -1.760879 1.191338 0
M  V30 47 H -5.455418 -6.028185 -0.844936 0
M  V30 48 H -5.875203 -4.828111 -2.085937 0
M  V30 49 H -6.711779 -4.831075 -0.452055 0
M  V30 50 H -2.872564 -5.214500 -1.287003 0
M  V30 END ATOM
M  V30 BEGIN BOND
M  V30 1 1 1 2
M  V30 2 1 2 3
M  V30 3 2 3 4
M  V30 4 1 4 5
M  V30 5 1 5 6
M  V30 6 2 6 7
M  V30 7 1 7 8
M  V30 8 1 8 9
M  V30 9 2 9 10
M  V30 10 1 10 11
M  V30 11 2 11 12
M  V30 12 1 12 13
M  V30 13 1 13 14
M  V30 14 1 14 15
M  V30 15 1 15 16
M  V30 16 1 15 17
M  V30 17 1 15 18
M  V30 18 2 13 19
M  V30 19 2 8 20
M  V30 20 1 20 21
M  V30 21 2 21 22
M  V30 22 1 22 23
M  V30 23 1 23 24
M  V30 24 2 24 25
M  V30 25 1 25 26
M  V30 26 1 26 27
M  V30 27 1 26 28
M  V30 28 1 22 3
M  V30 29 2 28 23
M  V30 30 1 20 5
M  V30 31 1 19 9
M  V30 32 1 1 29
M  V30 33 1 1 30
M  V30 34 1 1 31
M  V30 35 1 4 32
M  V30 36 1 7 33
M  V30 37 1 10 34
M  V30 38 1 11 35
M  V30 39 1 16 36
M  V30 40 1 16 37
M  V30 41 1 16 38
M  V30 42 1 17 39
M  V30 43 1 17 40
M  V30 44 1 17 41
M  V30 45 1 18 42
M  V30 46 1 18 43
M  V30 47 1 18 44
M  V30 48 1 19 45
M  V30 49 1 24 46
M  V30 50 1 27 47
M  V30 51 1 27 48
M  V30 52 1 27 49
M  V30 53 1 28 50
M  V30 END BOND
M  V30 END CTAB
M  END
>  <Dataset>  (722) 
ChEMBL_Kinases

>  <Ligand_Instance>  (722) 
nan

>  <PDB_ID>  (722) 
nan

>  <Standardized_SMILES>  (722) 
COc1cn2ncc(-c3ccnc(OC(C)(C)C)c3)c2nc1-c1cnn(C)c1

>  <Name>  (722) 
nan

>  <Pocket>  (722) 
nan

>  <ATP_Site>  (722) 
nan

>  <Peripheral>  (722) 
nan

>  <Num_H_Atoms_ProtBoundConf>  (722) 
nan

>  <Num_Resolved_Atoms>  (722) 
nan

>  <Num_Not_Resolved_Atoms>  (722) 
nan

$$$$
CHEMBL4747427
     RDKit          3D

  0  0  0  0  0  0  0  0  0  0999 V3000
M  V30 BEGIN CTAB
M  V30 COUNTS 37 39 0 0 0
M  V30 BEGIN ATOM
M  V30 1 C -1.704606 -1.730429 3.793625 0
M  V30 2 C -1.118002 -2.985150 3.135285 0
M  V30 3 O -0.403748 -2.638196 1.962351 0
M  V30 4 C 0.228908 -3.591086 1.173041 0
M  V30 5 O 0.135912 -4.788915 1.554089 0
M  V30 6 C 0.959938 -3.197216 -0.035130 0
M  V30 7 C 1.565907 -4.207290 -0.771922 0
M  V30 8 N 2.228494 -3.776170 -1.881690 0
M  V30 9 C 2.281736 -2.467749 -2.223150 0
M  V30 10 N 2.989525 -2.073073 -3.395606 0
M  V30 11 N 1.695233 -1.489102 -1.510225 0
M  V30 12 N 1.603309 -0.177149 -1.627917 0
M  V30 13 C 0.876228 0.316545 -0.601586 0
M  V30 14 C 0.419394 1.652062 -0.159764 0
M  V30 15 C -1.079183 1.725544 0.063747 0
M  V30 16 C -1.196849 3.065145 0.785885 0
M  V30 17 C -0.007602 3.083179 1.692942 0
M  V30 18 C 0.904341 1.950771 1.264849 0
M  V30 19 N 0.523439 -0.738580 0.152790 0
M  V30 20 C 1.025722 -1.858214 -0.402038 0
M  V30 21 H -0.918075 -0.997731 4.064904 0
M  V30 22 H -2.495049 -1.304339 3.146294 0
M  V30 23 H -2.187992 -2.057034 4.737136 0
M  V30 24 H -0.483128 -3.462753 3.898888 0
M  V30 25 H -1.950161 -3.644039 2.888408 0
M  V30 26 H 1.529042 -5.245968 -0.509212 0
M  V30 27 H 2.810114 -1.980088 -4.431920 0
M  V30 28 H 3.981575 -1.786922 -3.194310 0
M  V30 29 H 0.728337 2.478985 -0.801172 0
M  V30 30 H -1.395109 0.937704 0.802635 0
M  V30 31 H -1.665642 1.698057 -0.870990 0
M  V30 32 H -2.161373 3.154896 1.324201 0
M  V30 33 H -1.067955 3.851817 0.005130 0
M  V30 34 H -0.309640 2.979318 2.751666 0
M  V30 35 H 0.580122 4.035128 1.538862 0
M  V30 36 H 1.975910 2.247926 1.235680 0
M  V30 37 H 0.698576 1.063690 1.887196 0
M  V30 END ATOM
M  V30 BEGIN BOND
M  V30 1 1 1 2
M  V30 2 1 2 3
M  V30 3 1 3 4
M  V30 4 2 4 5
M  V30 5 1 4 6
M  V30 6 2 6 7
M  V30 7 1 7 8
M  V30 8 2 8 9
M  V30 9 1 9 10
M  V30 10 1 9 11
M  V30 11 1 11 12
M  V30 12 2 12 13
M  V30 13 1 13 14
M  V30 14 1 14 15
M  V30 15 1 15 16
M  V30 16 1 16 17
M  V30 17 1 17 18
M  V30 18 1 13 19
M  V30 19 2 19 20
M  V30 20 1 20 6
M  V30 21 1 20 11
M  V30 22 1 18 14
M  V30 23 1 1 21
M  V30 24 1 1 22
M  V30 25 1 1 23
M  V30 26 1 2 24
M  V30 27 1 2 25
M  V30 28 1 7 26
M  V30 29 1 10 27
M  V30 30 1 10 28
M  V30 31 1 14 29
M  V30 32 1 15 30
M  V30 33 1 15 31
M  V30 34 1 16 32
M  V30 35 1 16 33
M  V30 36 1 17 34
M  V30 37 1 17 35
M  V30 38 1 18 36
M  V30 39 1 18 37
M  V30 END BOND
M  V30 END CTAB
M  END
>  <Dataset>  (723) 
ChEMBL_Kinases

>  <Ligand_Instance>  (723) 
nan

>  <PDB_ID>  (723) 
nan

>  <Standardized_SMILES>  (723) 
CCOC(=O)c1cnc(N)n2nc(C3CCCC3)nc12

>  <Name>  (723) 
nan

>  <Pocket>  (723) 
nan

>  <ATP_Site>  (723) 
nan

>  <Peripheral>  (723) 
nan

>  <Num_H_Atoms_ProtBoundConf>  (723) 
nan

>  <Num_Resolved_Atoms>  (723) 
nan

>  <Num_Not_Resolved_Atoms>  (723) 
nan

$$$$
CHEMBL4747444
     RDKit          3D

  0  0  0  0  0  0  0  0  0  0999 V3000
M  V30 BEGIN CTAB
M  V30 COUNTS 58 62 0 0 0
M  V30 BEGIN ATOM
M  V30 1 C 7.274593 0.144742 4.252004 0
M  V30 2 O 6.841337 1.466933 3.906240 0
M  V30 3 C 5.621158 1.603381 3.247243 0
M  V30 4 C 4.818587 0.533244 2.914764 0
M  V30 5 C 3.614839 0.750060 2.257292 0
M  V30 6 C 2.724743 -0.354516 1.880442 0
M  V30 7 C 1.974870 -0.145949 0.729924 0
M  V30 8 N 1.147581 -1.134899 0.351790 0
M  V30 9 C 0.983953 -2.301310 0.986692 0
M  V30 10 C 0.188585 -3.319060 0.672381 0
M  V30 11 N -0.720776 -3.412021 -0.465018 0
M  V30 12 C -1.541177 -4.580530 -0.704862 0
M  V30 13 C -2.923722 -4.266807 -0.177050 0
M  V30 14 C -3.186688 -2.802304 -0.435565 0
M  V30 15 C -2.490173 -2.305579 -1.689459 0 CFG=1
M  V30 16 C -2.855575 -0.875165 -1.907308 0
M  V30 17 N -4.281963 -0.712337 -2.070422 0
M  V30 18 C -4.674640 0.654009 -2.282830 0
M  V30 19 O -3.975195 1.701505 -2.346106 0
M  V30 20 C -6.117672 0.979664 -2.467942 0
M  V30 21 C -7.153355 0.155724 -1.799410 0
M  V30 22 C -6.895918 -0.060747 -3.272661 0
M  V30 23 C -0.969018 -2.422448 -1.507386 0
M  V30 24 S 0.342904 -4.561726 1.786029 0
M  V30 25 N 1.619908 -3.700377 2.855947 0
M  V30 26 C 1.723256 -2.512605 2.125214 0
M  V30 27 C 2.594684 -1.540754 2.574810 0
M  V30 28 C 3.271206 2.055350 1.961053 0
M  V30 29 C 4.074838 3.132964 2.293360 0
M  V30 30 C 5.275728 2.905211 2.950312 0
M  V30 31 N 6.043539 4.063153 3.256396 0
M  V30 32 H 6.695523 -0.256622 5.100491 0
M  V30 33 H 8.350588 0.165119 4.555560 0
M  V30 34 H 7.210530 -0.521102 3.367852 0
M  V30 35 H 5.128088 -0.462773 3.166660 0
M  V30 36 H 2.007458 0.763221 0.107385 0
M  V30 37 H -1.595742 -4.880433 -1.769839 0
M  V30 38 H -1.146751 -5.476110 -0.168596 0
M  V30 39 H -2.894590 -4.432663 0.933634 0
M  V30 40 H -3.699810 -4.915982 -0.629259 0
M  V30 41 H -2.853728 -2.228916 0.462852 0
M  V30 42 H -4.279359 -2.582455 -0.573421 0
M  V30 43 H -2.810517 -2.915067 -2.535992 0
M  V30 44 H -2.394568 -0.463909 -2.839480 0
M  V30 45 H -2.437592 -0.240603 -1.085262 0
M  V30 46 H -5.052054 -1.418694 -2.057432 0
M  V30 47 H -6.335883 2.056353 -2.624000 0
M  V30 48 H -6.919333 -0.657339 -1.090792 0
M  V30 49 H -8.118334 0.644428 -1.582185 0
M  V30 50 H -6.398264 -0.996046 -3.530476 0
M  V30 51 H -7.624782 0.324173 -4.019066 0
M  V30 52 H -0.557911 -2.786067 -2.468955 0
M  V30 53 H -0.632054 -1.418677 -1.206111 0
M  V30 54 H 3.221011 -1.568365 3.430329 0
M  V30 55 H 2.326479 2.276327 1.441132 0
M  V30 56 H 3.725339 4.141600 2.020209 0
M  V30 57 H 5.849096 4.476521 4.208752 0
M  V30 58 H 6.631329 4.199427 2.397405 0
M  V30 END ATOM
M  V30 BEGIN BOND
M  V30 1 1 1 2
M  V30 2 1 2 3
M  V30 3 2 3 4
M  V30 4 1 4 5
M  V30 5 1 5 6
M  V30 6 1 6 7
M  V30 7 2 7 8
M  V30 8 1 8 9
M  V30 9 2 9 10
M  V30 10 1 10 11
M  V30 11 1 11 12
M  V30 12 1 12 13
M  V30 13 1 13 14
M  V30 14 1 14 15
M  V30 15 1 15 16
M  V30 16 1 16 17
M  V30 17 1 17 18
M  V30 18 2 18 19
M  V30 19 1 18 20
M  V30 20 1 20 21
M  V30 21 1 21 22
M  V30 22 1 15 23
M  V30 23 1 10 24
M  V30 24 1 24 25
M  V30 25 2 25 26
M  V30 26 1 26 27
M  V30 27 2 5 28
M  V30 28 1 28 29
M  V30 29 2 29 30
M  V30 30 1 30 31
M  V30 31 1 30 3
M  V30 32 2 27 6
M  V30 33 1 26 9
M  V30 34 1 23 11
M  V30 35 1 22 20
M  V30 36 1 1 32
M  V30 37 1 1 33
M  V30 38 1 1 34
M  V30 39 1 4 35
M  V30 40 1 7 36
M  V30 41 1 12 37
M  V30 42 1 12 38
M  V30 43 1 13 39
M  V30 44 1 13 40
M  V30 45 1 14 41
M  V30 46 1 14 42
M  V30 47 1 15 43 CFG=3
M  V30 48 1 16 44
M  V30 49 1 16 45
M  V30 50 1 17 46
M  V30 51 1 20 47
M  V30 52 1 21 48
M  V30 53 1 21 49
M  V30 54 1 22 50
M  V30 55 1 22 51
M  V30 56 1 23 52
M  V30 57 1 23 53
M  V30 58 1 27 54
M  V30 59 1 28 55
M  V30 60 1 29 56
M  V30 61 1 31 57
M  V30 62 1 31 58
M  V30 END BOND
M  V30 END CTAB
M  END
>  <Dataset>  (724) 
ChEMBL_Kinases

>  <Ligand_Instance>  (724) 
nan

>  <PDB_ID>  (724) 
nan

>  <Standardized_SMILES>  (724) 
COc1cc(-c2cnc3c(N4CCC[C@@H](CNC(=O)C5CC5)C4)snc3c2)ccc1N

>  <Name>  (724) 
nan

>  <Pocket>  (724) 
nan

>  <ATP_Site>  (724) 
nan

>  <Peripheral>  (724) 
nan

>  <Num_H_Atoms_ProtBoundConf>  (724) 
nan

>  <Num_Resolved_Atoms>  (724) 
nan

>  <Num_Not_Resolved_Atoms>  (724) 
nan

$$$$
CHEMBL4452969
     RDKit          3D

  0  0  0  0  0  0  0  0  0  0999 V3000
M  V30 BEGIN CTAB
M  V30 COUNTS 50 54 0 0 0
M  V30 BEGIN ATOM
M  V30 1 C 5.052799 -3.302352 2.996099 0
M  V30 2 C 4.320321 -2.061256 2.638304 0
M  V30 3 C 4.498157 -1.426832 1.403957 0
M  V30 4 C 3.770936 -0.264162 1.149268 0
M  V30 5 C 2.933355 0.174912 2.126110 0
M  V30 6 N 2.182597 1.358783 1.895407 0
M  V30 7 C 2.083019 2.266767 0.813724 0
M  V30 8 N 3.051187 3.188772 0.851583 0
M  V30 9 C 3.209048 4.181260 -0.034468 0
M  V30 10 N 2.313867 4.236400 -1.031267 0
M  V30 11 C 1.337935 3.308007 -1.070178 0
M  V30 12 S -0.051326 3.071385 -2.260594 0
M  V30 13 C -0.698107 1.667690 -1.447033 0
M  V30 14 C 0.098557 1.412841 -0.352523 0
M  V30 15 C 1.130503 2.258587 -0.175944 0
M  V30 16 C -0.349382 0.240853 0.413481 0
M  V30 17 C -1.191237 -0.627780 -0.477608 0
M  V30 18 N -2.339779 0.025673 -1.014777 0
M  V30 19 S -3.365240 -1.184308 -1.711537 0
M  V30 20 O -4.576283 -0.470896 -2.240085 0
M  V30 21 O -2.644952 -1.815267 -2.843881 0
M  V30 22 C -3.894265 -2.312720 -0.505544 0
M  V30 23 C -3.581015 -3.662979 -0.629746 0
M  V30 24 C -4.042304 -4.488853 0.377711 0
M  V30 25 C -4.767772 -3.992245 1.435726 0
M  V30 26 F -5.206287 -4.839763 2.411570 0
M  V30 27 C -5.061292 -2.653736 1.530357 0
M  V30 28 C -4.623773 -1.787487 0.550892 0
M  V30 29 F -4.903704 -0.461160 0.626256 0
M  V30 30 C -1.929917 0.999332 -2.008926 0
M  V30 31 C 2.715262 -0.404066 3.359141 0
M  V30 32 Br 1.523120 0.279036 4.668925 0
M  V30 33 C 3.451121 -1.571828 3.604484 0
M  V30 34 H 5.397601 -3.298386 4.046144 0
M  V30 35 H 5.944041 -3.433488 2.352534 0
M  V30 36 H 4.421207 -4.212918 2.884665 0
M  V30 37 H 5.184254 -1.843761 0.685845 0
M  V30 38 H 3.875076 0.252430 0.220211 0
M  V30 39 H 1.504902 1.802177 2.561866 0
M  V30 40 H 3.967834 4.942356 -0.045427 0
M  V30 41 H -0.790002 0.434149 1.386944 0
M  V30 42 H 0.579236 -0.376757 0.608917 0
M  V30 43 H -0.604692 -1.026955 -1.331480 0
M  V30 44 H -1.487567 -1.510036 0.112740 0
M  V30 45 H -3.016910 -4.066141 -1.446961 0
M  V30 46 H -3.793556 -5.554241 0.277607 0
M  V30 47 H -5.637773 -2.217578 2.358873 0
M  V30 48 H -1.678615 0.453954 -2.943706 0
M  V30 49 H -2.732029 1.750290 -2.172083 0
M  V30 50 H 3.323367 -2.079140 4.563693 0
M  V30 END ATOM
M  V30 BEGIN BOND
M  V30 1 1 1 2
M  V30 2 2 2 3
M  V30 3 1 3 4
M  V30 4 2 4 5
M  V30 5 1 5 6
M  V30 6 1 6 7
M  V30 7 2 7 8
M  V30 8 1 8 9
M  V30 9 2 9 10
M  V30 10 1 10 11
M  V30 11 1 11 12
M  V30 12 1 12 13
M  V30 13 2 13 14
M  V30 14 1 14 15
M  V30 15 1 14 16
M  V30 16 1 16 17
M  V30 17 1 17 18
M  V30 18 1 18 19
M  V30 19 2 19 20
M  V30 20 2 19 21
M  V30 21 1 19 22
M  V30 22 2 22 23
M  V30 23 1 23 24
M  V30 24 2 24 25
M  V30 25 1 25 26
M  V30 26 1 25 27
M  V30 27 2 27 28
M  V30 28 1 28 29
M  V30 29 1 18 30
M  V30 30 1 5 31
M  V30 31 1 31 32
M  V30 32 2 31 33
M  V30 33 1 33 2
M  V30 34 1 15 7
M  V30 35 1 28 22
M  V30 36 2 15 11
M  V30 37 1 30 13
M  V30 38 1 1 34
M  V30 39 1 1 35
M  V30 40 1 1 36
M  V30 41 1 3 37
M  V30 42 1 4 38
M  V30 43 1 6 39
M  V30 44 1 9 40
M  V30 45 1 16 41
M  V30 46 1 16 42
M  V30 47 1 17 43
M  V30 48 1 17 44
M  V30 49 1 23 45
M  V30 50 1 24 46
M  V30 51 1 27 47
M  V30 52 1 30 48
M  V30 53 1 30 49
M  V30 54 1 33 50
M  V30 END BOND
M  V30 END CTAB
M  END
>  <Dataset>  (725) 
ChEMBL_Kinases

>  <Ligand_Instance>  (725) 
nan

>  <PDB_ID>  (725) 
nan

>  <Standardized_SMILES>  (725) 
Cc1ccc(Nc2ncnc3sc4c(c23)CCN(S(=O)(=O)c2ccc(F)cc2F)C4)c(Br)c1

>  <Name>  (725) 
nan

>  <Pocket>  (725) 
nan

>  <ATP_Site>  (725) 
nan

>  <Peripheral>  (725) 
nan

>  <Num_H_Atoms_ProtBoundConf>  (725) 
nan

>  <Num_Resolved_Atoms>  (725) 
nan

>  <Num_Not_Resolved_Atoms>  (725) 
nan

$$$$
CHEMBL4747475
     RDKit          3D

  0  0  0  0  0  0  0  0  0  0999 V3000
M  V30 BEGIN CTAB
M  V30 COUNTS 57 59 0 0 0
M  V30 BEGIN ATOM
M  V30 1 O 5.349174 -3.344103 5.008426 0
M  V30 2 C 4.172155 -2.965573 4.700503 0
M  V30 3 O 3.305945 -4.036223 4.715979 0
M  V30 4 C 3.546231 -1.662514 4.339074 0
M  V30 5 C 4.564925 -0.544616 4.344897 0
M  V30 6 C 5.676842 -0.806103 3.352763 0
M  V30 7 N 5.169608 -0.921533 2.002084 0
M  V30 8 C 4.468331 0.114297 1.334457 0
M  V30 9 O 4.241072 1.218724 1.888883 0
M  V30 10 C 3.993432 -0.093657 -0.029551 0
M  V30 11 C 3.309553 0.894422 -0.706964 0
M  V30 12 C 2.869492 0.660706 -2.012873 0
M  V30 13 O 2.195081 1.782390 -2.533906 0
M  V30 14 C 0.812344 1.823086 -2.311673 0
M  V30 15 C 0.145781 2.384129 -1.238865 0
M  V30 16 C -1.232657 2.308160 -1.225089 0
M  V30 17 C -1.927653 1.693350 -2.246309 0
M  V30 18 N -3.368588 1.641479 -2.182504 0
M  V30 19 C -3.820498 0.473658 -1.513930 0
M  V30 20 O -2.927891 -0.303618 -1.097472 0
M  V30 21 N -5.180331 0.141152 -1.294153 0
M  V30 22 C -5.732256 -0.987973 -0.644658 0
M  V30 23 C -7.102948 -1.078159 -0.561566 0
M  V30 24 C -7.730473 -2.139154 0.051611 0
M  V30 25 C -7.014899 -3.165019 0.613389 0
M  V30 26 Cl -7.815499 -4.518817 1.395635 0
M  V30 27 C -5.639956 -3.098665 0.543641 0
M  V30 28 C -4.832194 -4.195548 1.143542 0
M  V30 29 F -5.068158 -4.329113 2.507393 0
M  V30 30 F -5.158913 -5.421639 0.568822 0
M  V30 31 F -3.498219 -3.949675 0.930600 0
M  V30 32 C -5.053329 -2.027125 -0.074506 0
M  V30 33 C -1.274910 1.117010 -3.344883 0
M  V30 34 C 0.103633 1.210249 -3.327892 0
M  V30 35 C 3.120904 -0.555029 -2.616564 0
M  V30 36 C 3.804881 -1.505608 -1.901269 0
M  V30 37 N 4.223196 -1.277393 -0.653996 0
M  V30 38 H 3.431369 -4.880440 5.256729 0
M  V30 39 H 2.722142 -1.402770 5.028887 0
M  V30 40 H 3.126241 -1.736495 3.296615 0
M  V30 41 H 4.943572 -0.423043 5.371716 0
M  V30 42 H 4.031921 0.369668 4.050860 0
M  V30 43 H 6.255678 -1.717438 3.599891 0
M  V30 44 H 6.347189 0.082605 3.413481 0
M  V30 45 H 5.315881 -1.821169 1.455300 0
M  V30 46 H 3.158603 1.816769 -0.152090 0
M  V30 47 H 0.789392 2.834911 -0.504352 0
M  V30 48 H -1.728693 2.745590 -0.391306 0
M  V30 49 H -4.091663 2.315354 -2.544680 0
M  V30 50 H -5.807544 0.871933 -1.691111 0
M  V30 51 H -7.723234 -0.285264 -0.994054 0
M  V30 52 H -8.801038 -2.139935 0.077282 0
M  V30 53 H -3.992003 -2.037334 -0.093692 0
M  V30 54 H -1.849992 0.648358 -4.118314 0
M  V30 55 H 0.557237 0.740839 -4.214339 0
M  V30 56 H 2.725661 -0.598332 -3.622738 0
M  V30 57 H 3.958087 -2.433513 -2.456071 0
M  V30 END ATOM
M  V30 BEGIN BOND
M  V30 1 2 1 2
M  V30 2 1 2 3
M  V30 3 1 2 4
M  V30 4 1 4 5
M  V30 5 1 5 6
M  V30 6 1 6 7
M  V30 7 1 7 8
M  V30 8 2 8 9
M  V30 9 1 8 10
M  V30 10 2 10 11
M  V30 11 1 11 12
M  V30 12 1 12 13
M  V30 13 1 13 14
M  V30 14 2 14 15
M  V30 15 1 15 16
M  V30 16 2 16 17
M  V30 17 1 17 18
M  V30 18 1 18 19
M  V30 19 2 19 20
M  V30 20 1 19 21
M  V30 21 1 21 22
M  V30 22 2 22 23
M  V30 23 1 23 24
M  V30 24 2 24 25
M  V30 25 1 25 26
M  V30 26 1 25 27
M  V30 27 1 27 28
M  V30 28 1 28 29
M  V30 29 1 28 30
M  V30 30 1 28 31
M  V30 31 2 27 32
M  V30 32 1 17 33
M  V30 33 2 33 34
M  V30 34 2 12 35
M  V30 35 1 35 36
M  V30 36 2 36 37
M  V30 37 1 37 10
M  V30 38 1 34 14
M  V30 39 1 32 22
M  V30 40 1 3 38
M  V30 41 1 4 39
M  V30 42 1 4 40
M  V30 43 1 5 41
M  V30 44 1 5 42
M  V30 45 1 6 43
M  V30 46 1 6 44
M  V30 47 1 7 45
M  V30 48 1 11 46
M  V30 49 1 15 47
M  V30 50 1 16 48
M  V30 51 1 18 49
M  V30 52 1 21 50
M  V30 53 1 23 51
M  V30 54 1 24 52
M  V30 55 1 32 53
M  V30 56 1 33 54
M  V30 57 1 34 55
M  V30 58 1 35 56
M  V30 59 1 36 57
M  V30 END BOND
M  V30 END CTAB
M  END
>  <Dataset>  (726) 
ChEMBL_Kinases

>  <Ligand_Instance>  (726) 
nan

>  <PDB_ID>  (726) 
nan

>  <Standardized_SMILES>  (726) 
O=C(O)CCCNC(=O)c1cc(Oc2ccc(NC(=O)Nc3ccc(Cl)c(C(F)(F)F)c3)cc2)ccn1

>  <Name>  (726) 
nan

>  <Pocket>  (726) 
nan

>  <ATP_Site>  (726) 
nan

>  <Peripheral>  (726) 
nan

>  <Num_H_Atoms_ProtBoundConf>  (726) 
nan

>  <Num_Resolved_Atoms>  (726) 
nan

>  <Num_Not_Resolved_Atoms>  (726) 
nan

$$$$
CHEMBL4747491
     RDKit          3D

  0  0  0  0  0  0  0  0  0  0999 V3000
M  V30 BEGIN CTAB
M  V30 COUNTS 85 90 0 0 0
M  V30 BEGIN ATOM
M  V30 1 C 6.478618 0.695585 3.214990 0
M  V30 2 C 6.090230 0.954632 1.768930 0
M  V30 3 C 4.782587 0.307760 1.567380 0 CFG=2
M  V30 4 C 4.891566 -1.150928 1.813172 0
M  V30 5 N 5.709399 -1.798751 2.682795 0
M  V30 6 N 5.467236 -3.082840 2.650973 0
M  V30 7 C 4.492863 -3.342916 1.770399 0
M  V30 8 C 3.990820 -4.707377 1.493677 0
M  V30 9 N 4.163674 -2.146205 1.275898 0
M  V30 10 C 3.248027 -1.770834 0.266418 0
M  V30 11 C 2.446154 -2.726194 -0.295243 0
M  V30 12 N 1.556230 -2.374318 -1.238075 0
M  V30 13 C 1.434798 -1.082108 -1.648260 0
M  V30 14 N 0.524515 -0.565996 -2.605190 0
M  V30 15 C -0.863328 -0.862833 -2.440657 0
M  V30 16 C -1.375733 -1.637301 -1.423115 0
M  V30 17 C -2.701147 -1.950322 -1.210481 0
M  V30 18 C -3.606453 -1.436858 -2.105880 0
M  V30 19 C -5.038569 -1.669139 -2.006261 0
M  V30 20 O -5.880830 -1.235785 -2.843479 0
M  V30 21 N -5.592854 -2.416063 -0.933951 0
M  V30 22 C -6.951782 -2.778679 -0.613283 0
M  V30 23 C -7.076080 -4.294364 -0.713533 0
M  V30 24 C -6.175667 -4.954345 0.297806 0
M  V30 25 N -6.459430 -4.522569 1.628115 0
M  V30 26 C -5.268030 -4.243142 2.384007 0
M  V30 27 C -7.426001 -3.487723 1.769228 0
M  V30 28 C -7.343753 -2.367104 0.774056 0
M  V30 29 C -3.185882 -0.643928 -3.167115 0
M  V30 30 C -1.825948 -0.360869 -3.330364 0
M  V30 31 O -1.365758 0.422352 -4.369340 0
M  V30 32 C -2.329719 0.940495 -5.280885 0
M  V30 33 N 2.240580 -0.142007 -1.080828 0
M  V30 34 C 3.143193 -0.454179 -0.135070 0
M  V30 35 N 3.970473 0.546616 0.462020 0
M  V30 36 C 4.047253 1.851398 -0.030271 0
M  V30 37 C 3.543309 3.028955 0.663657 0
M  V30 38 C 2.054370 3.015003 0.950619 0
M  V30 39 C 1.403915 4.327926 0.581839 0
M  V30 40 C 2.168732 5.534995 1.039657 0
M  V30 41 C 3.551248 5.506157 0.456080 0
M  V30 42 C 3.723027 4.215548 -0.305679 0
M  V30 43 H 7.396759 0.107324 3.336492 0
M  V30 44 H 5.650909 0.263759 3.818280 0
M  V30 45 H 6.683493 1.682947 3.727857 0
M  V30 46 H 6.134895 2.027419 1.637123 0
M  V30 47 H 6.881192 0.405268 1.176058 0
M  V30 48 H 4.175981 0.658161 2.480487 0
M  V30 49 H 2.963981 -4.895663 1.816573 0
M  V30 50 H 4.596442 -5.465117 2.091085 0
M  V30 51 H 4.206428 -5.048940 0.437175 0
M  V30 52 H 2.394210 -3.770767 -0.104878 0
M  V30 53 H 0.794576 0.011332 -3.414383 0
M  V30 54 H -0.701828 -2.061702 -0.692199 0
M  V30 55 H -3.021723 -2.566236 -0.387740 0
M  V30 56 H -5.016271 -2.833175 -0.172704 0
M  V30 57 H -7.666007 -2.376728 -1.387351 0
M  V30 58 H -8.119935 -4.638177 -0.546234 0
M  V30 59 H -6.776956 -4.561550 -1.730958 0
M  V30 60 H -5.097657 -4.856949 0.027841 0
M  V30 61 H -6.392429 -6.042652 0.243668 0
M  V30 62 H -5.405181 -4.552696 3.452890 0
M  V30 63 H -4.995163 -3.175234 2.405157 0
M  V30 64 H -4.429304 -4.858699 1.953560 0
M  V30 65 H -7.269203 -3.040312 2.784414 0
M  V30 66 H -8.470168 -3.903899 1.806271 0
M  V30 67 H -8.381146 -1.917399 0.710171 0
M  V30 68 H -6.688664 -1.536174 1.116215 0
M  V30 69 H -3.901039 -0.235221 -3.879160 0
M  V30 70 H -1.846413 1.493010 -6.095404 0
M  V30 71 H -2.980756 1.620621 -4.676277 0
M  V30 72 H -2.887697 0.073219 -5.660377 0
M  V30 73 H 5.127731 2.078377 -0.304786 0
M  V30 74 H 3.564481 1.858349 -1.057619 0
M  V30 75 H 4.128540 3.366604 1.544108 0
M  V30 76 H 1.601614 2.229411 0.345417 0
M  V30 77 H 1.886623 2.798714 2.027058 0
M  V30 78 H 0.450695 4.341645 1.192124 0
M  V30 79 H 1.152482 4.346503 -0.479710 0
M  V30 80 H 1.653056 6.434938 0.591053 0
M  V30 81 H 2.166639 5.655133 2.138898 0
M  V30 82 H 4.275805 5.548415 1.315673 0
M  V30 83 H 3.748543 6.382762 -0.218576 0
M  V30 84 H 4.770317 4.218614 -0.687101 0
M  V30 85 H 3.042698 4.139673 -1.152202 0
M  V30 END ATOM
M  V30 BEGIN BOND
M  V30 1 1 1 2
M  V30 2 1 2 3
M  V30 3 1 3 4
M  V30 4 2 4 5
M  V30 5 1 5 6
M  V30 6 2 6 7
M  V30 7 1 7 8
M  V30 8 1 7 9
M  V30 9 1 9 10
M  V30 10 2 10 11
M  V30 11 1 11 12
M  V30 12 2 12 13
M  V30 13 1 13 14
M  V30 14 1 14 15
M  V30 15 2 15 16
M  V30 16 1 16 17
M  V30 17 2 17 18
M  V30 18 1 18 19
M  V30 19 2 19 20
M  V30 20 1 19 21
M  V30 21 1 21 22
M  V30 22 1 22 23
M  V30 23 1 23 24
M  V30 24 1 24 25
M  V30 25 1 25 26
M  V30 26 1 25 27
M  V30 27 1 27 28
M  V30 28 1 18 29
M  V30 29 2 29 30
M  V30 30 1 30 31
M  V30 31 1 31 32
M  V30 32 1 13 33
M  V30 33 2 33 34
M  V30 34 1 34 35
M  V30 35 1 35 36
M  V30 36 1 36 37
M  V30 37 1 37 38
M  V30 38 1 38 39
M  V30 39 1 39 40
M  V30 40 1 40 41
M  V30 41 1 41 42
M  V30 42 1 35 3
M  V30 43 1 42 37
M  V30 44 1 9 4
M  V30 45 1 34 10
M  V30 46 1 30 15
M  V30 47 1 28 22
M  V30 48 1 1 43
M  V30 49 1 1 44
M  V30 50 1 1 45
M  V30 51 1 2 46
M  V30 52 1 2 47
M  V30 53 1 3 48 CFG=1
M  V30 54 1 8 49
M  V30 55 1 8 50
M  V30 56 1 8 51
M  V30 57 1 11 52
M  V30 58 1 14 53
M  V30 59 1 16 54
M  V30 60 1 17 55
M  V30 61 1 21 56
M  V30 62 1 22 57
M  V30 63 1 23 58
M  V30 64 1 23 59
M  V30 65 1 24 60
M  V30 66 1 24 61
M  V30 67 1 26 62
M  V30 68 1 26 63
M  V30 69 1 26 64
M  V30 70 1 27 65
M  V30 71 1 27 66
M  V30 72 1 28 67
M  V30 73 1 28 68
M  V30 74 1 29 69
M  V30 75 1 32 70
M  V30 76 1 32 71
M  V30 77 1 32 72
M  V30 78 1 36 73
M  V30 79 1 36 74
M  V30 80 1 37 75
M  V30 81 1 38 76
M  V30 82 1 38 77
M  V30 83 1 39 78
M  V30 84 1 39 79
M  V30 85 1 40 80
M  V30 86 1 40 81
M  V30 87 1 41 82
M  V30 88 1 41 83
M  V30 89 1 42 84
M  V30 90 1 42 85
M  V30 END BOND
M  V30 END CTAB
M  END
>  <Dataset>  (727) 
ChEMBL_Kinases

>  <Ligand_Instance>  (727) 
nan

>  <PDB_ID>  (727) 
nan

>  <Standardized_SMILES>  (727) 
CC[C@@H]1c2nnc(C)n2-c2cnc(Nc3ccc(C(=O)NC4CCN(C)CC4)cc3OC)nc2N1CC1CCCCC1

>  <Name>  (727) 
nan

>  <Pocket>  (727) 
nan

>  <ATP_Site>  (727) 
nan

>  <Peripheral>  (727) 
nan

>  <Num_H_Atoms_ProtBoundConf>  (727) 
nan

>  <Num_Resolved_Atoms>  (727) 
nan

>  <Num_Not_Resolved_Atoms>  (727) 
nan

$$$$
CHEMBL4747343
     RDKit          3D

  0  0  0  0  0  0  0  0  0  0999 V3000
M  V30 BEGIN CTAB
M  V30 COUNTS 46 49 0 0 0
M  V30 BEGIN ATOM
M  V30 1 O 1.371644 0.920030 4.475375 0
M  V30 2 C 1.284564 0.416370 3.305880 0
M  V30 3 N 1.593309 1.105748 2.152697 0
M  V30 4 C 1.463637 0.485688 1.036911 0
M  V30 5 N 1.744406 1.061211 -0.256640 0
M  V30 6 C 1.415143 2.409339 -0.529554 0 CFG=1
M  V30 7 C -0.052406 2.739790 -0.399845 0
M  V30 8 C -0.036830 4.229826 -0.685181 0
M  V30 9 C 1.292407 4.709050 -0.149065 0
M  V30 10 C 2.057065 3.457571 0.305982 0 CFG=2
M  V30 11 C 3.501172 3.715457 -0.094437 0
M  V30 12 O 3.997635 4.712156 0.753006 0
M  V30 13 S 0.878563 -1.212070 1.324576 0
M  V30 14 C 0.846287 -0.939771 3.114438 0
M  V30 15 C 0.473195 -1.904843 3.911997 0
M  V30 16 C 0.055787 -3.244104 3.478171 0
M  V30 17 C 0.390179 -4.342978 4.198649 0
M  V30 18 S -0.424987 -5.723033 3.150524 0
M  V30 19 C -1.034919 -4.433080 1.961076 0
M  V30 20 C -1.862056 -4.812221 0.723752 0
M  V30 21 C -2.261410 -3.757089 -0.087610 0
M  V30 22 C -2.999360 -4.126518 -1.183683 0
M  V30 23 C -3.335904 -5.439152 -1.484769 0
M  V30 24 C -2.900608 -6.428452 -0.628557 0
M  V30 25 F -3.225060 -7.738243 -0.911608 0
M  V30 26 C -2.144382 -6.142809 0.510937 0
M  V30 27 O -1.706091 -7.132111 1.371620 0
M  V30 28 N -0.655859 -3.445153 2.388055 0
M  V30 29 H 2.203107 0.417332 -0.971000 0
M  V30 30 H 1.676313 2.641261 -1.595448 0
M  V30 31 H -0.434775 2.584852 0.607997 0
M  V30 32 H -0.580676 2.188484 -1.203743 0
M  V30 33 H -0.105754 4.309245 -1.799317 0
M  V30 34 H -0.894852 4.771002 -0.270742 0
M  V30 35 H 1.815456 5.212884 -0.998836 0
M  V30 36 H 1.200484 5.431223 0.686642 0
M  V30 37 H 1.913507 3.344234 1.389697 0
M  V30 38 H 4.125244 2.803529 -0.090775 0
M  V30 39 H 3.472597 4.171756 -1.104312 0
M  V30 40 H 3.811050 5.623123 0.425323 0
M  V30 41 H 0.491015 -1.641496 4.981777 0
M  V30 42 H 0.981333 -4.392852 5.141473 0
M  V30 43 H -1.974803 -2.771690 0.191773 0
M  V30 44 H -3.316008 -3.294440 -1.825800 0
M  V30 45 H -3.922030 -5.619545 -2.375466 0
M  V30 46 H -1.298033 -7.965978 0.945959 0
M  V30 END ATOM
M  V30 BEGIN BOND
M  V30 1 2 1 2
M  V30 2 1 2 3
M  V30 3 2 3 4
M  V30 4 1 4 5
M  V30 5 1 5 6
M  V30 6 1 6 7
M  V30 7 1 7 8
M  V30 8 1 8 9
M  V30 9 1 9 10
M  V30 10 1 10 11
M  V30 11 1 11 12
M  V30 12 1 4 13
M  V30 13 1 13 14
M  V30 14 2 14 15
M  V30 15 1 15 16
M  V30 16 2 16 17
M  V30 17 1 17 18
M  V30 18 1 18 19
M  V30 19 1 19 20
M  V30 20 2 20 21
M  V30 21 1 21 22
M  V30 22 2 22 23
M  V30 23 1 23 24
M  V30 24 1 24 25
M  V30 25 2 24 26
M  V30 26 1 26 27
M  V30 27 2 19 28
M  V30 28 1 14 2
M  V30 29 1 28 16
M  V30 30 1 10 6
M  V30 31 1 26 20
M  V30 32 1 5 29
M  V30 33 1 6 30 CFG=3
M  V30 34 1 7 31
M  V30 35 1 7 32
M  V30 36 1 8 33
M  V30 37 1 8 34
M  V30 38 1 9 35
M  V30 39 1 9 36
M  V30 40 1 10 37 CFG=1
M  V30 41 1 11 38
M  V30 42 1 11 39
M  V30 43 1 12 40
M  V30 44 1 15 41
M  V30 45 1 17 42
M  V30 46 1 21 43
M  V30 47 1 22 44
M  V30 48 1 23 45
M  V30 49 1 27 46
M  V30 END BOND
M  V30 END CTAB
M  END
>  <Dataset>  (728) 
ChEMBL_Kinases

>  <Ligand_Instance>  (728) 
nan

>  <PDB_ID>  (728) 
nan

>  <Standardized_SMILES>  (728) 
O=C1N=C(N[C@H]2CCC[C@@H]2CO)S/C1=C\c1csc(-c2cccc(F)c2O)n1

>  <Name>  (728) 
nan

>  <Pocket>  (728) 
nan

>  <ATP_Site>  (728) 
nan

>  <Peripheral>  (728) 
nan

>  <Num_H_Atoms_ProtBoundConf>  (728) 
nan

>  <Num_Resolved_Atoms>  (728) 
nan

>  <Num_Not_Resolved_Atoms>  (728) 
nan

$$$$
CHEMBL4748561
     RDKit          3D

  0  0  0  0  0  0  0  0  0  0999 V3000
M  V30 BEGIN CTAB
M  V30 COUNTS 30 32 0 0 0
M  V30 BEGIN ATOM
M  V30 1 O 0.466315 -2.698177 4.120590 0
M  V30 2 C 1.212937 -3.109501 3.185451 0
M  V30 3 O 0.266955 -3.942619 2.554261 0
M  V30 4 C 2.639231 -2.801272 2.867789 0
M  V30 5 S 3.209680 -3.636267 1.393848 0
M  V30 6 C 2.499414 -3.088562 -0.112451 0
M  V30 7 N 2.824877 -3.669154 -1.278988 0
M  V30 8 C 2.226134 -3.155264 -2.372926 0
M  V30 9 N 1.364013 -2.151526 -2.407115 0
M  V30 10 C 0.977828 -1.507858 -1.291472 0
M  V30 11 C 0.123048 -0.463576 -1.094575 0
M  V30 12 C -0.111773 0.028128 0.117725 0
M  V30 13 C -0.939697 1.095452 0.624923 0
M  V30 14 C -0.946745 1.341458 1.979933 0
M  V30 15 C -1.750210 2.372714 2.440777 0
M  V30 16 C -2.504225 3.105685 1.533841 0
M  V30 17 F -3.291147 4.119257 2.005837 0
M  V30 18 C -2.477755 2.836746 0.179702 0
M  V30 19 F -3.215660 3.552231 -0.721461 0
M  V30 20 C -1.677393 1.806354 -0.296583 0
M  V30 21 S 0.899115 -0.978684 1.176789 0
M  V30 22 C 1.579807 -2.017654 -0.150442 0
M  V30 23 H -0.504469 -3.568664 2.023494 0
M  V30 24 H 2.786862 -1.695763 2.825293 0
M  V30 25 H 3.267783 -3.147273 3.710938 0
M  V30 26 H 2.466792 -3.604265 -3.350471 0
M  V30 27 H -0.405581 0.015116 -1.917721 0
M  V30 28 H -0.360275 0.772681 2.693904 0
M  V30 29 H -1.793891 2.609538 3.496342 0
M  V30 30 H -1.629095 1.563577 -1.354327 0
M  V30 END ATOM
M  V30 BEGIN BOND
M  V30 1 2 1 2
M  V30 2 1 2 3
M  V30 3 1 2 4
M  V30 4 1 4 5
M  V30 5 1 5 6
M  V30 6 2 6 7
M  V30 7 1 7 8
M  V30 8 2 8 9
M  V30 9 1 9 10
M  V30 10 1 10 11
M  V30 11 2 11 12
M  V30 12 1 12 13
M  V30 13 2 13 14
M  V30 14 1 14 15
M  V30 15 2 15 16
M  V30 16 1 16 17
M  V30 17 1 16 18
M  V30 18 1 18 19
M  V30 19 2 18 20
M  V30 20 1 12 21
M  V30 21 1 21 22
M  V30 22 1 22 6
M  V30 23 2 22 10
M  V30 24 1 20 13
M  V30 25 1 3 23
M  V30 26 1 4 24
M  V30 27 1 4 25
M  V30 28 1 8 26
M  V30 29 1 11 27
M  V30 30 1 14 28
M  V30 31 1 15 29
M  V30 32 1 20 30
M  V30 END BOND
M  V30 END CTAB
M  END
>  <Dataset>  (729) 
ChEMBL_Kinases

>  <Ligand_Instance>  (729) 
nan

>  <PDB_ID>  (729) 
nan

>  <Standardized_SMILES>  (729) 
O=C(O)CSc1ncnc2cc(-c3ccc(F)c(F)c3)sc12

>  <Name>  (729) 
nan

>  <Pocket>  (729) 
nan

>  <ATP_Site>  (729) 
nan

>  <Peripheral>  (729) 
nan

>  <Num_H_Atoms_ProtBoundConf>  (729) 
nan

>  <Num_Resolved_Atoms>  (729) 
nan

>  <Num_Not_Resolved_Atoms>  (729) 
nan

$$$$
CHEMBL4748570
     RDKit          3D

  0  0  0  0  0  0  0  0  0  0999 V3000
M  V30 BEGIN CTAB
M  V30 COUNTS 35 37 0 0 0
M  V30 BEGIN ATOM
M  V30 1 C 0.185350 -3.222782 3.681146 0
M  V30 2 C -0.587128 -3.823628 2.542028 0
M  V30 3 C 0.104738 -3.739074 1.221952 0
M  V30 4 N 0.407134 -2.428846 0.755894 0
M  V30 5 C 1.579137 -1.841870 1.063922 0
M  V30 6 O 2.464280 -2.406533 1.770686 0
M  V30 7 C 1.862807 -0.570765 0.607334 0
M  V30 8 C 3.079303 0.020466 0.935705 0
M  V30 9 C 3.331043 1.292860 0.462681 0
M  V30 10 C 2.456965 2.022075 -0.316087 0
M  V30 11 C 1.251188 1.417321 -0.632734 0
M  V30 12 C 0.984551 0.152354 -0.170638 0
M  V30 13 N -0.168124 -0.457208 -0.458465 0
M  V30 14 C -1.228326 -0.060947 -1.173382 0
M  V30 15 S -1.580321 1.444222 -2.057172 0
M  V30 16 C -2.388357 2.654188 -1.002173 0
M  V30 17 C -2.866180 4.023067 -1.272148 0
M  V30 18 O -2.607790 2.335669 0.169531 0
M  V30 19 N -2.131638 -1.051176 -1.157805 0
M  V30 20 N -1.659710 -2.068054 -0.444155 0
M  V30 21 C -0.426232 -1.695168 -0.004706 0
M  V30 22 H -0.374331 -3.428835 4.618791 0
M  V30 23 H 0.399755 -2.143769 3.567318 0
M  V30 24 H 1.147154 -3.766480 3.763544 0
M  V30 25 H -0.659453 -4.919364 2.773569 0
M  V30 26 H -1.641993 -3.469586 2.508599 0
M  V30 27 H -0.563598 -4.233542 0.481847 0
M  V30 28 H 1.020596 -4.362709 1.276305 0
M  V30 29 H 3.801028 -0.516256 1.547984 0
M  V30 30 H 4.287352 1.716569 0.740064 0
M  V30 31 H 2.776530 3.011978 -0.622429 0
M  V30 32 H 0.600587 2.012969 -1.237293 0
M  V30 33 H -3.965525 4.045128 -1.167011 0
M  V30 34 H -2.497528 4.757237 -0.499244 0
M  V30 35 H -2.499104 4.429036 -2.244166 0
M  V30 END ATOM
M  V30 BEGIN BOND
M  V30 1 1 1 2
M  V30 2 1 2 3
M  V30 3 1 3 4
M  V30 4 1 4 5
M  V30 5 2 5 6
M  V30 6 1 5 7
M  V30 7 2 7 8
M  V30 8 1 8 9
M  V30 9 2 9 10
M  V30 10 1 10 11
M  V30 11 2 11 12
M  V30 12 1 12 13
M  V30 13 1 13 14
M  V30 14 1 14 15
M  V30 15 1 15 16
M  V30 16 1 16 17
M  V30 17 2 16 18
M  V30 18 2 14 19
M  V30 19 1 19 20
M  V30 20 2 20 21
M  V30 21 1 21 4
M  V30 22 1 12 7
M  V30 23 1 21 13
M  V30 24 1 1 22
M  V30 25 1 1 23
M  V30 26 1 1 24
M  V30 27 1 2 25
M  V30 28 1 2 26
M  V30 29 1 3 27
M  V30 30 1 3 28
M  V30 31 1 8 29
M  V30 32 1 9 30
M  V30 33 1 10 31
M  V30 34 1 11 32
M  V30 35 1 17 33
M  V30 36 1 17 34
M  V30 37 1 17 35
M  V30 END BOND
M  V30 END CTAB
M  END
>  <Dataset>  (730) 
ChEMBL_Kinases

>  <Ligand_Instance>  (730) 
nan

>  <PDB_ID>  (730) 
nan

>  <Standardized_SMILES>  (730) 
CCCn1c(=O)c2ccccc2n2c(SC(C)=O)nnc12

>  <Name>  (730) 
nan

>  <Pocket>  (730) 
nan

>  <ATP_Site>  (730) 
nan

>  <Peripheral>  (730) 
nan

>  <Num_H_Atoms_ProtBoundConf>  (730) 
nan

>  <Num_Resolved_Atoms>  (730) 
nan

>  <Num_Not_Resolved_Atoms>  (730) 
nan

$$$$
CHEMBL4748596
     RDKit          3D

  0  0  0  0  0  0  0  0  0  0999 V3000
M  V30 BEGIN CTAB
M  V30 COUNTS 65 69 0 0 0
M  V30 BEGIN ATOM
M  V30 1 C 1.645329 -1.985644 3.356528 0
M  V30 2 N 2.129504 -0.645682 3.334292 0
M  V30 3 C 3.424662 -0.461533 2.765991 0
M  V30 4 C 3.463273 0.671679 1.764972 0
M  V30 5 N 2.408128 0.553614 0.781813 0
M  V30 6 C 2.676308 -0.516029 -0.169031 0
M  V30 7 C 3.817734 -0.243584 -1.050605 0
M  V30 8 C 3.853845 0.841523 -2.026756 0
M  V30 9 O 3.530889 2.134323 -1.692620 0
M  V30 10 C 2.237147 2.557701 -1.489222 0
M  V30 11 C 2.319070 3.904525 -1.092883 0
M  V30 12 C 1.167036 4.652733 -0.811037 0
M  V30 13 C -0.098478 4.065756 -0.921417 0
M  V30 14 C -0.199763 2.743576 -1.310785 0
M  V30 15 C -1.460137 2.010224 -1.535240 0
M  V30 16 C -1.976694 1.394294 -0.303781 0
M  V30 17 O -2.023549 1.066332 0.906966 0
M  V30 18 N -3.213444 0.756987 -0.730018 0
M  V30 19 C -4.114644 -0.005596 0.111909 0
M  V30 20 N -4.023992 -1.169244 0.240974 0
M  V30 21 C -4.761104 -1.987478 0.964443 0
M  V30 22 C -4.619535 -3.455354 1.090551 0
M  V30 23 C -5.353655 -4.347164 1.846025 0
M  V30 24 N -4.918124 -5.603704 1.684395 0
M  V30 25 C -3.889212 -5.582103 0.823200 0
M  V30 26 N -3.137896 -6.601508 0.359485 0
M  V30 27 C -2.128526 -6.349335 -0.524075 0
M  V30 28 C -1.873942 -5.040417 -0.946374 0
M  V30 29 C -2.688612 -4.057839 -0.423631 0
M  V30 30 F -2.412870 -2.808791 -0.853285 0
M  V30 31 C -3.711349 -4.258610 0.461923 0
M  V30 32 C -5.810946 -1.334253 1.682895 0
M  V30 33 S -5.603098 0.400758 1.219145 0
M  V30 34 C 0.949897 2.072284 -1.567791 0
M  V30 35 C 1.109835 0.458647 1.411534 0
M  V30 36 C 1.216227 0.357168 2.906118 0
M  V30 37 H 2.182437 -2.643157 2.660979 0
M  V30 38 H 0.547368 -2.071564 3.226441 0
M  V30 39 H 1.860152 -2.397338 4.383558 0
M  V30 40 H 4.124893 -0.164357 3.590749 0
M  V30 41 H 3.842508 -1.408429 2.360249 0
M  V30 42 H 3.376483 1.646805 2.263495 0
M  V30 43 H 4.431790 0.647152 1.256074 0
M  V30 44 H 2.985078 -1.380184 0.494164 0
M  V30 45 H 1.752558 -0.894524 -0.656043 0
M  V30 46 H 3.937368 -1.216383 -1.672372 0
M  V30 47 H 4.755685 -0.299175 -0.430155 0
M  V30 48 H 3.338559 0.511872 -2.997284 0
M  V30 49 H 4.939062 0.891336 -2.394415 0
M  V30 50 H 3.172330 4.562561 -0.941522 0
M  V30 51 H 1.099805 5.666793 -0.504908 0
M  V30 52 H -1.023886 4.580147 -0.720709 0
M  V30 53 H -1.339283 1.257053 -2.355196 0
M  V30 54 H -2.195041 2.785769 -1.895392 0
M  V30 55 H -3.699705 0.711439 -1.675553 0
M  V30 56 H -6.185816 -4.075294 2.497310 0
M  V30 57 H -5.294018 -6.472035 2.137972 0
M  V30 58 H -1.523383 -7.149881 -0.902086 0
M  V30 59 H -1.073251 -4.815679 -1.651944 0
M  V30 60 H -6.556570 -1.851479 2.360195 0
M  V30 61 H 1.027266 1.025587 -1.893157 0
M  V30 62 H 0.458659 -0.293729 0.974580 0
M  V30 63 H 0.629901 1.470725 1.218179 0
M  V30 64 H 1.618115 1.344698 3.266796 0
M  V30 65 H 0.200560 0.235211 3.340172 0
M  V30 END ATOM
M  V30 BEGIN BOND
M  V30 1 1 1 2
M  V30 2 1 2 3
M  V30 3 1 3 4
M  V30 4 1 4 5
M  V30 5 1 5 6
M  V30 6 1 6 7
M  V30 7 1 7 8
M  V30 8 1 8 9
M  V30 9 1 9 10
M  V30 10 2 10 11
M  V30 11 1 11 12
M  V30 12 2 12 13
M  V30 13 1 13 14
M  V30 14 1 14 15
M  V30 15 1 15 16
M  V30 16 2 16 17
M  V30 17 1 16 18
M  V30 18 1 18 19
M  V30 19 2 19 20
M  V30 20 1 20 21
M  V30 21 1 21 22
M  V30 22 2 22 23
M  V30 23 1 23 24
M  V30 24 1 24 25
M  V30 25 2 25 26
M  V30 26 1 26 27
M  V30 27 2 27 28
M  V30 28 1 28 29
M  V30 29 1 29 30
M  V30 30 2 29 31
M  V30 31 2 21 32
M  V30 32 1 32 33
M  V30 33 2 14 34
M  V30 34 1 5 35
M  V30 35 1 35 36
M  V30 36 1 36 2
M  V30 37 1 34 10
M  V30 38 1 33 19
M  V30 39 1 31 22
M  V30 40 1 31 25
M  V30 41 1 1 37
M  V30 42 1 1 38
M  V30 43 1 1 39
M  V30 44 1 3 40
M  V30 45 1 3 41
M  V30 46 1 4 42
M  V30 47 1 4 43
M  V30 48 1 6 44
M  V30 49 1 6 45
M  V30 50 1 7 46
M  V30 51 1 7 47
M  V30 52 1 8 48
M  V30 53 1 8 49
M  V30 54 1 11 50
M  V30 55 1 12 51
M  V30 56 1 13 52
M  V30 57 1 15 53
M  V30 58 1 15 54
M  V30 59 1 18 55
M  V30 60 1 23 56
M  V30 61 1 24 57
M  V30 62 1 27 58
M  V30 63 1 28 59
M  V30 64 1 32 60
M  V30 65 1 34 61
M  V30 66 1 35 62
M  V30 67 1 35 63
M  V30 68 1 36 64
M  V30 69 1 36 65
M  V30 END BOND
M  V30 END CTAB
M  END
>  <Dataset>  (731) 
ChEMBL_Kinases

>  <Ligand_Instance>  (731) 
nan

>  <PDB_ID>  (731) 
nan

>  <Standardized_SMILES>  (731) 
CN1CCN(CCCOc2cccc(CC(=O)Nc3nc(-c4c[nH]c5nccc(F)c45)cs3)c2)CC1

>  <Name>  (731) 
nan

>  <Pocket>  (731) 
nan

>  <ATP_Site>  (731) 
nan

>  <Peripheral>  (731) 
nan

>  <Num_H_Atoms_ProtBoundConf>  (731) 
nan

>  <Num_Resolved_Atoms>  (731) 
nan

>  <Num_Not_Resolved_Atoms>  (731) 
nan

$$$$
CHEMBL4748683
     RDKit          3D

  0  0  0  0  0  0  0  0  0  0999 V3000
M  V30 BEGIN CTAB
M  V30 COUNTS 38 40 0 0 0
M  V30 BEGIN ATOM
M  V30 1 O -0.675686 -1.869276 1.482224 0
M  V30 2 C 0.135079 -2.831741 1.584505 0
M  V30 3 N 1.457365 -2.558920 1.180160 0
M  V30 4 C 1.598490 -1.216456 0.729892 0
M  V30 5 C 1.933910 -0.179085 1.576195 0
M  V30 6 C 2.061433 1.127839 1.086000 0
M  V30 7 C 1.853325 1.419554 -0.271314 0
M  V30 8 O 2.049604 2.769877 -0.437585 0
M  V30 9 C 1.131368 3.688017 -0.896298 0
M  V30 10 C 0.860536 4.210709 -2.133853 0
M  V30 11 C -0.146542 5.137293 -2.294794 0
M  V30 12 Cl -0.398886 5.731920 -3.920063 0
M  V30 13 C -0.930455 5.591906 -1.254104 0
M  V30 14 C -0.665109 5.071018 -0.001469 0
M  V30 15 Cl -1.675118 5.666838 1.296438 0
M  V30 16 C 0.353566 4.128521 0.183423 0
M  V30 17 C 1.520043 0.359960 -1.086859 0
M  V30 18 Cl 1.293900 0.871385 -2.744709 0
M  V30 19 C 1.398233 -0.909412 -0.599803 0
M  V30 20 C -0.350708 -4.110067 2.098247 0
M  V30 21 C 0.507789 -5.182332 2.223029 0
M  V30 22 C 0.074299 -6.417995 2.710908 0
M  V30 23 Cl 1.106944 -7.799884 2.889560 0
M  V30 24 C -1.251483 -6.536686 3.068318 0
M  V30 25 C -2.135623 -5.486217 2.956493 0
M  V30 26 Cl -3.830384 -5.622894 3.408707 0
M  V30 27 C -1.690792 -4.260206 2.468865 0
M  V30 28 O -2.583391 -3.215097 2.360747 0
M  V30 29 H 2.154850 -3.332041 1.251135 0
M  V30 30 H 2.079078 -0.474748 2.605023 0
M  V30 31 H 2.331850 1.801120 1.913379 0
M  V30 32 H 1.504133 3.821691 -2.885004 0
M  V30 33 H -1.707356 6.320840 -1.440079 0
M  V30 34 H 0.422326 3.826913 1.236841 0
M  V30 35 H 1.132079 -1.650483 -1.344376 0
M  V30 36 H 1.537805 -5.142056 1.961456 0
M  V30 37 H -1.687817 -7.448553 3.456509 0
M  V30 38 H -3.293937 -3.122386 1.664433 0
M  V30 END ATOM
M  V30 BEGIN BOND
M  V30 1 2 1 2
M  V30 2 1 2 3
M  V30 3 1 3 4
M  V30 4 2 4 5
M  V30 5 1 5 6
M  V30 6 2 6 7
M  V30 7 1 7 8
M  V30 8 1 8 9
M  V30 9 2 9 10
M  V30 10 1 10 11
M  V30 11 1 11 12
M  V30 12 2 11 13
M  V30 13 1 13 14
M  V30 14 1 14 15
M  V30 15 2 14 16
M  V30 16 1 7 17
M  V30 17 1 17 18
M  V30 18 2 17 19
M  V30 19 1 2 20
M  V30 20 2 20 21
M  V30 21 1 21 22
M  V30 22 1 22 23
M  V30 23 2 22 24
M  V30 24 1 24 25
M  V30 25 1 25 26
M  V30 26 2 25 27
M  V30 27 1 27 28
M  V30 28 1 19 4
M  V30 29 1 27 20
M  V30 30 1 16 9
M  V30 31 1 3 29
M  V30 32 1 5 30
M  V30 33 1 6 31
M  V30 34 1 10 32
M  V30 35 1 13 33
M  V30 36 1 16 34
M  V30 37 1 19 35
M  V30 38 1 21 36
M  V30 39 1 24 37
M  V30 40 1 28 38
M  V30 END BOND
M  V30 END CTAB
M  END
>  <Dataset>  (732) 
ChEMBL_Kinases

>  <Ligand_Instance>  (732) 
nan

>  <PDB_ID>  (732) 
nan

>  <Standardized_SMILES>  (732) 
O=C(Nc1ccc(Oc2cc(Cl)cc(Cl)c2)c(Cl)c1)c1cc(Cl)cc(Cl)c1O

>  <Name>  (732) 
nan

>  <Pocket>  (732) 
nan

>  <ATP_Site>  (732) 
nan

>  <Peripheral>  (732) 
nan

>  <Num_H_Atoms_ProtBoundConf>  (732) 
nan

>  <Num_Resolved_Atoms>  (732) 
nan

>  <Num_Not_Resolved_Atoms>  (732) 
nan

$$$$
CHEMBL4748687
     RDKit          3D

  0  0  0  0  0  0  0  0  0  0999 V3000
M  V30 BEGIN CTAB
M  V30 COUNTS 54 58 0 0 0
M  V30 BEGIN ATOM
M  V30 1 C -0.003941 3.306432 4.321557 0
M  V30 2 C 1.375427 2.789276 4.599058 0
M  V30 3 C 1.804412 2.535960 5.874816 0
M  V30 4 C 3.068722 2.059668 6.158774 0
M  V30 5 C 3.846603 1.865859 5.057286 0
M  V30 6 C 3.508596 2.089809 3.738820 0
M  V30 7 F 4.346185 1.868986 2.707789 0
M  V30 8 C 2.224630 2.568765 3.511349 0
M  V30 9 C 1.815946 2.822703 2.133285 0
M  V30 10 C 1.215433 1.863495 1.342534 0
M  V30 11 C 0.880908 2.237211 0.060650 0
M  V30 12 C 1.105881 3.504786 -0.484642 0
M  V30 13 C 1.710324 4.393064 0.382851 0
M  V30 14 N 2.049724 4.054375 1.645905 0
M  V30 15 C 0.623894 3.437284 -1.770250 0
M  V30 16 N 0.134233 2.194021 -1.987824 0
M  V30 17 N 0.291775 1.465819 -0.872421 0
M  V30 18 C -0.167703 0.115976 -0.906994 0
M  V30 19 C 0.784473 -0.899439 -0.773252 0
M  V30 20 C 0.330730 -2.220800 -0.807520 0
M  V30 21 C -0.998948 -2.503867 -0.966522 0
M  V30 22 N -1.483618 -3.832042 -1.004497 0
M  V30 23 C -0.700724 -5.045500 -0.887687 0
M  V30 24 C -1.000634 -5.860279 -2.145255 0
M  V30 25 N -2.353739 -6.357283 -2.039415 0
M  V30 26 C -3.017482 -6.296188 -3.346310 0
M  V30 27 C -3.158451 -5.589585 -1.120080 0
M  V30 28 C -2.895191 -4.121146 -1.174180 0
M  V30 29 C -1.896854 -1.476406 -1.093783 0
M  V30 30 C -1.510393 -0.158884 -1.067735 0
M  V30 31 H -0.091414 4.384492 4.452612 0
M  V30 32 H -0.283417 2.994562 3.276324 0
M  V30 33 H -0.677161 2.793451 5.024289 0
M  V30 34 H 1.093918 2.728734 6.677630 0
M  V30 35 H 3.410374 1.859099 7.159058 0
M  V30 36 H 4.870262 1.488595 5.179859 0
M  V30 37 H 1.028836 0.887316 1.725132 0
M  V30 38 H 1.891433 5.387426 -0.031862 0
M  V30 39 H 0.702674 4.330739 -2.377877 0
M  V30 40 H 1.837008 -0.714262 -0.646744 0
M  V30 41 H 1.079195 -2.994026 -0.702828 0
M  V30 42 H 0.365359 -4.898644 -0.738083 0
M  V30 43 H -1.131882 -5.637628 -0.028988 0
M  V30 44 H -0.257054 -6.664622 -2.294360 0
M  V30 45 H -0.970961 -5.213375 -3.046274 0
M  V30 46 H -4.073299 -6.585894 -3.165205 0
M  V30 47 H -3.018149 -5.248641 -3.711243 0
M  V30 48 H -2.519416 -6.969651 -4.070872 0
M  V30 49 H -4.231752 -5.743072 -1.438525 0
M  V30 50 H -3.133397 -6.023905 -0.085364 0
M  V30 51 H -3.442127 -3.668247 -0.300385 0
M  V30 52 H -3.284191 -3.747328 -2.142247 0
M  V30 53 H -2.951579 -1.709645 -1.219791 0
M  V30 54 H -2.252522 0.629002 -1.171864 0
M  V30 END ATOM
M  V30 BEGIN BOND
M  V30 1 1 1 2
M  V30 2 2 2 3
M  V30 3 1 3 4
M  V30 4 2 4 5
M  V30 5 1 5 6
M  V30 6 1 6 7
M  V30 7 2 6 8
M  V30 8 1 8 9
M  V30 9 2 9 10
M  V30 10 1 10 11
M  V30 11 2 11 12
M  V30 12 1 12 13
M  V30 13 2 13 14
M  V30 14 1 12 15
M  V30 15 2 15 16
M  V30 16 1 16 17
M  V30 17 1 17 18
M  V30 18 2 18 19
M  V30 19 1 19 20
M  V30 20 2 20 21
M  V30 21 1 21 22
M  V30 22 1 22 23
M  V30 23 1 23 24
M  V30 24 1 24 25
M  V30 25 1 25 26
M  V30 26 1 25 27
M  V30 27 1 27 28
M  V30 28 1 21 29
M  V30 29 2 29 30
M  V30 30 1 8 2
M  V30 31 1 14 9
M  V30 32 1 30 18
M  V30 33 1 17 11
M  V30 34 1 28 22
M  V30 35 1 1 31
M  V30 36 1 1 32
M  V30 37 1 1 33
M  V30 38 1 3 34
M  V30 39 1 4 35
M  V30 40 1 5 36
M  V30 41 1 10 37
M  V30 42 1 13 38
M  V30 43 1 15 39
M  V30 44 1 19 40
M  V30 45 1 20 41
M  V30 46 1 23 42
M  V30 47 1 23 43
M  V30 48 1 24 44
M  V30 49 1 24 45
M  V30 50 1 26 46
M  V30 51 1 26 47
M  V30 52 1 26 48
M  V30 53 1 27 49
M  V30 54 1 27 50
M  V30 55 1 28 51
M  V30 56 1 28 52
M  V30 57 1 29 53
M  V30 58 1 30 54
M  V30 END BOND
M  V30 END CTAB
M  END
>  <Dataset>  (733) 
ChEMBL_Kinases

>  <Ligand_Instance>  (733) 
nan

>  <PDB_ID>  (733) 
nan

>  <Standardized_SMILES>  (733) 
Cc1cccc(F)c1-c1cc2c(cn1)cnn2-c1ccc(N2CCN(C)CC2)cc1

>  <Name>  (733) 
nan

>  <Pocket>  (733) 
nan

>  <ATP_Site>  (733) 
nan

>  <Peripheral>  (733) 
nan

>  <Num_H_Atoms_ProtBoundConf>  (733) 
nan

>  <Num_Resolved_Atoms>  (733) 
nan

>  <Num_Not_Resolved_Atoms>  (733) 
nan

$$$$
CHEMBL4748736
     RDKit          3D

  0  0  0  0  0  0  0  0  0  0999 V3000
M  V30 BEGIN CTAB
M  V30 COUNTS 32 34 0 0 0
M  V30 BEGIN ATOM
M  V30 1 C 2.514149 -5.464026 3.275756 0
M  V30 2 N 2.039954 -4.250095 2.679910 0
M  V30 3 C 0.794333 -4.259816 2.037151 0
M  V30 4 O 0.363787 -5.460591 2.160297 0
M  V30 5 C -0.040519 -3.318106 1.332902 0
M  V30 6 N -1.216404 -3.778091 0.856139 0
M  V30 7 N -1.853874 -2.784118 0.239127 0
M  V30 8 C -1.156738 -1.636445 0.269463 0
M  V30 9 C -1.322177 -0.346475 -0.188267 0
M  V30 10 C -0.337261 0.594396 0.050852 0
M  V30 11 C -0.493895 1.966469 -0.426016 0
M  V30 12 C -0.148947 2.902529 0.537301 0
M  V30 13 C -0.242719 4.266750 0.239925 0
M  V30 14 C -0.681022 4.681768 -1.019284 0
M  V30 15 C -1.014495 3.716735 -1.949238 0
M  V30 16 C -0.925823 2.367824 -1.666747 0
M  V30 17 Cl -1.330827 1.086704 -2.793861 0
M  V30 18 C 0.799633 0.196185 0.754885 0
M  V30 19 C 0.967119 -1.093198 1.213508 0
M  V30 20 C -0.021532 -1.997223 0.961832 0
M  V30 21 H 2.453972 -6.357565 2.602310 0
M  V30 22 H 2.011152 -5.741584 4.224900 0
M  V30 23 H 3.617844 -5.307098 3.455397 0
M  V30 24 H 2.488504 -3.314441 2.642546 0
M  V30 25 H -2.787067 -2.910760 -0.207987 0
M  V30 26 H -2.236101 -0.112118 -0.729480 0
M  V30 27 H 0.201486 2.683321 1.541599 0
M  V30 28 H -0.000744 5.079318 0.912240 0
M  V30 29 H -0.773419 5.719775 -1.305595 0
M  V30 30 H -1.369359 3.928871 -2.966032 0
M  V30 31 H 1.541812 0.953880 0.921029 0
M  V30 32 H 1.857062 -1.357071 1.750810 0
M  V30 END ATOM
M  V30 BEGIN BOND
M  V30 1 1 1 2
M  V30 2 1 2 3
M  V30 3 2 3 4
M  V30 4 1 3 5
M  V30 5 2 5 6
M  V30 6 1 6 7
M  V30 7 1 7 8
M  V30 8 2 8 9
M  V30 9 1 9 10
M  V30 10 1 10 11
M  V30 11 2 11 12
M  V30 12 1 12 13
M  V30 13 2 13 14
M  V30 14 1 14 15
M  V30 15 2 15 16
M  V30 16 1 16 17
M  V30 17 2 10 18
M  V30 18 1 18 19
M  V30 19 2 19 20
M  V30 20 1 20 5
M  V30 21 1 20 8
M  V30 22 1 16 11
M  V30 23 1 1 21
M  V30 24 1 1 22
M  V30 25 1 1 23
M  V30 26 1 2 24
M  V30 27 1 7 25
M  V30 28 1 9 26
M  V30 29 1 12 27
M  V30 30 1 13 28
M  V30 31 1 14 29
M  V30 32 1 15 30
M  V30 33 1 18 31
M  V30 34 1 19 32
M  V30 END BOND
M  V30 END CTAB
M  END
>  <Dataset>  (734) 
ChEMBL_Kinases

>  <Ligand_Instance>  (734) 
nan

>  <PDB_ID>  (734) 
nan

>  <Standardized_SMILES>  (734) 
CNC(=O)c1n[nH]c2cc(-c3ccccc3Cl)ccc12

>  <Name>  (734) 
nan

>  <Pocket>  (734) 
nan

>  <ATP_Site>  (734) 
nan

>  <Peripheral>  (734) 
nan

>  <Num_H_Atoms_ProtBoundConf>  (734) 
nan

>  <Num_Resolved_Atoms>  (734) 
nan

>  <Num_Not_Resolved_Atoms>  (734) 
nan

$$$$
CHEMBL4748741
     RDKit          3D

  0  0  0  0  0  0  0  0  0  0999 V3000
M  V30 BEGIN CTAB
M  V30 COUNTS 80 85 0 0 0
M  V30 BEGIN ATOM
M  V30 1 C 1.662417 -0.532409 3.063033 0
M  V30 2 O 0.307362 -0.297778 2.909463 0
M  V30 3 C -0.355856 0.904070 2.739810 0
M  V30 4 N 0.288846 2.036471 2.706227 0
M  V30 5 C -0.060782 3.123924 2.577398 0
M  V30 6 C 0.669365 4.440684 2.548476 0
M  V30 7 C 2.030659 4.355255 2.742407 0
M  V30 8 C 2.642173 5.577412 2.726868 0
M  V30 9 N 1.966596 6.721257 2.540659 0
M  V30 10 C 0.626057 6.727745 2.355954 0
M  V30 11 N 0.140612 8.056694 2.193705 0
M  V30 12 C 0.116950 8.770500 0.978797 0
M  V30 13 O 0.572757 8.160068 -0.034964 0
M  V30 14 C -0.413198 10.138489 0.945642 0
M  V30 15 C -1.080152 10.614424 -0.353547 0
M  V30 16 C 0.222926 11.175856 0.086423 0
M  V30 17 C -0.084440 5.548575 2.354296 0
M  V30 18 S -1.914553 2.845936 2.415008 0
M  V30 19 C -1.730140 1.065190 2.589311 0
M  V30 20 C -2.632892 -0.139941 2.638536 0
M  V30 21 O -2.152901 -1.296417 2.772792 0
M  V30 22 N -4.038958 -0.134928 2.553484 0
M  V30 23 C -4.544473 -1.477458 2.640751 0
M  V30 24 C -4.183153 -2.332683 1.476786 0
M  V30 25 C -4.632914 -3.774977 1.693609 0
M  V30 26 N -4.306924 -4.566542 0.552635 0
M  V30 27 C -3.039422 -4.749606 -0.019421 0
M  V30 28 O -2.023469 -4.187291 0.435335 0
M  V30 29 C -2.920678 -5.657590 -1.217481 0
M  V30 30 O -1.607097 -5.714914 -1.671243 0
M  V30 31 C -1.101414 -6.490414 -2.685362 0
M  V30 32 C -1.847184 -7.385353 -3.460159 0
M  V30 33 C -1.298267 -8.149098 -4.472511 0
M  V30 34 C 0.051615 -8.009131 -4.719517 0
M  V30 35 C 0.806360 -7.148859 -3.986325 0
M  V30 36 C 0.257808 -6.387675 -2.974943 0
M  V30 37 C 1.302747 -5.568551 -2.373073 0
M  V30 38 O 1.138276 -4.776470 -1.440088 0
M  V30 39 N 2.553380 -5.806785 -3.010879 0
M  V30 40 C 3.889696 -5.252522 -2.803313 0
M  V30 41 C 3.925214 -3.793962 -3.090850 0
M  V30 42 C 3.872169 -2.894084 -1.919165 0
M  V30 43 C 4.676970 -3.407714 -0.802766 0
M  V30 44 O 5.228930 -2.560424 -0.043772 0
M  V30 45 N 4.905770 -4.752964 -0.478114 0
M  V30 46 C 4.362729 -5.623637 -1.478346 0
M  V30 47 O 4.243933 -6.860605 -1.263767 0
M  V30 48 C 2.218335 -6.787765 -4.005592 0
M  V30 49 O 3.034381 -7.304282 -4.822834 0
M  V30 50 H 1.861636 -0.876542 4.119351 0
M  V30 51 H 2.224811 0.391412 2.835590 0
M  V30 52 H 1.999544 -1.342507 2.345747 0
M  V30 53 H 2.494891 3.375020 2.888505 0
M  V30 54 H 3.722050 5.570231 2.877998 0
M  V30 55 H -0.207462 8.446771 3.115339 0
M  V30 56 H -0.859916 10.550052 1.891730 0
M  V30 57 H -2.028552 11.171910 -0.298994 0
M  V30 58 H -1.045933 9.921507 -1.236465 0
M  V30 59 H 1.147151 10.903189 -0.438237 0
M  V30 60 H 0.184204 12.235840 0.386923 0
M  V30 61 H -1.129578 5.638551 2.203429 0
M  V30 62 H -4.468189 0.825672 2.442196 0
M  V30 63 H -4.212054 -1.947174 3.617164 0
M  V30 64 H -5.668371 -1.471345 2.714870 0
M  V30 65 H -4.756928 -2.004080 0.548094 0
M  V30 66 H -3.145641 -2.318421 1.188871 0
M  V30 67 H -4.080299 -4.210850 2.558356 0
M  V30 68 H -5.698932 -3.816073 1.970392 0
M  V30 69 H -5.118471 -5.064068 0.099609 0
M  V30 70 H -3.634185 -5.319040 -2.002563 0
M  V30 71 H -3.239796 -6.671736 -0.906337 0
M  V30 72 H -2.894193 -7.390624 -3.156932 0
M  V30 73 H -1.974393 -8.810494 -5.007098 0
M  V30 74 H 0.490068 -8.609097 -5.516672 0
M  V30 75 H 4.596613 -5.773159 -3.541355 0
M  V30 76 H 4.869310 -3.544652 -3.664360 0
M  V30 77 H 3.036795 -3.587097 -3.756032 0
M  V30 78 H 4.326905 -1.916780 -2.249591 0
M  V30 79 H 2.838828 -2.692127 -1.527308 0
M  V30 80 H 5.395337 -5.132557 0.352211 0
M  V30 END ATOM
M  V30 BEGIN BOND
M  V30 1 1 1 2
M  V30 2 1 2 3
M  V30 3 1 3 4
M  V30 4 2 4 5
M  V30 5 1 5 6
M  V30 6 2 6 7
M  V30 7 1 7 8
M  V30 8 2 8 9
M  V30 9 1 9 10
M  V30 10 1 10 11
M  V30 11 1 11 12
M  V30 12 2 12 13
M  V30 13 1 12 14
M  V30 14 1 14 15
M  V30 15 1 15 16
M  V30 16 2 10 17
M  V30 17 1 5 18
M  V30 18 1 18 19
M  V30 19 1 19 20
M  V30 20 2 20 21
M  V30 21 1 20 22
M  V30 22 1 22 23
M  V30 23 1 23 24
M  V30 24 1 24 25
M  V30 25 1 25 26
M  V30 26 1 26 27
M  V30 27 2 27 28
M  V30 28 1 27 29
M  V30 29 1 29 30
M  V30 30 1 30 31
M  V30 31 2 31 32
M  V30 32 1 32 33
M  V30 33 2 33 34
M  V30 34 1 34 35
M  V30 35 2 35 36
M  V30 36 1 36 37
M  V30 37 2 37 38
M  V30 38 1 37 39
M  V30 39 1 39 40
M  V30 40 1 40 41
M  V30 41 1 41 42
M  V30 42 1 42 43
M  V30 43 2 43 44
M  V30 44 1 43 45
M  V30 45 1 45 46
M  V30 46 2 46 47
M  V30 47 1 39 48
M  V30 48 2 48 49
M  V30 49 2 19 3
M  V30 50 1 36 31
M  V30 51 1 46 40
M  V30 52 1 17 6
M  V30 53 1 48 35
M  V30 54 1 16 14
M  V30 55 1 1 50
M  V30 56 1 1 51
M  V30 57 1 1 52
M  V30 58 1 7 53
M  V30 59 1 8 54
M  V30 60 1 11 55
M  V30 61 1 14 56
M  V30 62 1 15 57
M  V30 63 1 15 58
M  V30 64 1 16 59
M  V30 65 1 16 60
M  V30 66 1 17 61
M  V30 67 1 22 62
M  V30 68 1 23 63
M  V30 69 1 23 64
M  V30 70 1 24 65
M  V30 71 1 24 66
M  V30 72 1 25 67
M  V30 73 1 25 68
M  V30 74 1 26 69
M  V30 75 1 29 70
M  V30 76 1 29 71
M  V30 77 1 32 72
M  V30 78 1 33 73
M  V30 79 1 34 74
M  V30 80 1 40 75
M  V30 81 1 41 76
M  V30 82 1 41 77
M  V30 83 1 42 78
M  V30 84 1 42 79
M  V30 85 1 45 80
M  V30 END BOND
M  V30 END CTAB
M  END
>  <Dataset>  (735) 
ChEMBL_Kinases

>  <Ligand_Instance>  (735) 
nan

>  <PDB_ID>  (735) 
nan

>  <Standardized_SMILES>  (735) 
COc1nc(-c2ccnc(NC(=O)C3CC3)c2)sc1C(=O)NCCCNC(=O)COc1cccc2c1C(=O)N(C1CCC(=O)NC1=O)C2=O

>  <Name>  (735) 
nan

>  <Pocket>  (735) 
nan

>  <ATP_Site>  (735) 
nan

>  <Peripheral>  (735) 
nan

>  <Num_H_Atoms_ProtBoundConf>  (735) 
nan

>  <Num_Resolved_Atoms>  (735) 
nan

>  <Num_Not_Resolved_Atoms>  (735) 
nan

$$$$
CHEMBL4748753
     RDKit          3D

  0  0  0  0  0  0  0  0  0  0999 V3000
M  V30 BEGIN CTAB
M  V30 COUNTS 79 83 0 0 0
M  V30 BEGIN ATOM
M  V30 1 C 10.917207 -2.780470 3.921449 0
M  V30 2 O 10.643074 -1.880566 2.869049 0
M  V30 3 C 9.806409 -0.791928 3.011474 0
M  V30 4 C 9.105382 -0.361496 4.106796 0
M  V30 5 C 8.306793 0.760523 4.076910 0
M  V30 6 C 8.174609 1.511069 2.929467 0
M  V30 7 O 7.385189 2.655311 2.824822 0
M  V30 8 C 6.051514 2.586203 2.413880 0
M  V30 9 C 5.784000 2.700673 1.057716 0
M  V30 10 C 4.450402 2.632418 0.632836 0
M  V30 11 C 3.387578 2.454366 1.514847 0
M  V30 12 C 2.080684 2.417065 0.864526 0
M  V30 13 C 1.117957 1.574438 1.198942 0
M  V30 14 S 1.406660 0.385368 2.534788 0
M  V30 15 C -0.365109 0.058349 2.754781 0
M  V30 16 O -0.556263 -0.475786 3.843217 0
M  V30 17 N -1.017987 0.526470 1.579982 0
M  V30 18 C -2.365216 0.135156 1.377176 0
M  V30 19 C -3.031795 0.627474 0.281743 0
M  V30 20 C -4.339666 0.319099 -0.018758 0
M  V30 21 C -5.069517 -0.522849 0.784987 0
M  V30 22 O -6.319071 -0.989143 0.745866 0
M  V30 23 C -7.419299 -0.949650 0.008067 0
M  V30 24 C -7.610010 -1.573886 -1.341543 0
M  V30 25 C -7.572973 -3.035906 -1.397461 0
M  V30 26 C -6.368051 -3.874713 -1.231757 0
M  V30 27 C -5.390036 -3.913937 -2.325570 0
M  V30 28 N -4.656398 -2.902034 -2.857811 0
M  V30 29 C -3.566796 -2.272746 -2.242589 0
M  V30 30 C -3.372621 -0.936609 -2.980555 0
M  V30 31 N -3.273672 -1.103441 -4.404873 0
M  V30 32 C -2.319860 -0.221594 -5.006912 0
M  V30 33 C -3.090685 -2.476722 -4.726590 0
M  V30 34 C -4.215623 -3.299216 -4.205415 0
M  V30 35 C -4.399837 -1.033777 1.908868 0
M  V30 36 C -3.066665 -0.708530 2.199349 0
M  V30 37 C -0.212819 1.339503 0.750795 0
M  V30 38 O -0.494599 1.895768 -0.338105 0
M  V30 39 C 3.690581 2.344558 2.855397 0
M  V30 40 C 4.997168 2.410240 3.287064 0
M  V30 41 C 8.880717 1.075268 1.831284 0
M  V30 42 C 9.683180 -0.045725 1.847677 0
M  V30 43 H 10.660743 -2.409377 4.919612 0
M  V30 44 H 12.024436 -3.004470 3.942366 0
M  V30 45 H 10.455915 -3.789137 3.727507 0
M  V30 46 H 9.233397 -0.975058 4.987509 0
M  V30 47 H 7.769755 1.066899 4.964183 0
M  V30 48 H 6.588183 2.837926 0.345361 0
M  V30 49 H 4.313922 2.728617 -0.434855 0
M  V30 50 H 1.842128 3.099763 0.059963 0
M  V30 51 H -2.664001 1.298930 -0.479223 0
M  V30 52 H -4.937255 0.661040 -0.833108 0
M  V30 53 H -8.279522 -1.365556 0.681694 0
M  V30 54 H -7.835226 0.116512 -0.135615 0
M  V30 55 H -6.981518 -1.070480 -2.123547 0
M  V30 56 H -8.660072 -1.272844 -1.657541 0
M  V30 57 H -8.384861 -3.406511 -0.676127 0
M  V30 58 H -8.038080 -3.330667 -2.400153 0
M  V30 59 H -6.779452 -4.940807 -1.165673 0
M  V30 60 H -5.903426 -3.776807 -0.211083 0
M  V30 61 H -5.966982 -4.410751 -3.205735 0
M  V30 62 H -4.681800 -4.810451 -2.089954 0
M  V30 63 H -2.601856 -2.834476 -2.411566 0
M  V30 64 H -3.611285 -2.053108 -1.192097 0
M  V30 65 H -2.588801 -0.319454 -2.551562 0
M  V30 66 H -4.349302 -0.379197 -2.830857 0
M  V30 67 H -2.810983 0.757056 -5.158553 0
M  V30 68 H -1.992883 -0.593734 -5.988290 0
M  V30 69 H -1.475211 -0.031033 -4.311689 0
M  V30 70 H -2.082100 -2.779756 -4.364097 0
M  V30 71 H -3.064086 -2.627907 -5.844605 0
M  V30 72 H -3.816616 -4.341945 -4.085269 0
M  V30 73 H -5.060552 -3.352975 -4.899889 0
M  V30 74 H -4.830414 -1.717819 2.655964 0
M  V30 75 H -2.581863 -1.120907 3.072817 0
M  V30 76 H 2.844830 2.213988 3.498483 0
M  V30 77 H 5.214327 2.322359 4.345621 0
M  V30 78 H 8.784225 1.663351 0.913029 0
M  V30 79 H 10.192199 -0.286094 0.904963 0
M  V30 END ATOM
M  V30 BEGIN BOND
M  V30 1 1 1 2
M  V30 2 1 2 3
M  V30 3 2 3 4
M  V30 4 1 4 5
M  V30 5 2 5 6
M  V30 6 1 6 7
M  V30 7 1 7 8
M  V30 8 2 8 9
M  V30 9 1 9 10
M  V30 10 2 10 11
M  V30 11 1 11 12
M  V30 12 2 12 13
M  V30 13 1 13 14
M  V30 14 1 14 15
M  V30 15 2 15 16
M  V30 16 1 15 17
M  V30 17 1 17 18
M  V30 18 2 18 19
M  V30 19 1 19 20
M  V30 20 2 20 21
M  V30 21 1 21 22
M  V30 22 1 22 23
M  V30 23 1 23 24
M  V30 24 1 24 25
M  V30 25 1 25 26
M  V30 26 1 26 27
M  V30 27 1 27 28
M  V30 28 1 28 29
M  V30 29 1 29 30
M  V30 30 1 30 31
M  V30 31 1 31 32
M  V30 32 1 31 33
M  V30 33 1 33 34
M  V30 34 1 21 35
M  V30 35 2 35 36
M  V30 36 1 17 37
M  V30 37 2 37 38
M  V30 38 1 11 39
M  V30 39 2 39 40
M  V30 40 1 6 41
M  V30 41 2 41 42
M  V30 42 1 42 3
M  V30 43 1 40 8
M  V30 44 1 37 13
M  V30 45 1 36 18
M  V30 46 1 34 28
M  V30 47 1 1 43
M  V30 48 1 1 44
M  V30 49 1 1 45
M  V30 50 1 4 46
M  V30 51 1 5 47
M  V30 52 1 9 48
M  V30 53 1 10 49
M  V30 54 1 12 50
M  V30 55 1 19 51
M  V30 56 1 20 52
M  V30 57 1 23 53
M  V30 58 1 23 54
M  V30 59 1 24 55
M  V30 60 1 24 56
M  V30 61 1 25 57
M  V30 62 1 25 58
M  V30 63 1 26 59
M  V30 64 1 26 60
M  V30 65 1 27 61
M  V30 66 1 27 62
M  V30 67 1 29 63
M  V30 68 1 29 64
M  V30 69 1 30 65
M  V30 70 1 30 66
M  V30 71 1 32 67
M  V30 72 1 32 68
M  V30 73 1 32 69
M  V30 74 1 33 70
M  V30 75 1 33 71
M  V30 76 1 34 72
M  V30 77 1 34 73
M  V30 78 1 35 74
M  V30 79 1 36 75
M  V30 80 1 39 76
M  V30 81 1 40 77
M  V30 82 1 41 78
M  V30 83 1 42 79
M  V30 END BOND
M  V30 END CTAB
M  END
>  <Dataset>  (736) 
ChEMBL_Kinases

>  <Ligand_Instance>  (736) 
nan

>  <PDB_ID>  (736) 
nan

>  <Standardized_SMILES>  (736) 
COc1ccc(Oc2ccc(/C=C3\SC(=O)N(c4ccc(OCCCCCN5CCN(C)CC5)cc4)C3=O)cc2)cc1

>  <Name>  (736) 
nan

>  <Pocket>  (736) 
nan

>  <ATP_Site>  (736) 
nan

>  <Peripheral>  (736) 
nan

>  <Num_H_Atoms_ProtBoundConf>  (736) 
nan

>  <Num_Resolved_Atoms>  (736) 
nan

>  <Num_Not_Resolved_Atoms>  (736) 
nan

$$$$
CHEMBL4748767
     RDKit          3D

  0  0  0  0  0  0  0  0  0  0999 V3000
M  V30 BEGIN CTAB
M  V30 COUNTS 28 30 0 0 0
M  V30 BEGIN ATOM
M  V30 1 O 1.360851 -3.201821 5.462249 0
M  V30 2 C 1.197227 -3.687551 4.334786 0
M  V30 3 O 1.146660 -5.067685 4.188344 0
M  V30 4 C 1.056217 -2.839135 3.155070 0
M  V30 5 C 1.103127 -1.464459 3.275418 0
M  V30 6 C 0.972533 -0.638003 2.175996 0
M  V30 7 C 0.789032 -1.170683 0.909399 0
M  V30 8 C 0.639270 -0.393036 -0.323629 0
M  V30 9 N 1.289067 -0.707364 -1.461048 0
M  V30 10 N 0.976378 0.155461 -2.422307 0
M  V30 11 C 0.115688 1.056023 -1.942337 0
M  V30 12 C -0.545046 2.156454 -2.441175 0
M  V30 13 C -1.394467 2.890842 -1.640174 0
M  V30 14 C -1.606275 2.549543 -0.328617 0
M  V30 15 C -0.966208 1.442875 0.240815 0
M  V30 16 C -0.125309 0.739040 -0.601298 0
M  V30 17 C 0.746622 -2.550044 0.823029 0
M  V30 18 C 0.874435 -3.397736 1.905431 0
M  V30 19 H 1.195721 -5.662031 5.011234 0
M  V30 20 H 1.242620 -0.989860 4.226800 0
M  V30 21 H 1.005016 0.456946 2.235849 0
M  V30 22 H 1.298706 0.205710 -3.423616 0
M  V30 23 H -0.356833 2.397236 -3.474141 0
M  V30 24 H -1.893075 3.749226 -2.075918 0
M  V30 25 H -2.273975 3.114684 0.326757 0
M  V30 26 H -1.088861 1.119090 1.267742 0
M  V30 27 H 0.606465 -3.042985 -0.130250 0
M  V30 28 H 0.840019 -4.473724 1.828199 0
M  V30 END ATOM
M  V30 BEGIN BOND
M  V30 1 2 1 2
M  V30 2 1 2 3
M  V30 3 1 2 4
M  V30 4 2 4 5
M  V30 5 1 5 6
M  V30 6 2 6 7
M  V30 7 1 7 8
M  V30 8 2 8 9
M  V30 9 1 9 10
M  V30 10 1 10 11
M  V30 11 2 11 12
M  V30 12 1 12 13
M  V30 13 2 13 14
M  V30 14 1 14 15
M  V30 15 2 15 16
M  V30 16 1 7 17
M  V30 17 2 17 18
M  V30 18 1 18 4
M  V30 19 1 16 8
M  V30 20 1 16 11
M  V30 21 1 3 19
M  V30 22 1 5 20
M  V30 23 1 6 21
M  V30 24 1 10 22
M  V30 25 1 12 23
M  V30 26 1 13 24
M  V30 27 1 14 25
M  V30 28 1 15 26
M  V30 29 1 17 27
M  V30 30 1 18 28
M  V30 END BOND
M  V30 END CTAB
M  END
>  <Dataset>  (737) 
ChEMBL_Kinases

>  <Ligand_Instance>  (737) 
nan

>  <PDB_ID>  (737) 
nan

>  <Standardized_SMILES>  (737) 
O=C(O)c1ccc(-c2n[nH]c3ccccc23)cc1

>  <Name>  (737) 
nan

>  <Pocket>  (737) 
nan

>  <ATP_Site>  (737) 
nan

>  <Peripheral>  (737) 
nan

>  <Num_H_Atoms_ProtBoundConf>  (737) 
nan

>  <Num_Resolved_Atoms>  (737) 
nan

>  <Num_Not_Resolved_Atoms>  (737) 
nan

$$$$
CHEMBL4748786
     RDKit          3D

  0  0  0  0  0  0  0  0  0  0999 V3000
M  V30 BEGIN CTAB
M  V30 COUNTS 60 64 0 0 0
M  V30 BEGIN ATOM
M  V30 1 C 6.745695 -4.321424 3.563336 0
M  V30 2 O 6.272784 -3.161093 2.969159 0
M  V30 3 C 6.384153 -2.748684 1.664004 0
M  V30 4 O 6.955386 -3.830092 1.713736 0
M  V30 5 C 5.829868 -1.529731 1.261107 0
M  V30 6 C 5.177667 -0.637612 2.014937 0
M  V30 7 C 4.734912 0.483169 1.386625 0
M  V30 8 C 4.977399 0.656201 -0.016402 0
M  V30 9 S 4.507429 1.992429 -1.033069 0
M  V30 10 O 3.646312 1.481750 -2.167618 0
M  V30 11 O 5.718146 2.635609 -1.669411 0
M  V30 12 N 3.637130 3.177786 -0.118917 0
M  V30 13 C 2.403283 2.819297 0.510861 0
M  V30 14 C 2.092807 3.216970 1.815143 0
M  V30 15 C 0.926769 2.899957 2.476424 0
M  V30 16 C -0.015819 2.137293 1.825970 0
M  V30 17 C -1.270655 1.755850 2.466591 0
M  V30 18 N -2.232486 1.009742 1.895376 0
M  V30 19 C -3.277414 0.828374 2.751767 0
M  V30 20 C -4.387855 0.015693 2.226491 0
M  V30 21 C -5.669181 0.518945 2.296427 0
M  V30 22 C -6.664065 -0.311602 1.777044 0
M  V30 23 N -6.423331 -1.521604 1.240448 0
M  V30 24 C -5.155339 -2.005041 1.177933 0
M  V30 25 N -4.697993 -3.247060 0.656088 0
M  V30 26 C -4.352855 -3.321378 -0.717571 0
M  V30 27 C -3.819749 -4.437371 -1.315317 0
M  V30 28 C -3.480697 -4.535854 -2.650144 0
M  V30 29 C -3.681063 -3.446165 -3.464256 0
M  V30 30 O -3.361273 -3.479821 -4.805317 0
M  V30 31 C -2.043525 -3.080597 -5.178434 0
M  V30 32 F -1.807119 -1.769684 -4.797220 0
M  V30 33 F -1.843566 -3.254768 -6.540658 0
M  V30 34 F -1.141465 -3.894146 -4.546835 0
M  V30 35 C -4.219330 -2.277588 -2.923834 0
M  V30 36 C -4.543865 -2.236029 -1.569602 0
M  V30 37 C -4.096515 -1.238188 1.675294 0
M  V30 38 N -2.894884 1.506988 3.872149 0
M  V30 39 O -1.722469 2.029128 3.660537 0
M  V30 40 C 0.254090 1.727377 0.538322 0
M  V30 41 C 1.430833 2.059196 -0.100957 0
M  V30 42 S 5.910295 -0.910633 -0.446879 0
M  V30 43 H 6.437254 -4.314254 4.650700 0
M  V30 44 H 7.853433 -4.441911 3.547309 0
M  V30 45 H 6.327237 -5.268977 3.133446 0
M  V30 46 H 5.001276 -0.781718 3.070312 0
M  V30 47 H 4.201381 1.279751 1.876077 0
M  V30 48 H 3.909911 4.165223 0.040065 0
M  V30 49 H 2.880406 3.820067 2.276794 0
M  V30 50 H 0.761665 3.242987 3.486220 0
M  V30 51 H -5.887805 1.489205 2.722084 0
M  V30 52 H -7.716083 0.016965 1.793801 0
M  V30 53 H -4.584562 -4.152297 1.204496 0
M  V30 54 H -3.651014 -5.307263 -0.702478 0
M  V30 55 H -3.065364 -5.413053 -3.113683 0
M  V30 56 H -4.401650 -1.381025 -3.513718 0
M  V30 57 H -4.956987 -1.342811 -1.138181 0
M  V30 58 H -3.049352 -1.533303 1.673118 0
M  V30 59 H -0.485262 1.115523 -0.005688 0
M  V30 60 H 1.579747 1.706340 -1.109131 0
M  V30 END ATOM
M  V30 BEGIN BOND
M  V30 1 1 1 2
M  V30 2 1 2 3
M  V30 3 2 3 4
M  V30 4 1 3 5
M  V30 5 2 5 6
M  V30 6 1 6 7
M  V30 7 2 7 8
M  V30 8 1 8 9
M  V30 9 2 9 10
M  V30 10 2 9 11
M  V30 11 1 9 12
M  V30 12 1 12 13
M  V30 13 2 13 14
M  V30 14 1 14 15
M  V30 15 2 15 16
M  V30 16 1 16 17
M  V30 17 2 17 18
M  V30 18 1 18 19
M  V30 19 1 19 20
M  V30 20 2 20 21
M  V30 21 1 21 22
M  V30 22 2 22 23
M  V30 23 1 23 24
M  V30 24 1 24 25
M  V30 25 1 25 26
M  V30 26 2 26 27
M  V30 27 1 27 28
M  V30 28 2 28 29
M  V30 29 1 29 30
M  V30 30 1 30 31
M  V30 31 1 31 32
M  V30 32 1 31 33
M  V30 33 1 31 34
M  V30 34 1 29 35
M  V30 35 2 35 36
M  V30 36 2 24 37
M  V30 37 2 19 38
M  V30 38 1 38 39
M  V30 39 1 16 40
M  V30 40 2 40 41
M  V30 41 1 8 42
M  V30 42 1 42 5
M  V30 43 1 41 13
M  V30 44 1 39 17
M  V30 45 1 37 20
M  V30 46 1 36 26
M  V30 47 1 1 43
M  V30 48 1 1 44
M  V30 49 1 1 45
M  V30 50 1 6 46
M  V30 51 1 7 47
M  V30 52 1 12 48
M  V30 53 1 14 49
M  V30 54 1 15 50
M  V30 55 1 21 51
M  V30 56 1 22 52
M  V30 57 1 25 53
M  V30 58 1 27 54
M  V30 59 1 28 55
M  V30 60 1 35 56
M  V30 61 1 36 57
M  V30 62 1 37 58
M  V30 63 1 40 59
M  V30 64 1 41 60
M  V30 END BOND
M  V30 END CTAB
M  END
>  <Dataset>  (738) 
ChEMBL_Kinases

>  <Ligand_Instance>  (738) 
nan

>  <PDB_ID>  (738) 
nan

>  <Standardized_SMILES>  (738) 
COC(=O)c1ccc(S(=O)(=O)Nc2ccc(-c3nc(-c4ccnc(Nc5ccc(OC(F)(F)F)cc5)c4)no3)cc2)s1

>  <Name>  (738) 
nan

>  <Pocket>  (738) 
nan

>  <ATP_Site>  (738) 
nan

>  <Peripheral>  (738) 
nan

>  <Num_H_Atoms_ProtBoundConf>  (738) 
nan

>  <Num_Resolved_Atoms>  (738) 
nan

>  <Num_Not_Resolved_Atoms>  (738) 
nan

$$$$
CHEMBL4748792
     RDKit          3D

  0  0  0  0  0  0  0  0  0  0999 V3000
M  V30 BEGIN CTAB
M  V30 COUNTS 67 71 0 0 0
M  V30 BEGIN ATOM
M  V30 1 C 1.972197 -2.090640 6.963061 0
M  V30 2 N 1.824096 -1.363517 5.723114 0
M  V30 3 C 1.800877 -2.145637 4.534890 0
M  V30 4 O 1.906540 -3.391875 4.616974 0
M  V30 5 C 1.648483 -1.359482 3.297781 0
M  V30 6 S 1.483372 0.533943 3.118578 0
M  V30 7 C 1.364080 0.367566 1.251088 0
M  V30 8 C 1.208663 1.606570 0.386150 0
M  V30 9 C 1.126487 1.522873 -0.965205 0
M  V30 10 C 0.991154 2.682833 -1.697771 0
M  V30 11 N 0.939144 3.895448 -1.092113 0
M  V30 12 C 1.021474 3.976376 0.257104 0
M  V30 13 N 0.966941 5.245645 0.891846 0
M  V30 14 C 1.886171 6.252662 1.298999 0
M  V30 15 O 3.131369 6.179485 1.139374 0
M  V30 16 C 1.233744 7.423280 1.942185 0
M  V30 17 C -0.164044 7.779739 1.600861 0
M  V30 18 C 0.102248 7.090066 2.917933 0
M  V30 19 C 1.157278 2.843208 1.023583 0
M  V30 20 N 1.442049 -0.750823 1.090096 0
M  V30 21 C 1.583038 -1.741884 1.948001 0
M  V30 22 O 1.686028 -3.118839 1.823259 0
M  V30 23 C 1.651938 -3.774049 0.671491 0
M  V30 24 C 1.601104 -4.470393 -0.564536 0
M  V30 25 C 0.509972 -5.509287 -0.685136 0
M  V30 26 C -0.838093 -4.968864 -1.010967 0
M  V30 27 N -0.913422 -3.601673 -1.285651 0
M  V30 28 C -2.097081 -2.894181 -1.096622 0
M  V30 29 C -3.266248 -3.398980 -1.884337 0
M  V30 30 C -4.122396 -4.389125 -1.384404 0
M  V30 31 C -5.182265 -4.814680 -2.139275 0
M  V30 32 C -5.474215 -4.321237 -3.394358 0
M  V30 33 C -4.620412 -3.329957 -3.899384 0
M  V30 34 C -3.558499 -2.907754 -3.136924 0
M  V30 35 C 0.133241 -2.899792 -1.869474 0
M  V30 36 C 1.476244 -3.582425 -1.807021 0
M  V30 37 H 1.664741 -3.145933 6.874307 0
M  V30 38 H 1.244104 -1.645577 7.697406 0
M  V30 39 H 2.968073 -1.909679 7.367887 0
M  V30 40 H 1.739540 -0.325310 5.716544 0
M  V30 41 H 1.177271 0.517240 -1.336223 0
M  V30 42 H 0.930461 2.545800 -2.768566 0
M  V30 43 H -0.064628 5.282827 1.013524 0
M  V30 44 H 1.937015 8.202931 2.257311 0
M  V30 45 H -0.458689 8.842685 1.711151 0
M  V30 46 H -0.715869 7.205307 0.855436 0
M  V30 47 H 0.082984 7.656244 3.868563 0
M  V30 48 H -0.220021 6.048739 2.995967 0
M  V30 49 H 1.220875 2.946164 2.096689 0
M  V30 50 H 0.283823 -3.811259 0.747912 0
M  V30 51 H 1.570664 -4.916609 1.344612 0
M  V30 52 H 2.615714 -4.979975 -0.742466 0
M  V30 53 H 0.455388 -6.144414 0.215884 0
M  V30 54 H 0.837348 -6.168207 -1.545433 0
M  V30 55 H -1.499441 -5.155704 -0.098715 0
M  V30 56 H -1.264854 -5.569794 -1.855877 0
M  V30 57 H -2.337297 -2.853524 -0.012207 0
M  V30 58 H -1.927398 -1.818424 -1.396610 0
M  V30 59 H -3.910248 -4.795417 -0.392605 0
M  V30 60 H -5.833522 -5.594876 -1.710737 0
M  V30 61 H -6.317782 -4.673737 -3.972535 0
M  V30 62 H -4.857662 -2.949315 -4.882732 0
M  V30 63 H -2.944948 -2.139362 -3.598997 0
M  V30 64 H 0.295654 -1.877884 -1.421751 0
M  V30 65 H -0.080235 -2.735869 -2.947338 0
M  V30 66 H 1.548371 -4.276535 -2.666847 0
M  V30 67 H 2.260077 -2.835354 -1.891971 0
M  V30 END ATOM
M  V30 BEGIN BOND
M  V30 1 1 1 2
M  V30 2 1 2 3
M  V30 3 2 3 4
M  V30 4 1 3 5
M  V30 5 1 5 6
M  V30 6 1 6 7
M  V30 7 1 7 8
M  V30 8 2 8 9
M  V30 9 1 9 10
M  V30 10 2 10 11
M  V30 11 1 11 12
M  V30 12 1 12 13
M  V30 13 1 13 14
M  V30 14 2 14 15
M  V30 15 1 14 16
M  V30 16 1 16 17
M  V30 17 1 17 18
M  V30 18 2 12 19
M  V30 19 2 7 20
M  V30 20 1 20 21
M  V30 21 1 21 22
M  V30 22 1 22 23
M  V30 23 1 23 24
M  V30 24 1 24 25
M  V30 25 1 25 26
M  V30 26 1 26 27
M  V30 27 1 27 28
M  V30 28 1 28 29
M  V30 29 2 29 30
M  V30 30 1 30 31
M  V30 31 2 31 32
M  V30 32 1 32 33
M  V30 33 2 33 34
M  V30 34 1 27 35
M  V30 35 1 35 36
M  V30 36 2 21 5
M  V30 37 1 36 24
M  V30 38 1 19 8
M  V30 39 1 34 29
M  V30 40 1 18 16
M  V30 41 1 1 37
M  V30 42 1 1 38
M  V30 43 1 1 39
M  V30 44 1 2 40
M  V30 45 1 9 41
M  V30 46 1 10 42
M  V30 47 1 13 43
M  V30 48 1 16 44
M  V30 49 1 17 45
M  V30 50 1 17 46
M  V30 51 1 18 47
M  V30 52 1 18 48
M  V30 53 1 19 49
M  V30 54 1 23 50
M  V30 55 1 23 51
M  V30 56 1 24 52
M  V30 57 1 25 53
M  V30 58 1 25 54
M  V30 59 1 26 55
M  V30 60 1 26 56
M  V30 61 1 28 57
M  V30 62 1 28 58
M  V30 63 1 30 59
M  V30 64 1 31 60
M  V30 65 1 32 61
M  V30 66 1 33 62
M  V30 67 1 34 63
M  V30 68 1 35 64
M  V30 69 1 35 65
M  V30 70 1 36 66
M  V30 71 1 36 67
M  V30 END BOND
M  V30 END CTAB
M  END
>  <Dataset>  (739) 
ChEMBL_Kinases

>  <Ligand_Instance>  (739) 
nan

>  <PDB_ID>  (739) 
nan

>  <Standardized_SMILES>  (739) 
CNC(=O)c1sc(-c2ccnc(NC(=O)C3CC3)c2)nc1OCC1CCN(Cc2ccccc2)CC1

>  <Name>  (739) 
nan

>  <Pocket>  (739) 
nan

>  <ATP_Site>  (739) 
nan

>  <Peripheral>  (739) 
nan

>  <Num_H_Atoms_ProtBoundConf>  (739) 
nan

>  <Num_Resolved_Atoms>  (739) 
nan

>  <Num_Not_Resolved_Atoms>  (739) 
nan

$$$$
CHEMBL4452197
     RDKit          3D

  0  0  0  0  0  0  0  0  0  0999 V3000
M  V30 BEGIN CTAB
M  V30 COUNTS 48 51 0 0 0
M  V30 BEGIN ATOM
M  V30 1 C 0.067569 -5.110208 6.965965 0
M  V30 2 C 0.767696 -4.382111 5.884944 0
M  V30 3 C 0.026383 -3.400719 5.233541 0
M  V30 4 C 0.643692 -2.698422 4.218566 0
M  V30 5 C 1.948430 -2.930892 3.832972 0
M  V30 6 C 2.573336 -2.168046 2.752324 0
M  V30 7 C 1.966446 -1.168539 2.018114 0
M  V30 8 C 2.877238 -0.691573 1.093778 0
M  V30 9 C 2.661587 0.371326 0.107534 0
M  V30 10 C 3.708326 0.700633 -0.730461 0
M  V30 11 C 3.440816 1.708265 -1.635266 0
M  V30 12 C 2.214028 2.355356 -1.711881 0
M  V30 13 C 1.203730 1.977738 -0.841793 0
M  V30 14 N -0.103421 2.564789 -0.818431 0
M  V30 15 C -1.072446 1.950295 -1.655097 0
M  V30 16 O -0.681565 0.973886 -2.313609 0
M  V30 17 N -2.399032 2.367782 -1.776464 0
M  V30 18 C -3.458349 1.854121 -2.562468 0
M  V30 19 C -4.697711 2.446257 -2.511514 0
M  V30 20 C -5.763175 1.988872 -3.253875 0
M  V30 21 C -5.644660 0.903502 -4.095601 0
M  V30 22 Cl -7.052557 0.392405 -5.000663 0
M  V30 23 C -4.417295 0.280567 -4.175778 0
M  V30 24 Cl -4.234120 -1.085128 -5.223067 0
M  V30 25 C -3.387542 0.777215 -3.413889 0
M  V30 26 C 1.427367 0.988809 0.064820 0
M  V30 27 N 4.006907 -1.399607 1.279294 0
M  V30 28 N 3.843560 -2.284586 2.264412 0
M  V30 29 C 2.677737 -3.905856 4.483526 0
M  V30 30 C 2.077075 -4.625149 5.507962 0
M  V30 31 H 0.127007 -4.521081 7.890029 0
M  V30 32 H -1.001834 -5.311020 6.752019 0
M  V30 33 H 0.618387 -6.076996 7.104959 0
M  V30 34 H -1.012016 -3.138314 5.461103 0
M  V30 35 H 0.074544 -1.922563 3.695501 0
M  V30 36 H 0.957415 -0.831456 2.155100 0
M  V30 37 H 4.679952 0.225369 -0.707949 0
M  V30 38 H 4.197359 2.037317 -2.334243 0
M  V30 39 H 1.999418 3.145396 -2.418962 0
M  V30 40 H -0.386791 3.398929 -0.238283 0
M  V30 41 H -2.601820 3.203503 -1.167053 0
M  V30 42 H -4.838962 3.316013 -1.853085 0
M  V30 43 H -6.696604 2.523462 -3.143407 0
M  V30 44 H -2.457254 0.244362 -3.524025 0
M  V30 45 H 0.665110 0.659631 0.766662 0
M  V30 46 H 4.922073 -1.308244 0.748065 0
M  V30 47 H 3.706504 -4.150090 4.241944 0
M  V30 48 H 2.571484 -5.412411 6.078452 0
M  V30 END ATOM
M  V30 BEGIN BOND
M  V30 1 1 1 2
M  V30 2 2 2 3
M  V30 3 1 3 4
M  V30 4 2 4 5
M  V30 5 1 5 6
M  V30 6 1 6 7
M  V30 7 2 7 8
M  V30 8 1 8 9
M  V30 9 2 9 10
M  V30 10 1 10 11
M  V30 11 2 11 12
M  V30 12 1 12 13
M  V30 13 1 13 14
M  V30 14 1 14 15
M  V30 15 2 15 16
M  V30 16 1 15 17
M  V30 17 1 17 18
M  V30 18 2 18 19
M  V30 19 1 19 20
M  V30 20 2 20 21
M  V30 21 1 21 22
M  V30 22 1 21 23
M  V30 23 1 23 24
M  V30 24 2 23 25
M  V30 25 2 13 26
M  V30 26 1 8 27
M  V30 27 1 27 28
M  V30 28 1 5 29
M  V30 29 2 29 30
M  V30 30 1 30 2
M  V30 31 2 28 6
M  V30 32 1 26 9
M  V30 33 1 25 18
M  V30 34 1 1 31
M  V30 35 1 1 32
M  V30 36 1 1 33
M  V30 37 1 3 34
M  V30 38 1 4 35
M  V30 39 1 7 36
M  V30 40 1 10 37
M  V30 41 1 11 38
M  V30 42 1 12 39
M  V30 43 1 14 40
M  V30 44 1 17 41
M  V30 45 1 19 42
M  V30 46 1 20 43
M  V30 47 1 25 44
M  V30 48 1 26 45
M  V30 49 1 27 46
M  V30 50 1 29 47
M  V30 51 1 30 48
M  V30 END BOND
M  V30 END CTAB
M  END
>  <Dataset>  (740) 
ChEMBL_Kinases

>  <Ligand_Instance>  (740) 
nan

>  <PDB_ID>  (740) 
nan

>  <Standardized_SMILES>  (740) 
Cc1ccc(-c2cc(-c3cccc(NC(=O)Nc4ccc(Cl)c(Cl)c4)c3)[nH]n2)cc1

>  <Name>  (740) 
nan

>  <Pocket>  (740) 
nan

>  <ATP_Site>  (740) 
nan

>  <Peripheral>  (740) 
nan

>  <Num_H_Atoms_ProtBoundConf>  (740) 
nan

>  <Num_Resolved_Atoms>  (740) 
nan

>  <Num_Not_Resolved_Atoms>  (740) 
nan

$$$$
CHEMBL4451516
     RDKit          3D

  0  0  0  0  0  0  0  0  0  0999 V3000
M  V30 BEGIN CTAB
M  V30 COUNTS 40 43 0 0 0
M  V30 BEGIN ATOM
M  V30 1 C 3.306300 -3.330692 4.533926 0
M  V30 2 C 2.621580 -3.341698 3.213760 0
M  V30 3 C 1.711513 -4.301446 2.820165 0
M  V30 4 C 1.084409 -4.299904 1.594386 0
M  V30 5 C 1.367894 -3.280588 0.679665 0
M  V30 6 C 2.281744 -2.340785 1.109365 0
M  V30 7 N 2.591894 -1.274707 0.179365 0
M  V30 8 C 2.039763 -0.139978 0.292858 0
M  V30 9 N 2.125727 1.080812 -0.435441 0
M  V30 10 C 0.940574 1.863037 -0.454279 0
M  V30 11 O 0.763871 2.970412 -1.008778 0
M  V30 12 C -0.153462 1.267358 0.272927 0
M  V30 13 C -1.442744 1.171422 0.178939 0
M  V30 14 C -2.423341 0.523890 1.032769 0
M  V30 15 O -2.038707 -0.032939 2.088683 0
M  V30 16 N -3.681055 0.692111 0.414715 0
M  V30 17 C -3.443453 1.429868 -0.792585 0
M  V30 18 C -4.455979 1.759729 -1.667807 0
M  V30 19 C -4.125863 2.445889 -2.816980 0
M  V30 20 C -2.783912 2.777593 -3.048466 0
M  V30 21 C -1.859903 2.399129 -2.108292 0
M  V30 22 C -2.116567 1.727798 -0.959484 0
M  V30 23 S 0.817556 0.396916 1.551105 0
M  V30 24 C 2.926329 -2.313865 2.328261 0
M  V30 25 C 3.891316 -1.257204 2.689432 0
M  V30 26 H 3.167524 -2.311344 4.996861 0
M  V30 27 H 4.406912 -3.505988 4.382788 0
M  V30 28 H 2.881780 -4.085967 5.199105 0
M  V30 29 H 1.501660 -5.094541 3.552785 0
M  V30 30 H 0.373160 -5.063115 1.305676 0
M  V30 31 H 0.923042 -3.201558 -0.302103 0
M  V30 32 H 3.038012 1.355524 -0.928517 0
M  V30 33 H -4.550283 0.310634 0.843985 0
M  V30 34 H -5.494508 1.526738 -1.531667 0
M  V30 35 H -4.895603 2.716582 -3.516898 0
M  V30 36 H -2.622918 3.312965 -3.974012 0
M  V30 37 H -0.908844 2.694154 -2.461847 0
M  V30 38 H 4.425685 -0.828905 1.825691 0
M  V30 39 H 4.666398 -1.749582 3.331822 0
M  V30 40 H 3.345981 -0.516202 3.293951 0
M  V30 END ATOM
M  V30 BEGIN BOND
M  V30 1 1 1 2
M  V30 2 2 2 3
M  V30 3 1 3 4
M  V30 4 2 4 5
M  V30 5 1 5 6
M  V30 6 1 6 7
M  V30 7 2 7 8
M  V30 8 1 8 9
M  V30 9 1 9 10
M  V30 10 2 10 11
M  V30 11 1 10 12
M  V30 12 2 12 13
M  V30 13 1 13 14
M  V30 14 2 14 15
M  V30 15 1 14 16
M  V30 16 1 16 17
M  V30 17 2 17 18
M  V30 18 1 18 19
M  V30 19 2 19 20
M  V30 20 1 20 21
M  V30 21 2 21 22
M  V30 22 1 12 23
M  V30 23 2 6 24
M  V30 24 1 24 25
M  V30 25 1 24 2
M  V30 26 1 23 8
M  V30 27 1 22 13
M  V30 28 1 22 17
M  V30 29 1 1 26
M  V30 30 1 1 27
M  V30 31 1 1 28
M  V30 32 1 3 29
M  V30 33 1 4 30
M  V30 34 1 5 31
M  V30 35 1 9 32
M  V30 36 1 16 33
M  V30 37 1 18 34
M  V30 38 1 19 35
M  V30 39 1 20 36
M  V30 40 1 21 37
M  V30 41 1 25 38
M  V30 42 1 25 39
M  V30 43 1 25 40
M  V30 END BOND
M  V30 END CTAB
M  END
>  <Dataset>  (741) 
ChEMBL_Kinases

>  <Ligand_Instance>  (741) 
nan

>  <PDB_ID>  (741) 
nan

>  <Standardized_SMILES>  (741) 
Cc1cccc(/N=C2/NC(=O)/C(=C3/C(=O)Nc4ccccc43)S2)c1C

>  <Name>  (741) 
nan

>  <Pocket>  (741) 
nan

>  <ATP_Site>  (741) 
nan

>  <Peripheral>  (741) 
nan

>  <Num_H_Atoms_ProtBoundConf>  (741) 
nan

>  <Num_Resolved_Atoms>  (741) 
nan

>  <Num_Not_Resolved_Atoms>  (741) 
nan

$$$$
CHEMBL4748802
     RDKit          3D

  0  0  0  0  0  0  0  0  0  0999 V3000
M  V30 BEGIN CTAB
M  V30 COUNTS 37 40 0 0 0
M  V30 BEGIN ATOM
M  V30 1 F -2.391060 -3.205344 4.168298 0
M  V30 2 C -1.577026 -4.051514 3.462168 0
M  V30 3 F -2.238979 -5.231711 3.211246 0
M  V30 4 F -0.453497 -4.312550 4.256071 0
M  V30 5 C -1.202027 -3.415809 2.178702 0
M  V30 6 C -1.536234 -4.007732 0.989266 0
M  V30 7 N -1.231886 -3.487059 -0.201987 0
M  V30 8 C -0.572017 -2.337444 -0.296853 0
M  V30 9 N -0.243781 -1.814988 -1.576745 0
M  V30 10 C 0.321473 -0.559710 -1.928903 0
M  V30 11 C 0.870856 -0.328251 -3.166731 0
M  V30 12 C 1.405625 0.890872 -3.517249 0
M  V30 13 C 1.410449 1.956849 -2.613410 0
M  V30 14 C 0.871341 1.765940 -1.369548 0
M  V30 15 C 0.354777 0.524780 -1.086132 0
M  V30 16 O 0.972940 2.946725 -0.621209 0
M  V30 17 C 1.149309 3.970509 -1.596628 0
M  V30 18 O 1.849480 3.275572 -2.625657 0
M  V30 19 N -0.249449 -1.766696 0.875273 0
M  V30 20 C -0.516894 -2.223912 2.087110 0
M  V30 21 N -0.136371 -1.541471 3.297607 0
M  V30 22 C 0.561338 -0.382238 3.762295 0
M  V30 23 C 1.993406 -0.139474 3.695259 0
M  V30 24 C 1.235271 0.356161 2.553553 0
M  V30 25 H -2.077412 -4.949598 1.050203 0
M  V30 26 H -0.445374 -2.446242 -2.410007 0
M  V30 27 H 0.904212 -1.110238 -3.927422 0
M  V30 28 H 1.833547 1.050018 -4.496850 0
M  V30 29 H -0.083397 0.383533 -0.104545 0
M  V30 30 H 1.755582 4.776826 -1.184732 0
M  V30 31 H 0.169326 4.319934 -1.964636 0
M  V30 32 H -0.443678 -2.015832 4.203091 0
M  V30 33 H -0.068406 0.316874 4.388486 0
M  V30 34 H 2.729164 -0.967708 3.558535 0
M  V30 35 H 2.392698 0.645337 4.382706 0
M  V30 36 H 0.906335 1.377458 2.395083 0
M  V30 37 H 1.378005 -0.218292 1.617262 0
M  V30 END ATOM
M  V30 BEGIN BOND
M  V30 1 1 1 2
M  V30 2 1 2 3
M  V30 3 1 2 4
M  V30 4 1 2 5
M  V30 5 2 5 6
M  V30 6 1 6 7
M  V30 7 2 7 8
M  V30 8 1 8 9
M  V30 9 1 9 10
M  V30 10 2 10 11
M  V30 11 1 11 12
M  V30 12 2 12 13
M  V30 13 1 13 14
M  V30 14 2 14 15
M  V30 15 1 14 16
M  V30 16 1 16 17
M  V30 17 1 17 18
M  V30 18 1 8 19
M  V30 19 2 19 20
M  V30 20 1 20 21
M  V30 21 1 21 22
M  V30 22 1 22 23
M  V30 23 1 23 24
M  V30 24 1 20 5
M  V30 25 1 24 22
M  V30 26 1 15 10
M  V30 27 1 18 13
M  V30 28 1 6 25
M  V30 29 1 9 26
M  V30 30 1 11 27
M  V30 31 1 12 28
M  V30 32 1 15 29
M  V30 33 1 17 30
M  V30 34 1 17 31
M  V30 35 1 21 32
M  V30 36 1 22 33
M  V30 37 1 23 34
M  V30 38 1 23 35
M  V30 39 1 24 36
M  V30 40 1 24 37
M  V30 END BOND
M  V30 END CTAB
M  END
>  <Dataset>  (742) 
ChEMBL_Kinases

>  <Ligand_Instance>  (742) 
nan

>  <PDB_ID>  (742) 
nan

>  <Standardized_SMILES>  (742) 
FC(F)(F)c1cnc(Nc2ccc3c(c2)OCO3)nc1NC1CC1

>  <Name>  (742) 
nan

>  <Pocket>  (742) 
nan

>  <ATP_Site>  (742) 
nan

>  <Peripheral>  (742) 
nan

>  <Num_H_Atoms_ProtBoundConf>  (742) 
nan

>  <Num_Resolved_Atoms>  (742) 
nan

>  <Num_Not_Resolved_Atoms>  (742) 
nan

$$$$
CHEMBL4451419
     RDKit          3D

  0  0  0  0  0  0  0  0  0  0999 V3000
M  V30 BEGIN CTAB
M  V30 COUNTS 52 55 0 0 0
M  V30 BEGIN ATOM
M  V30 1 C -4.758118 -3.343383 2.685575 0
M  V30 2 C -3.527580 -2.680547 2.189289 0
M  V30 3 C -2.949268 -1.562691 2.748650 0
M  V30 4 C -1.782780 -0.991147 2.222509 0
M  V30 5 O -1.452082 0.127917 3.013985 0
M  V30 6 C -1.184271 -1.572809 1.092629 0
M  V30 7 C -0.048140 -0.725462 0.869179 0
M  V30 8 C 1.266528 -0.837802 1.392889 0
M  V30 9 C 2.197863 0.140427 1.123238 0
M  V30 10 C 1.840034 1.221395 0.344535 0
M  V30 11 C 2.869462 2.253752 0.076083 0 CFG=1
M  V30 12 C 2.243830 3.544108 -0.430288 0
M  V30 13 N 3.559605 2.560381 1.306947 0
M  V30 14 C 4.591596 3.535710 1.150748 0
M  V30 15 C 2.602415 2.838629 2.337718 0
M  V30 16 C 0.586616 1.387877 -0.190721 0
M  V30 17 C -0.368355 0.403818 0.074273 0
M  V30 18 C -1.782387 -2.669221 0.572533 0
M  V30 19 C -2.917822 -3.228398 1.082002 0
M  V30 20 N -3.437033 -4.316515 0.496809 0
M  V30 21 C -2.885380 -4.891186 -0.582788 0
M  V30 22 O -3.379681 -5.910964 -1.123909 0
M  V30 23 C -1.737456 -4.308468 -1.081154 0
M  V30 24 C -1.176857 -4.902159 -2.190055 0
M  V30 25 C -0.032712 -4.324097 -2.691802 0
M  V30 26 C 0.590731 -3.188798 -2.157917 0
M  V30 27 C -0.065571 -2.695305 -1.057994 0
M  V30 28 C -1.184965 -3.203044 -0.509975 0
M  V30 29 H -5.026929 -2.921184 3.672428 0
M  V30 30 H -4.626469 -4.435608 2.862048 0
M  V30 31 H -5.608434 -3.248992 1.983162 0
M  V30 32 H -3.513523 -1.224606 3.607142 0
M  V30 33 H -1.038457 0.954983 2.640382 0
M  V30 34 H 1.379272 -1.741594 1.979340 0
M  V30 35 H 3.167858 -0.027537 1.561169 0
M  V30 36 H 3.563296 1.899469 -0.686130 0
M  V30 37 H 1.927200 3.440591 -1.488472 0
M  V30 38 H 1.379889 3.841932 0.196470 0
M  V30 39 H 3.016121 4.330969 -0.340195 0
M  V30 40 H 4.978925 3.457073 0.102184 0
M  V30 41 H 5.421317 3.291222 1.832934 0
M  V30 42 H 4.153134 4.536105 1.343386 0
M  V30 43 H 2.614464 3.897035 2.670841 0
M  V30 44 H 2.859546 2.232020 3.245114 0
M  V30 45 H 1.581405 2.483796 2.042583 0
M  V30 46 H 0.345581 2.249012 -0.795797 0
M  V30 47 H -1.324643 0.580753 -0.364360 0
M  V30 48 H -4.303958 -4.756287 0.873362 0
M  V30 49 H -1.628618 -5.774990 -2.626328 0
M  V30 50 H 0.367533 -4.836036 -3.570086 0
M  V30 51 H 1.474788 -2.908203 -2.709129 0
M  V30 52 H 0.526818 -1.878481 -0.811346 0
M  V30 END ATOM
M  V30 BEGIN BOND
M  V30 1 1 1 2
M  V30 2 2 2 3
M  V30 3 1 3 4
M  V30 4 1 4 5
M  V30 5 2 4 6
M  V30 6 1 6 7
M  V30 7 2 7 8
M  V30 8 1 8 9
M  V30 9 2 9 10
M  V30 10 1 10 11
M  V30 11 1 11 12
M  V30 12 1 11 13
M  V30 13 1 13 14
M  V30 14 1 13 15
M  V30 15 1 10 16
M  V30 16 2 16 17
M  V30 17 1 6 18
M  V30 18 2 18 19
M  V30 19 1 19 20
M  V30 20 1 20 21
M  V30 21 2 21 22
M  V30 22 1 21 23
M  V30 23 2 23 24
M  V30 24 1 24 25
M  V30 25 2 25 26
M  V30 26 1 26 27
M  V30 27 2 27 28
M  V30 28 1 19 2
M  V30 29 1 28 23
M  V30 30 1 17 7
M  V30 31 1 28 18
M  V30 32 1 1 29
M  V30 33 1 1 30
M  V30 34 1 1 31
M  V30 35 1 3 32
M  V30 36 1 5 33
M  V30 37 1 8 34
M  V30 38 1 9 35
M  V30 39 1 11 36 CFG=3
M  V30 40 1 12 37
M  V30 41 1 12 38
M  V30 42 1 12 39
M  V30 43 1 14 40
M  V30 44 1 14 41
M  V30 45 1 14 42
M  V30 46 1 15 43
M  V30 47 1 15 44
M  V30 48 1 15 45
M  V30 49 1 16 46
M  V30 50 1 17 47
M  V30 51 1 20 48
M  V30 52 1 24 49
M  V30 53 1 25 50
M  V30 54 1 26 51
M  V30 55 1 27 52
M  V30 END BOND
M  V30 END CTAB
M  END
>  <Dataset>  (743) 
ChEMBL_Kinases

>  <Ligand_Instance>  (743) 
nan

>  <PDB_ID>  (743) 
nan

>  <Standardized_SMILES>  (743) 
Cc1cc(O)c(-c2ccc([C@@H](C)N(C)C)cc2)c2c1[nH]c(=O)c1ccccc12

>  <Name>  (743) 
nan

>  <Pocket>  (743) 
nan

>  <ATP_Site>  (743) 
nan

>  <Peripheral>  (743) 
nan

>  <Num_H_Atoms_ProtBoundConf>  (743) 
nan

>  <Num_Resolved_Atoms>  (743) 
nan

>  <Num_Not_Resolved_Atoms>  (743) 
nan

$$$$
CHEMBL4451418
     RDKit          3D

  0  0  0  0  0  0  0  0  0  0999 V3000
M  V30 BEGIN CTAB
M  V30 COUNTS 57 61 0 0 0
M  V30 BEGIN ATOM
M  V30 1 O 2.995143 -3.801992 5.552313 0
M  V30 2 C 3.559097 -2.997877 4.769852 0
M  V30 3 N 4.561652 -2.036549 5.083623 0
M  V30 4 C 4.769924 -1.034854 4.098212 0
M  V30 5 O 5.641653 -0.112245 4.254939 0
M  V30 6 C 3.946448 -1.121875 2.923072 0
M  V30 7 C 3.729797 -0.196231 2.014928 0
M  V30 8 C 2.851839 -0.475633 0.879803 0
M  V30 9 C 2.756166 -1.637675 0.191272 0
M  V30 10 C 1.886602 -1.800605 -0.866009 0
M  V30 11 N 1.109950 -0.758823 -1.215770 0
M  V30 12 C 1.186574 0.414047 -0.543761 0
M  V30 13 N 0.393627 1.554403 -0.858072 0
M  V30 14 C 0.500510 2.861035 -0.233879 0
M  V30 15 C -0.598313 2.931469 0.802666 0
M  V30 16 C -1.878726 2.502500 0.142740 0
M  V30 17 C -2.336935 1.137437 0.665320 0
M  V30 18 N -3.573956 0.720238 0.029728 0
M  V30 19 C -4.017469 -0.569741 0.520701 0
M  V30 20 C -3.031826 -1.632025 0.252186 0
M  V30 21 C -2.008250 -1.959828 1.141395 0
M  V30 22 C -1.188988 -2.980165 0.710077 0
M  V30 23 C -1.363862 -3.623341 -0.495957 0
M  V30 24 C -0.486194 -4.649775 -0.854330 0
M  V30 25 C -0.674675 -5.297114 -2.080562 0
M  V30 26 C -1.718527 -4.927217 -2.932476 0
M  V30 27 C -2.568179 -3.907495 -2.546928 0
M  V30 28 C -2.395601 -3.261194 -1.343215 0
M  V30 29 N -3.210156 -2.266608 -0.944858 0
M  V30 30 C -1.777493 2.404955 -1.344726 0
M  V30 31 C -0.655263 1.570685 -1.861150 0
M  V30 32 N 2.049066 0.557013 0.494363 0
M  V30 33 S 3.277824 -2.805512 2.992993 0
M  V30 34 H 5.074178 -2.116709 5.993019 0
M  V30 35 H 4.230890 0.770184 2.154607 0
M  V30 36 H 3.381372 -2.441456 0.484441 0
M  V30 37 H 1.812561 -2.731135 -1.413138 0
M  V30 38 H 1.481485 2.866934 0.286623 0
M  V30 39 H 0.408553 3.699720 -0.955054 0
M  V30 40 H -0.309020 2.190255 1.597317 0
M  V30 41 H -0.690039 3.945609 1.241877 0
M  V30 42 H -2.650415 3.267578 0.390541 0
M  V30 43 H -1.532946 0.391207 0.549033 0
M  V30 44 H -2.510417 1.268518 1.752839 0
M  V30 45 H -4.283465 1.453457 0.123417 0
M  V30 46 H -4.202057 -0.471811 1.629644 0
M  V30 47 H -5.005045 -0.797738 0.086136 0
M  V30 48 H -1.921256 -1.419386 2.070627 0
M  V30 49 H -0.381710 -3.265167 1.371977 0
M  V30 50 H 0.348431 -4.969545 -0.209157 0
M  V30 51 H -0.020546 -6.110853 -2.421153 0
M  V30 52 H -1.861596 -5.431497 -3.886571 0
M  V30 53 H -3.393860 -3.587377 -3.179583 0
M  V30 54 H -2.714436 2.023194 -1.792140 0
M  V30 55 H -1.697294 3.469460 -1.717692 0
M  V30 56 H -1.022470 0.567261 -2.131297 0
M  V30 57 H -0.210340 2.116139 -2.733714 0
M  V30 END ATOM
M  V30 BEGIN BOND
M  V30 1 2 1 2
M  V30 2 1 2 3
M  V30 3 1 3 4
M  V30 4 2 4 5
M  V30 5 1 4 6
M  V30 6 2 6 7
M  V30 7 1 7 8
M  V30 8 2 8 9
M  V30 9 1 9 10
M  V30 10 2 10 11
M  V30 11 1 11 12
M  V30 12 1 12 13
M  V30 13 1 13 14
M  V30 14 1 14 15
M  V30 15 1 15 16
M  V30 16 1 16 17
M  V30 17 1 17 18
M  V30 18 1 18 19
M  V30 19 1 19 20
M  V30 20 2 20 21
M  V30 21 1 21 22
M  V30 22 2 22 23
M  V30 23 1 23 24
M  V30 24 2 24 25
M  V30 25 1 25 26
M  V30 26 2 26 27
M  V30 27 1 27 28
M  V30 28 2 28 29
M  V30 29 1 16 30
M  V30 30 1 30 31
M  V30 31 2 12 32
M  V30 32 1 6 33
M  V30 33 1 33 2
M  V30 34 1 32 8
M  V30 35 1 31 13
M  V30 36 1 29 20
M  V30 37 1 28 23
M  V30 38 1 3 34
M  V30 39 1 7 35
M  V30 40 1 9 36
M  V30 41 1 10 37
M  V30 42 1 14 38
M  V30 43 1 14 39
M  V30 44 1 15 40
M  V30 45 1 15 41
M  V30 46 1 16 42
M  V30 47 1 17 43
M  V30 48 1 17 44
M  V30 49 1 18 45
M  V30 50 1 19 46
M  V30 51 1 19 47
M  V30 52 1 21 48
M  V30 53 1 22 49
M  V30 54 1 24 50
M  V30 55 1 25 51
M  V30 56 1 26 52
M  V30 57 1 27 53
M  V30 58 1 30 54
M  V30 59 1 30 55
M  V30 60 1 31 56
M  V30 61 1 31 57
M  V30 END BOND
M  V30 END CTAB
M  END
>  <Dataset>  (744) 
ChEMBL_Kinases

>  <Ligand_Instance>  (744) 
nan

>  <PDB_ID>  (744) 
nan

>  <Standardized_SMILES>  (744) 
O=C1NC(=O)/C(=C/c2ccnc(N3CCC(CNCc4ccc5ccccc5n4)CC3)n2)S1

>  <Name>  (744) 
nan

>  <Pocket>  (744) 
nan

>  <ATP_Site>  (744) 
nan

>  <Peripheral>  (744) 
nan

>  <Num_H_Atoms_ProtBoundConf>  (744) 
nan

>  <Num_Resolved_Atoms>  (744) 
nan

>  <Num_Not_Resolved_Atoms>  (744) 
nan

$$$$
CHEMBL4748954
     RDKit          3D

  0  0  0  0  0  0  0  0  0  0999 V3000
M  V30 BEGIN CTAB
M  V30 COUNTS 36 39 0 0 0
M  V30 BEGIN ATOM
M  V30 1 O 0.057640 -2.169326 3.342710 0
M  V30 2 C 0.633446 -1.668234 2.349241 0
M  V30 3 C 1.513516 -2.462536 1.641520 0
M  V30 4 N 1.737669 -3.736545 2.018127 0
M  V30 5 C 2.608534 -4.505651 1.309024 0
M  V30 6 C 3.302105 -4.059713 0.194293 0
M  V30 7 C 3.076117 -2.752239 -0.197365 0
M  V30 8 C 2.193254 -1.999083 0.535303 0
M  V30 9 N 1.953052 -0.731042 0.182237 0
M  V30 10 C 2.416171 0.024906 -0.799736 0
M  V30 11 S 3.463147 -0.235613 -1.997061 0
M  V30 12 N 1.865222 1.247615 -0.733327 0
M  V30 13 N 1.030423 1.268546 0.318345 0
M  V30 14 C 1.094533 0.035149 0.877123 0
M  V30 15 N 0.419575 -0.395722 1.960304 0
M  V30 16 C -0.510906 0.421042 2.719661 0
M  V30 17 C -1.928122 0.300955 2.181873 0
M  V30 18 C -2.037476 0.724128 0.787040 0
M  V30 19 C -2.314067 2.020321 0.408094 0
M  V30 20 C -2.409700 2.379447 -0.920080 0
M  V30 21 C -2.210515 1.357085 -1.842668 0
M  V30 22 C -1.927363 0.024075 -1.536372 0
M  V30 23 C -1.846037 -0.264689 -0.183313 0
M  V30 24 H 2.765646 -5.526810 1.639610 0
M  V30 25 H 3.984633 -4.711471 -0.336015 0
M  V30 26 H 3.629384 -2.446395 -1.060681 0
M  V30 27 H 1.935284 2.138293 -1.284958 0
M  V30 28 H -0.510229 0.155918 3.795388 0
M  V30 29 H -0.177463 1.473201 2.580977 0
M  V30 30 H -2.576820 0.937191 2.806738 0
M  V30 31 H -2.231738 -0.766269 2.338101 0
M  V30 32 H -2.461987 2.784079 1.154077 0
M  V30 33 H -2.622277 3.371461 -1.267319 0
M  V30 34 H -2.284166 1.632008 -2.887965 0
M  V30 35 H -1.791919 -0.683460 -2.329910 0
M  V30 36 H -1.624903 -1.307493 0.031968 0
M  V30 END ATOM
M  V30 BEGIN BOND
M  V30 1 2 1 2
M  V30 2 1 2 3
M  V30 3 2 3 4
M  V30 4 1 4 5
M  V30 5 2 5 6
M  V30 6 1 6 7
M  V30 7 2 7 8
M  V30 8 1 8 9
M  V30 9 1 9 10
M  V30 10 2 10 11
M  V30 11 1 10 12
M  V30 12 1 12 13
M  V30 13 2 13 14
M  V30 14 1 14 15
M  V30 15 1 15 16
M  V30 16 1 16 17
M  V30 17 1 17 18
M  V30 18 2 18 19
M  V30 19 1 19 20
M  V30 20 2 20 21
M  V30 21 1 21 22
M  V30 22 2 22 23
M  V30 23 1 15 2
M  V30 24 1 23 18
M  V30 25 1 8 3
M  V30 26 1 14 9
M  V30 27 1 5 24
M  V30 28 1 6 25
M  V30 29 1 7 26
M  V30 30 1 12 27
M  V30 31 1 16 28
M  V30 32 1 16 29
M  V30 33 1 17 30
M  V30 34 1 17 31
M  V30 35 1 19 32
M  V30 36 1 20 33
M  V30 37 1 21 34
M  V30 38 1 22 35
M  V30 39 1 23 36
M  V30 END BOND
M  V30 END CTAB
M  END
>  <Dataset>  (745) 
ChEMBL_Kinases

>  <Ligand_Instance>  (745) 
nan

>  <PDB_ID>  (745) 
nan

>  <Standardized_SMILES>  (745) 
O=c1c2ncccc2n2c(=S)[nH]nc2n1CCc1ccccc1

>  <Name>  (745) 
nan

>  <Pocket>  (745) 
nan

>  <ATP_Site>  (745) 
nan

>  <Peripheral>  (745) 
nan

>  <Num_H_Atoms_ProtBoundConf>  (745) 
nan

>  <Num_Resolved_Atoms>  (745) 
nan

>  <Num_Not_Resolved_Atoms>  (745) 
nan

$$$$
CHEMBL4451405
     RDKit          3D

  0  0  0  0  0  0  0  0  0  0999 V3000
M  V30 BEGIN CTAB
M  V30 COUNTS 50 53 0 0 0
M  V30 BEGIN ATOM
M  V30 1 C 4.396237 -3.772407 -2.652276 0
M  V30 2 N 5.374519 -3.134630 -1.791073 0
M  V30 3 N 6.646052 -3.532037 -1.850047 0
M  V30 4 C 7.370478 -2.802837 -0.965465 0
M  V30 5 C 6.523514 -1.918619 -0.330942 0
M  V30 6 Cl 6.738703 -0.688353 0.905785 0
M  V30 7 C 5.284258 -2.150403 -0.868318 0
M  V30 8 C 3.999196 -1.517623 -0.586631 0
M  V30 9 C 3.579619 -1.281278 0.710047 0
M  V30 10 C 2.368803 -0.684295 1.007426 0
M  V30 11 C 1.532156 -0.302437 -0.027942 0
M  V30 12 C 0.222546 0.337941 0.079993 0
M  V30 13 O -0.488515 0.659888 -0.903789 0
M  V30 14 N -0.322694 0.635585 1.381095 0
M  V30 15 C -1.618673 1.268662 1.462988 0 CFG=2
M  V30 16 C -1.481727 2.550721 2.249069 0
M  V30 17 N -1.643988 2.224880 3.661805 0
M  V30 18 C -3.062698 2.129209 3.912553 0
M  V30 19 C -3.672512 1.197081 2.914707 0
M  V30 20 C -2.598824 0.371661 2.216549 0 CFG=1
M  V30 21 C -3.267491 -0.574096 1.271369 0
M  V30 22 C -3.938693 0.082011 0.253633 0
M  V30 23 C -4.610077 -0.648515 -0.704776 0
M  V30 24 C -4.606689 -2.031702 -0.640338 0
M  V30 25 F -5.262572 -2.763947 -1.575827 0
M  V30 26 C -3.932467 -2.687292 0.381826 0
M  V30 27 F -3.908785 -4.039968 0.474877 0
M  V30 28 C -3.259503 -1.953365 1.342420 0
M  V30 29 C 1.975939 -0.550712 -1.330486 0
M  V30 30 N 3.174882 -1.141457 -1.609482 0
M  V30 31 H 4.536249 -4.866336 -2.706297 0
M  V30 32 H 4.445681 -3.296184 -3.662012 0
M  V30 33 H 3.400320 -3.491292 -2.232555 0
M  V30 34 H 8.430206 -2.805157 -0.698606 0
M  V30 35 H 4.216999 -1.571361 1.532301 0
M  V30 36 H 1.994897 -0.478001 1.987818 0
M  V30 37 H 0.180609 0.412380 2.266163 0
M  V30 38 H -2.039994 1.449017 0.458918 0
M  V30 39 H -2.270978 3.275465 1.956026 0
M  V30 40 H -0.454181 2.917516 2.125192 0
M  V30 41 H -1.167831 1.346216 3.898666 0
M  V30 42 H -3.248799 1.826786 4.959803 0
M  V30 43 H -3.468810 3.174292 3.797089 0
M  V30 44 H -4.333785 1.704733 2.192495 0
M  V30 45 H -4.292190 0.459829 3.466361 0
M  V30 46 H -2.093850 -0.227028 2.986594 0
M  V30 47 H -4.022128 1.143608 0.084996 0
M  V30 48 H -5.164277 -0.206274 -1.540823 0
M  V30 49 H -2.715501 -2.370077 2.162338 0
M  V30 50 H 1.457892 -0.321233 -2.253956 0
M  V30 END ATOM
M  V30 BEGIN BOND
M  V30 1 1 1 2
M  V30 2 1 2 3
M  V30 3 2 3 4
M  V30 4 1 4 5
M  V30 5 1 5 6
M  V30 6 2 5 7
M  V30 7 1 7 8
M  V30 8 2 8 9
M  V30 9 1 9 10
M  V30 10 2 10 11
M  V30 11 1 11 12
M  V30 12 2 12 13
M  V30 13 1 12 14
M  V30 14 1 14 15
M  V30 15 1 15 16
M  V30 16 1 16 17
M  V30 17 1 17 18
M  V30 18 1 18 19
M  V30 19 1 19 20
M  V30 20 1 20 21
M  V30 21 2 21 22
M  V30 22 1 22 23
M  V30 23 2 23 24
M  V30 24 1 24 25
M  V30 25 1 24 26
M  V30 26 1 26 27
M  V30 27 2 26 28
M  V30 28 1 11 29
M  V30 29 2 29 30
M  V30 30 1 7 2
M  V30 31 1 30 8
M  V30 32 1 20 15
M  V30 33 1 28 21
M  V30 34 1 1 31
M  V30 35 1 1 32
M  V30 36 1 1 33
M  V30 37 1 4 34
M  V30 38 1 9 35
M  V30 39 1 10 36
M  V30 40 1 14 37
M  V30 41 1 15 38 CFG=3
M  V30 42 1 16 39
M  V30 43 1 16 40
M  V30 44 1 17 41
M  V30 45 1 18 42
M  V30 46 1 18 43
M  V30 47 1 19 44
M  V30 48 1 19 45
M  V30 49 1 20 46 CFG=1
M  V30 50 1 22 47
M  V30 51 1 23 48
M  V30 52 1 28 49
M  V30 53 1 29 50
M  V30 END BOND
M  V30 END CTAB
M  END
>  <Dataset>  (746) 
ChEMBL_Kinases

>  <Ligand_Instance>  (746) 
nan

>  <PDB_ID>  (746) 
nan

>  <Standardized_SMILES>  (746) 
Cn1ncc(Cl)c1-c1ccc(C(=O)N[C@@H]2CNCC[C@H]2c2ccc(F)c(F)c2)cn1

>  <Name>  (746) 
nan

>  <Pocket>  (746) 
nan

>  <ATP_Site>  (746) 
nan

>  <Peripheral>  (746) 
nan

>  <Num_H_Atoms_ProtBoundConf>  (746) 
nan

>  <Num_Resolved_Atoms>  (746) 
nan

>  <Num_Not_Resolved_Atoms>  (746) 
nan

$$$$
CHEMBL4451350
     RDKit          3D

  0  0  0  0  0  0  0  0  0  0999 V3000
M  V30 BEGIN CTAB
M  V30 COUNTS 45 48 0 0 0
M  V30 BEGIN ATOM
M  V30 1 C 0.938246 -5.930943 2.912755 0
M  V30 2 O -0.143473 -5.561830 2.078496 0
M  V30 3 C 0.073340 -4.535379 1.116531 0
M  V30 4 C 1.361273 -4.101907 1.139312 0
M  V30 5 C 1.632722 -3.063041 0.225952 0
M  V30 6 C 0.723949 -2.545672 -0.600685 0
M  V30 7 C 0.492784 -1.278073 -1.259756 0
M  V30 8 C 0.768020 -0.420648 -0.203031 0
M  V30 9 N 0.573670 0.883010 -0.383534 0
M  V30 10 C 0.126942 1.450873 -1.533666 0
M  V30 11 C -0.126921 2.754293 -1.758138 0
M  V30 12 C -0.026083 3.750937 -0.601057 0
M  V30 13 C 0.516872 3.639016 0.548707 0
M  V30 14 C 1.107463 3.588686 1.866221 0
M  V30 15 C 2.151089 2.875624 2.458016 0
M  V30 16 C 2.317854 2.875905 3.810723 0
M  V30 17 C 1.437642 3.582253 4.570755 0
M  V30 18 C 0.382673 4.319442 4.099041 0
M  V30 19 C 0.224612 4.317231 2.713027 0
M  V30 20 S -0.690684 2.983503 -3.308198 0
M  V30 21 N -0.615792 1.154862 -3.809452 0
M  V30 22 C -0.135016 0.630294 -2.589311 0
M  V30 23 C 0.058566 -0.737945 -2.403382 0
M  V30 24 C -0.593720 -3.017082 -0.612242 0
M  V30 25 C -0.961415 -4.092475 0.314555 0
M  V30 26 O -2.251379 -4.626559 0.415787 0
M  V30 27 C -3.270181 -4.083025 -0.354216 0
M  V30 28 H 1.719706 -6.551135 2.444680 0
M  V30 29 H 0.578857 -6.466122 3.823421 0
M  V30 30 H 1.402289 -5.013969 3.334774 0
M  V30 31 H 2.234044 -4.361762 1.656815 0
M  V30 32 H 2.567563 -2.528352 0.000692 0
M  V30 33 H 1.161593 -0.536481 0.835007 0
M  V30 34 H -0.325935 4.744864 -0.320900 0
M  V30 35 H 0.923343 2.645474 0.385693 0
M  V30 36 H 2.762965 2.383829 1.690372 0
M  V30 37 H 3.182894 2.281572 4.005062 0
M  V30 38 H 1.697631 3.500952 5.618807 0
M  V30 39 H -0.218012 4.816097 4.882702 0
M  V30 40 H -0.659926 4.928380 2.476522 0
M  V30 41 H -0.096327 -1.498639 -3.110918 0
M  V30 42 H -1.472165 -2.750754 -1.205569 0
M  V30 43 H -4.233394 -4.268511 0.186554 0
M  V30 44 H -3.244340 -4.527039 -1.369986 0
M  V30 45 H -3.225008 -2.982758 -0.466794 0
M  V30 END ATOM
M  V30 BEGIN BOND
M  V30 1 1 1 2
M  V30 2 1 2 3
M  V30 3 2 3 4
M  V30 4 1 4 5
M  V30 5 2 5 6
M  V30 6 1 6 7
M  V30 7 1 7 8
M  V30 8 2 8 9
M  V30 9 1 9 10
M  V30 10 2 10 11
M  V30 11 1 11 12
M  V30 12 2 12 13
M  V30 13 1 13 14
M  V30 14 2 14 15
M  V30 15 1 15 16
M  V30 16 2 16 17
M  V30 17 1 17 18
M  V30 18 2 18 19
M  V30 19 1 11 20
M  V30 20 1 20 21
M  V30 21 2 21 22
M  V30 22 1 22 23
M  V30 23 1 6 24
M  V30 24 2 24 25
M  V30 25 1 25 26
M  V30 26 1 26 27
M  V30 27 1 25 3
M  V30 28 2 23 7
M  V30 29 1 22 10
M  V30 30 1 19 14
M  V30 31 1 1 28
M  V30 32 1 1 29
M  V30 33 1 1 30
M  V30 34 1 4 31
M  V30 35 1 5 32
M  V30 36 1 8 33
M  V30 37 1 12 34
M  V30 38 1 13 35
M  V30 39 1 15 36
M  V30 40 1 16 37
M  V30 41 1 17 38
M  V30 42 1 18 39
M  V30 43 1 19 40
M  V30 44 1 23 41
M  V30 45 1 24 42
M  V30 46 1 27 43
M  V30 47 1 27 44
M  V30 48 1 27 45
M  V30 END BOND
M  V30 END CTAB
M  END
>  <Dataset>  (747) 
ChEMBL_Kinases

>  <Ligand_Instance>  (747) 
nan

>  <PDB_ID>  (747) 
nan

>  <Standardized_SMILES>  (747) 
COc1ccc(-c2cnc3c(/C=C/c4ccccc4)snc3c2)cc1OC

>  <Name>  (747) 
nan

>  <Pocket>  (747) 
nan

>  <ATP_Site>  (747) 
nan

>  <Peripheral>  (747) 
nan

>  <Num_H_Atoms_ProtBoundConf>  (747) 
nan

>  <Num_Resolved_Atoms>  (747) 
nan

>  <Num_Not_Resolved_Atoms>  (747) 
nan

$$$$
CHEMBL4451197
     RDKit          3D

  0  0  0  0  0  0  0  0  0  0999 V3000
M  V30 BEGIN CTAB
M  V30 COUNTS 49 53 0 0 0
M  V30 BEGIN ATOM
M  V30 1 O -0.973272 -3.340666 2.160721 0
M  V30 2 C -0.956775 -2.103987 2.249093 0
M  V30 3 C 0.213018 -1.401111 1.679988 0
M  V30 4 C 1.193139 -2.060367 1.105106 0
M  V30 5 C 2.389878 -1.472175 0.512614 0
M  V30 6 C 3.368996 -2.251905 -0.071217 0
M  V30 7 N 4.474762 -1.722105 -0.619728 0
M  V30 8 C 4.697966 -0.397571 -0.634761 0
M  V30 9 N 5.711104 0.347707 -1.116964 0
M  V30 10 C 5.425250 1.656716 -0.861565 0
M  V30 11 C 4.201554 1.748080 -0.201255 0
M  V30 12 C 3.539536 2.969529 0.248249 0
M  V30 13 C 2.951762 3.143142 1.484286 0
M  V30 14 C 2.339525 4.322434 1.853839 0
M  V30 15 C 2.293832 5.390115 0.980774 0
M  V30 16 C 2.875689 5.234603 -0.257840 0
M  V30 17 C 3.486949 4.059167 -0.628620 0
M  V30 18 C 3.762931 0.445068 -0.069515 0
M  V30 19 C 2.634333 -0.115182 0.488789 0
M  V30 20 N -1.977533 -1.318498 2.855614 0
M  V30 21 C -3.112839 -1.998463 3.408100 0
M  V30 22 C -3.778781 -2.754248 2.311786 0
M  V30 23 N -3.554430 -4.005039 1.906114 0
M  V30 24 C -4.348571 -4.332667 0.894019 0
M  V30 25 C -4.512703 -5.476686 0.130718 0
M  V30 26 C -5.420384 -5.560335 -0.876360 0
M  V30 27 C -6.185815 -4.450314 -1.117813 0
M  V30 28 C -6.085750 -3.263474 -0.400511 0
M  V30 29 C -5.140389 -3.235193 0.618080 0
M  V30 30 N -4.747429 -2.295398 1.519261 0
M  V30 31 H 0.293059 -0.323649 1.721916 0
M  V30 32 H 1.090384 -3.127750 1.076101 0
M  V30 33 H 3.248916 -3.331021 -0.091925 0
M  V30 34 H 6.571494 -0.013462 -1.604561 0
M  V30 35 H 6.044474 2.509855 -1.125058 0
M  V30 36 H 2.981287 2.318498 2.172630 0
M  V30 37 H 1.891716 4.387990 2.856872 0
M  V30 38 H 1.794078 6.295090 1.335476 0
M  V30 39 H 2.797742 6.119702 -0.886449 0
M  V30 40 H 3.924927 4.026730 -1.638738 0
M  V30 41 H 1.937296 0.562669 0.913976 0
M  V30 42 H -1.923626 -0.261959 2.909886 0
M  V30 43 H -3.874368 -1.336813 3.827964 0
M  V30 44 H -2.801648 -2.679098 4.225924 0
M  V30 45 H -3.868056 -6.308281 0.387204 0
M  V30 46 H -5.495926 -6.480692 -1.430427 0
M  V30 47 H -6.918682 -4.490592 -1.916899 0
M  V30 48 H -6.692654 -2.391100 -0.595937 0
M  V30 49 H -5.173067 -1.344746 1.556643 0
M  V30 END ATOM
M  V30 BEGIN BOND
M  V30 1 2 1 2
M  V30 2 1 2 3
M  V30 3 2 3 4
M  V30 4 1 4 5
M  V30 5 2 5 6
M  V30 6 1 6 7
M  V30 7 2 7 8
M  V30 8 1 8 9
M  V30 9 1 9 10
M  V30 10 2 10 11
M  V30 11 1 11 12
M  V30 12 2 12 13
M  V30 13 1 13 14
M  V30 14 2 14 15
M  V30 15 1 15 16
M  V30 16 2 16 17
M  V30 17 1 11 18
M  V30 18 2 18 19
M  V30 19 1 2 20
M  V30 20 1 20 21
M  V30 21 1 21 22
M  V30 22 2 22 23
M  V30 23 1 23 24
M  V30 24 2 24 25
M  V30 25 1 25 26
M  V30 26 2 26 27
M  V30 27 1 27 28
M  V30 28 2 28 29
M  V30 29 1 29 30
M  V30 30 1 19 5
M  V30 31 1 30 22
M  V30 32 1 18 8
M  V30 33 1 29 24
M  V30 34 1 17 12
M  V30 35 1 3 31
M  V30 36 1 4 32
M  V30 37 1 6 33
M  V30 38 1 9 34
M  V30 39 1 10 35
M  V30 40 1 13 36
M  V30 41 1 14 37
M  V30 42 1 15 38
M  V30 43 1 16 39
M  V30 44 1 17 40
M  V30 45 1 19 41
M  V30 46 1 20 42
M  V30 47 1 21 43
M  V30 48 1 21 44
M  V30 49 1 25 45
M  V30 50 1 26 46
M  V30 51 1 27 47
M  V30 52 1 28 48
M  V30 53 1 30 49
M  V30 END BOND
M  V30 END CTAB
M  END
>  <Dataset>  (748) 
ChEMBL_Kinases

>  <Ligand_Instance>  (748) 
nan

>  <PDB_ID>  (748) 
nan

>  <Standardized_SMILES>  (748) 
O=C(/C=C/c1cnc2[nH]cc(-c3ccccc3)c2c1)NCc1nc2ccccc2[nH]1

>  <Name>  (748) 
nan

>  <Pocket>  (748) 
nan

>  <ATP_Site>  (748) 
nan

>  <Peripheral>  (748) 
nan

>  <Num_H_Atoms_ProtBoundConf>  (748) 
nan

>  <Num_Resolved_Atoms>  (748) 
nan

>  <Num_Not_Resolved_Atoms>  (748) 
nan

$$$$
CHEMBL4451160
     RDKit          3D

  0  0  0  0  0  0  0  0  0  0999 V3000
M  V30 BEGIN CTAB
M  V30 COUNTS 29 30 0 0 0
M  V30 BEGIN ATOM
M  V30 1 C -2.866434 -1.527166 1.465559 0
M  V30 2 C -2.460660 -2.386593 2.672336 0
M  V30 3 N -1.435490 -1.640076 3.422074 0
M  V30 4 C -0.338590 -1.458949 2.505778 0
M  V30 5 S -0.131410 -0.125218 1.268044 0
M  V30 6 C 1.432898 -0.707478 0.660474 0
M  V30 7 C 2.203617 -0.091452 -0.376098 0
M  V30 8 O 3.287208 -0.421802 -0.832064 0
M  V30 9 C 1.630278 1.111205 -0.995426 0
M  V30 10 C 2.174609 1.954710 -2.020797 0
M  V30 11 C 1.430837 3.001262 -2.415725 0
M  V30 12 C 0.141217 3.275900 -1.842982 0
M  V30 13 Cl -0.975022 4.532055 -2.181823 0
M  V30 14 S -0.030550 1.882478 -0.599356 0
M  V30 15 C 1.705994 -1.806022 1.371887 0
M  V30 16 N 2.931507 -2.530997 1.118608 0
M  V30 17 C 0.824478 -2.225478 2.327751 0
M  V30 18 C 0.987209 -3.394122 3.173577 0
M  V30 19 N 1.134527 -4.339008 3.863681 0
M  V30 20 H -3.861546 -1.786753 1.091888 0
M  V30 21 H -2.140530 -1.734887 0.643621 0
M  V30 22 H -2.803911 -0.444481 1.733751 0
M  V30 23 H -3.321804 -2.517154 3.321881 0
M  V30 24 H -2.065464 -3.343796 2.301995 0
M  V30 25 H -1.402616 -1.270859 4.407483 0
M  V30 26 H 3.139680 1.717972 -2.421233 0
M  V30 27 H 1.744814 3.699238 -3.174114 0
M  V30 28 H 3.724865 -2.136416 1.669261 0
M  V30 29 H 3.063185 -3.338514 0.488661 0
M  V30 END ATOM
M  V30 BEGIN BOND
M  V30 1 1 1 2
M  V30 2 1 2 3
M  V30 3 1 3 4
M  V30 4 1 4 5
M  V30 5 1 5 6
M  V30 6 1 6 7
M  V30 7 2 7 8
M  V30 8 1 7 9
M  V30 9 2 9 10
M  V30 10 1 10 11
M  V30 11 2 11 12
M  V30 12 1 12 13
M  V30 13 1 12 14
M  V30 14 2 6 15
M  V30 15 1 15 16
M  V30 16 1 15 17
M  V30 17 1 17 18
M  V30 18 3 18 19
M  V30 19 2 17 4
M  V30 20 1 14 9
M  V30 21 1 1 20
M  V30 22 1 1 21
M  V30 23 1 1 22
M  V30 24 1 2 23
M  V30 25 1 2 24
M  V30 26 1 3 25
M  V30 27 1 10 26
M  V30 28 1 11 27
M  V30 29 1 16 28
M  V30 30 1 16 29
M  V30 END BOND
M  V30 END CTAB
M  END
>  <Dataset>  (749) 
ChEMBL_Kinases

>  <Ligand_Instance>  (749) 
nan

>  <PDB_ID>  (749) 
nan

>  <Standardized_SMILES>  (749) 
CCNc1sc(C(=O)c2ccc(Cl)s2)c(N)c1C#N

>  <Name>  (749) 
nan

>  <Pocket>  (749) 
nan

>  <ATP_Site>  (749) 
nan

>  <Peripheral>  (749) 
nan

>  <Num_H_Atoms_ProtBoundConf>  (749) 
nan

>  <Num_Resolved_Atoms>  (749) 
nan

>  <Num_Not_Resolved_Atoms>  (749) 
nan

$$$$
CHEMBL4748993
     RDKit          3D

  0  0  0  0  0  0  0  0  0  0999 V3000
M  V30 BEGIN CTAB
M  V30 COUNTS 70 74 0 0 0
M  V30 BEGIN ATOM
M  V30 1 N 1.014542 -5.604101 4.377073 0
M  V30 2 C 2.325035 -5.199794 4.017090 0
M  V30 3 O 3.391313 -5.733155 4.474558 0
M  V30 4 C 2.461148 -4.165822 3.116471 0
M  V30 5 S 4.048197 -3.497526 2.519510 0
M  V30 6 C 3.225579 -2.203395 1.404135 0
M  V30 7 C 4.088315 -1.335768 0.637536 0
M  V30 8 C 5.465451 -1.382681 0.645186 0
M  V30 9 C 6.067723 -0.449249 -0.172507 0
M  V30 10 N 5.394337 0.427460 -0.910880 0
M  V30 11 C 4.034525 0.489389 -0.931664 0
M  V30 12 N 3.311791 1.425961 -1.720838 0
M  V30 13 C 2.811373 1.335665 -3.039584 0
M  V30 14 O 2.887064 0.370927 -3.865302 0
M  V30 15 C 2.078750 2.480919 -3.631622 0
M  V30 16 C 0.890614 2.228713 -4.503358 0
M  V30 17 C 2.220645 2.782483 -5.101048 0
M  V30 18 C 3.376694 -0.438815 -0.117369 0
M  V30 19 N 1.998830 -2.397428 1.585397 0
M  V30 20 C 1.584638 -3.340198 2.408455 0
M  V30 21 O 0.214991 -3.586340 2.635749 0
M  V30 22 C -0.807405 -2.827718 1.986891 0
M  V30 23 C -2.113733 -3.375425 2.470238 0
M  V30 24 C -3.308427 -2.722735 1.929464 0
M  V30 25 C -3.664737 -2.721941 0.519426 0
M  V30 26 C -2.808804 -2.145070 -0.525719 0
M  V30 27 C -2.473893 -0.686455 -0.293537 0
M  V30 28 N -3.613890 0.013204 0.278277 0
M  V30 29 C -3.591193 1.419347 -0.043608 0
M  V30 30 C -2.362300 2.050562 0.499320 0
M  V30 31 C -1.240211 2.411324 -0.215834 0
M  V30 32 C -0.146723 2.992072 0.381556 0
M  V30 33 C -0.268815 3.183221 1.761042 0
M  V30 34 C -1.351473 2.846604 2.515706 0
M  V30 35 C -2.431937 2.261633 1.861958 0
M  V30 36 F -3.492911 1.941515 2.655076 0
M  V30 37 C -4.881118 -0.605087 -0.034189 0
M  V30 38 C -5.035684 -2.014284 0.427535 0
M  V30 39 H 0.179268 -5.516175 4.973740 0
M  V30 40 H 0.179033 -6.214615 4.232215 0
M  V30 41 H 5.948903 -2.112212 1.261462 0
M  V30 42 H 7.168409 -0.456829 -0.192089 0
M  V30 43 H 3.137532 2.329876 -1.202006 0
M  V30 44 H 1.960575 3.385244 -2.969829 0
M  V30 45 H 0.029685 2.935023 -4.514580 0
M  V30 46 H 0.685419 1.161192 -4.760014 0
M  V30 47 H 2.810249 2.077052 -5.707345 0
M  V30 48 H 2.160350 3.818330 -5.452569 0
M  V30 49 H 2.301740 -0.364425 -0.155548 0
M  V30 50 H -0.631779 -1.776858 2.371786 0
M  V30 51 H -0.650440 -2.766646 0.919242 0
M  V30 52 H -2.096159 -3.239077 3.603740 0
M  V30 53 H -2.137221 -4.500266 2.395338 0
M  V30 54 H -4.217978 -3.167987 2.474567 0
M  V30 55 H -3.350726 -1.655133 2.362043 0
M  V30 56 H -3.888019 -3.785899 0.212489 0
M  V30 57 H -1.953826 -2.672348 -0.879699 0
M  V30 58 H -3.491442 -2.091643 -1.459016 0
M  V30 59 H -2.237069 -0.243506 -1.281108 0
M  V30 60 H -1.631272 -0.575715 0.381066 0
M  V30 61 H -3.553994 1.510617 -1.146944 0
M  V30 62 H -4.453235 1.969712 0.323452 0
M  V30 63 H -1.271437 2.208326 -1.285452 0
M  V30 64 H 0.723866 3.272631 -0.171519 0
M  V30 65 H 0.567686 3.642082 2.300134 0
M  V30 66 H -1.378011 3.023840 3.579968 0
M  V30 67 H -5.662229 0.017116 0.419182 0
M  V30 68 H -5.015819 -0.517156 -1.147451 0
M  V30 69 H -5.543033 -2.010703 1.411143 0
M  V30 70 H -5.705557 -2.546182 -0.278484 0
M  V30 END ATOM
M  V30 BEGIN BOND
M  V30 1 1 1 2
M  V30 2 2 2 3
M  V30 3 1 2 4
M  V30 4 1 4 5
M  V30 5 1 5 6
M  V30 6 1 6 7
M  V30 7 2 7 8
M  V30 8 1 8 9
M  V30 9 2 9 10
M  V30 10 1 10 11
M  V30 11 1 11 12
M  V30 12 1 12 13
M  V30 13 2 13 14
M  V30 14 1 13 15
M  V30 15 1 15 16
M  V30 16 1 16 17
M  V30 17 2 11 18
M  V30 18 2 6 19
M  V30 19 1 19 20
M  V30 20 1 20 21
M  V30 21 1 21 22
M  V30 22 1 22 23
M  V30 23 1 23 24
M  V30 24 1 24 25
M  V30 25 1 25 26
M  V30 26 1 26 27
M  V30 27 1 27 28
M  V30 28 1 28 29
M  V30 29 1 29 30
M  V30 30 2 30 31
M  V30 31 1 31 32
M  V30 32 2 32 33
M  V30 33 1 33 34
M  V30 34 2 34 35
M  V30 35 1 35 36
M  V30 36 1 28 37
M  V30 37 1 37 38
M  V30 38 2 20 4
M  V30 39 1 38 25
M  V30 40 1 18 7
M  V30 41 1 35 30
M  V30 42 1 17 15
M  V30 43 1 1 39
M  V30 44 1 1 40
M  V30 45 1 8 41
M  V30 46 1 9 42
M  V30 47 1 12 43
M  V30 48 1 15 44
M  V30 49 1 16 45
M  V30 50 1 16 46
M  V30 51 1 17 47
M  V30 52 1 17 48
M  V30 53 1 18 49
M  V30 54 1 22 50
M  V30 55 1 22 51
M  V30 56 1 23 52
M  V30 57 1 23 53
M  V30 58 1 24 54
M  V30 59 1 24 55
M  V30 60 1 25 56
M  V30 61 1 26 57
M  V30 62 1 26 58
M  V30 63 1 27 59
M  V30 64 1 27 60
M  V30 65 1 29 61
M  V30 66 1 29 62
M  V30 67 1 31 63
M  V30 68 1 32 64
M  V30 69 1 33 65
M  V30 70 1 34 66
M  V30 71 1 37 67
M  V30 72 1 37 68
M  V30 73 1 38 69
M  V30 74 1 38 70
M  V30 END BOND
M  V30 END CTAB
M  END
>  <Dataset>  (750) 
ChEMBL_Kinases

>  <Ligand_Instance>  (750) 
nan

>  <PDB_ID>  (750) 
nan

>  <Standardized_SMILES>  (750) 
NC(=O)c1sc(-c2ccnc(NC(=O)C3CC3)c2)nc1OCCCC1CCN(Cc2ccccc2F)CC1

>  <Name>  (750) 
nan

>  <Pocket>  (750) 
nan

>  <ATP_Site>  (750) 
nan

>  <Peripheral>  (750) 
nan

>  <Num_H_Atoms_ProtBoundConf>  (750) 
nan

>  <Num_Resolved_Atoms>  (750) 
nan

>  <Num_Not_Resolved_Atoms>  (750) 
nan

$$$$
CHEMBL4451151
     RDKit          3D

  0  0  0  0  0  0  0  0  0  0999 V3000
M  V30 BEGIN CTAB
M  V30 COUNTS 51 55 0 0 0
M  V30 BEGIN ATOM
M  V30 1 H -6.966599 -1.009129 1.868612 0 MASS=2
M  V30 2 C -6.367597 -1.821858 1.445964 0
M  V30 3 H -6.508698 -2.786843 1.962996 0 MASS=2
M  V30 4 H -6.725130 -2.011536 0.394840 0 MASS=2
M  V30 5 C -4.911214 -1.489250 1.391291 0
M  V30 6 C -3.956563 -2.484339 1.392139 0
M  V30 7 N -2.629842 -2.278409 1.345182 0
M  V30 8 C -2.204319 -1.008999 1.293674 0
M  V30 9 C -0.683314 -0.936818 1.253429 0
M  V30 10 C -0.224126 -1.157740 -0.120744 0
M  V30 11 N -0.543854 -2.471387 -0.386288 0
M  V30 12 C -0.151583 -2.797028 -1.640248 0
M  V30 13 C -0.263210 -3.985080 -2.330178 0
M  V30 14 N 0.231521 -3.986421 -3.577969 0
M  V30 15 C 0.801141 -2.893193 -4.118941 0
M  V30 16 C 1.266493 -3.033582 -5.396389 0
M  V30 17 C 1.859674 -1.935591 -5.981112 0
M  V30 18 C 1.963801 -0.738819 -5.262706 0
M  V30 19 Cl 2.733566 0.589520 -6.099444 0
M  V30 20 C 1.461393 -0.705567 -3.980497 0
M  V30 21 C 0.863040 -1.765563 -3.353157 0
M  V30 22 C 0.405411 -1.596563 -2.063450 0
M  V30 23 N 0.378820 -0.583329 -1.170698 0
M  V30 24 C 0.858981 0.731805 -1.297102 0 CFG=2
M  V30 25 C 2.346188 0.936375 -0.976025 0
M  V30 26 C 2.571277 2.370887 -0.473780 0
M  V30 27 O 1.719732 3.239665 -1.115773 0
M  V30 28 C 0.456650 3.077926 -0.552554 0 CFG=2
M  V30 29 C 0.430342 3.866562 0.734883 0
M  V30 30 C 0.234751 1.606160 -0.180768 0
M  V30 31 C -3.129630 0.007646 1.291556 0
M  V30 32 N -4.437852 -0.233085 1.338860 0
M  V30 33 H -4.345519 -3.506702 1.435110 0
M  V30 34 H -0.536224 0.061736 1.696108 0
M  V30 35 H -0.275375 -1.702817 1.982003 0
M  V30 36 H -0.728261 -4.812694 -1.834810 0
M  V30 37 H 1.181849 -3.955340 -5.938271 0
M  V30 38 H 2.228570 -2.040184 -6.988954 0
M  V30 39 H 1.615935 0.236432 -3.581076 0
M  V30 40 H 0.557867 1.270499 -2.235429 0
M  V30 41 H 2.988846 0.874806 -1.864177 0
M  V30 42 H 2.661797 0.314561 -0.137006 0
M  V30 43 H 3.611833 2.644485 -0.743578 0
M  V30 44 H 2.538129 2.445344 0.628554 0
M  V30 45 H -0.302801 3.458105 -1.221103 0
M  V30 46 H 0.936834 4.850656 0.635513 0
M  V30 47 H -0.646411 4.001149 1.037475 0
M  V30 48 H 0.878947 3.222124 1.522808 0
M  V30 49 H 0.805896 1.409816 0.729719 0
M  V30 50 H -0.809329 1.491146 -0.047175 0
M  V30 51 H -2.694425 0.992867 1.254451 0
M  V30 END ATOM
M  V30 BEGIN BOND
M  V30 1 1 1 2
M  V30 2 1 2 3
M  V30 3 1 2 4
M  V30 4 1 2 5
M  V30 5 2 5 6
M  V30 6 1 6 7
M  V30 7 2 7 8
M  V30 8 1 8 9
M  V30 9 1 9 10
M  V30 10 2 10 11
M  V30 11 1 11 12
M  V30 12 2 12 13
M  V30 13 1 13 14
M  V30 14 2 14 15
M  V30 15 1 15 16
M  V30 16 2 16 17
M  V30 17 1 17 18
M  V30 18 1 18 19
M  V30 19 2 18 20
M  V30 20 1 20 21
M  V30 21 2 21 22
M  V30 22 1 22 23
M  V30 23 1 23 24
M  V30 24 1 24 25
M  V30 25 1 25 26
M  V30 26 1 26 27
M  V30 27 1 27 28
M  V30 28 1 28 29
M  V30 29 1 28 30
M  V30 30 1 8 31
M  V30 31 2 31 32
M  V30 32 1 32 5
M  V30 33 1 23 10
M  V30 34 1 30 24
M  V30 35 1 22 12
M  V30 36 1 21 15
M  V30 37 1 6 33
M  V30 38 1 9 34
M  V30 39 1 9 35
M  V30 40 1 13 36
M  V30 41 1 16 37
M  V30 42 1 17 38
M  V30 43 1 20 39
M  V30 44 1 24 40 CFG=3
M  V30 45 1 25 41
M  V30 46 1 25 42
M  V30 47 1 26 43
M  V30 48 1 26 44
M  V30 49 1 28 45 CFG=3
M  V30 50 1 29 46
M  V30 51 1 29 47
M  V30 52 1 29 48
M  V30 53 1 30 49
M  V30 54 1 30 50
M  V30 55 1 31 51
M  V30 END BOND
M  V30 END CTAB
M  END
>  <Dataset>  (751) 
ChEMBL_Kinases

>  <Ligand_Instance>  (751) 
nan

>  <PDB_ID>  (751) 
nan

>  <Standardized_SMILES>  (751) 
[2H]C([2H])([2H])c1cnc(Cc2nc3cnc4ccc(Cl)cc4c3n2[C@@H]2CCO[C@H](C)C2)cn1

>  <Name>  (751) 
nan

>  <Pocket>  (751) 
nan

>  <ATP_Site>  (751) 
nan

>  <Peripheral>  (751) 
nan

>  <Num_H_Atoms_ProtBoundConf>  (751) 
nan

>  <Num_Resolved_Atoms>  (751) 
nan

>  <Num_Not_Resolved_Atoms>  (751) 
nan

$$$$
CHEMBL4451125
     RDKit          3D

  0  0  0  0  0  0  0  0  0  0999 V3000
M  V30 BEGIN CTAB
M  V30 COUNTS 40 42 0 0 0
M  V30 BEGIN ATOM
M  V30 1 C 0.708578 -3.745421 -1.556691 0
M  V30 2 C 1.076122 -4.062177 -0.135224 0
M  V30 3 C 0.082035 -3.527754 0.857163 0
M  V30 4 N 2.430749 -3.580287 0.121705 0
M  V30 5 C 3.478247 -4.310544 0.558742 0
M  V30 6 N 4.529480 -3.494793 0.662638 0
M  V30 7 N 4.173453 -2.281924 0.305604 0
M  V30 8 C 2.862886 -2.316655 -0.036217 0
M  V30 9 C 2.114213 -1.151539 -0.487585 0
M  V30 10 C 2.597947 -0.553874 -1.650702 0
M  V30 11 C 1.927604 0.552762 -2.123162 0
M  V30 12 C 0.811994 1.077426 -1.490705 0
M  V30 13 C 0.377398 0.441947 -0.339606 0
M  V30 14 N -0.753037 0.863206 0.420177 0
M  V30 15 C -0.554814 1.794647 1.458508 0
M  V30 16 O 0.691518 2.085714 1.501283 0
M  V30 17 C -1.547300 2.364904 2.359118 0
M  V30 18 C -1.017607 3.269992 3.287737 0
M  V30 19 C -1.831547 3.893030 4.207351 0
M  V30 20 C -3.190324 3.673895 4.275256 0
M  V30 21 C -3.706001 2.787596 3.365194 0
M  V30 22 C -2.906272 2.161843 2.445798 0
M  V30 23 F -3.384946 1.284884 1.537826 0
M  V30 24 N 1.015836 -0.641574 0.142205 0
M  V30 25 H -0.175934 -4.344604 -1.886526 0
M  V30 26 H 0.502293 -2.670940 -1.719141 0
M  V30 27 H 1.595471 -3.989079 -2.195589 0
M  V30 28 H 1.076873 -5.176975 -0.031432 0
M  V30 29 H 0.584589 -2.967328 1.656538 0
M  V30 30 H -0.688346 -2.929395 0.339489 0
M  V30 31 H -0.498636 -4.354725 1.360158 0
M  V30 32 H 3.498372 -5.363602 0.791700 0
M  V30 33 H 3.460323 -0.917270 -2.185028 0
M  V30 34 H 2.266188 1.064340 -3.037725 0
M  V30 35 H 0.283848 1.929729 -1.841845 0
M  V30 36 H -1.724066 0.520669 0.251942 0
M  V30 37 H 0.054635 3.516128 3.319458 0
M  V30 38 H -1.388364 4.586038 4.909429 0
M  V30 39 H -3.867906 4.134469 4.973120 0
M  V30 40 H -4.762071 2.528796 3.314866 0
M  V30 END ATOM
M  V30 BEGIN BOND
M  V30 1 1 1 2
M  V30 2 1 2 3
M  V30 3 1 2 4
M  V30 4 1 4 5
M  V30 5 2 5 6
M  V30 6 1 6 7
M  V30 7 2 7 8
M  V30 8 1 8 9
M  V30 9 2 9 10
M  V30 10 1 10 11
M  V30 11 2 11 12
M  V30 12 1 12 13
M  V30 13 1 13 14
M  V30 14 1 14 15
M  V30 15 2 15 16
M  V30 16 1 15 17
M  V30 17 2 17 18
M  V30 18 1 18 19
M  V30 19 2 19 20
M  V30 20 1 20 21
M  V30 21 2 21 22
M  V30 22 1 22 23
M  V30 23 2 13 24
M  V30 24 1 8 4
M  V30 25 1 24 9
M  V30 26 1 22 17
M  V30 27 1 1 25
M  V30 28 1 1 26
M  V30 29 1 1 27
M  V30 30 1 2 28
M  V30 31 1 3 29
M  V30 32 1 3 30
M  V30 33 1 3 31
M  V30 34 1 5 32
M  V30 35 1 10 33
M  V30 36 1 11 34
M  V30 37 1 12 35
M  V30 38 1 14 36
M  V30 39 1 18 37
M  V30 40 1 19 38
M  V30 41 1 20 39
M  V30 42 1 21 40
M  V30 END BOND
M  V30 END CTAB
M  END
>  <Dataset>  (752) 
ChEMBL_Kinases

>  <Ligand_Instance>  (752) 
nan

>  <PDB_ID>  (752) 
nan

>  <Standardized_SMILES>  (752) 
CC(C)n1cnnc1-c1cccc(NC(=O)c2ccccc2F)n1

>  <Name>  (752) 
nan

>  <Pocket>  (752) 
nan

>  <ATP_Site>  (752) 
nan

>  <Peripheral>  (752) 
nan

>  <Num_H_Atoms_ProtBoundConf>  (752) 
nan

>  <Num_Resolved_Atoms>  (752) 
nan

>  <Num_Not_Resolved_Atoms>  (752) 
nan

$$$$
CHEMBL4451583
     RDKit          3D

  0  0  0  0  0  0  0  0  0  0999 V3000
M  V30 BEGIN CTAB
M  V30 COUNTS 53 56 0 0 0
M  V30 BEGIN ATOM
M  V30 1 C -2.467481 -3.490082 -0.546414 0
M  V30 2 N -1.294885 -4.324923 -0.717045 0
M  V30 3 C -0.079273 -3.730626 -0.369908 0
M  V30 4 N 0.053872 -2.486890 0.106144 0
M  V30 5 C 1.211425 -1.911327 0.452463 0
M  V30 6 N 1.439557 -0.596491 0.870672 0
M  V30 7 C 0.589842 0.588531 0.712700 0
M  V30 8 C -0.084371 0.152752 -0.495420 0
M  V30 9 N -1.009353 1.012149 -1.076432 0
M  V30 10 C -1.204339 2.190169 -0.461932 0
M  V30 11 C -2.079517 3.243721 -0.858175 0
M  V30 12 N -2.777428 4.109567 -1.192620 0
M  V30 13 C -0.490131 2.451850 0.672237 0
M  V30 14 O -0.588031 3.540818 1.366588 0
M  V30 15 C -0.686864 4.637726 2.065645 0
M  V30 16 C 0.416823 5.115793 2.955200 0
M  V30 17 C 0.535341 4.329408 4.231997 0
M  V30 18 C -0.535388 3.351039 4.513782 0
M  V30 19 N -1.778033 3.546582 3.867816 0
M  V30 20 C -1.921132 4.649149 3.024026 0
M  V30 21 C 0.451184 1.851174 1.466125 0
M  V30 22 N 2.366460 -2.608090 0.331001 0
M  V30 23 C 2.378859 -3.872508 -0.137253 0
M  V30 24 C 1.126409 -4.352900 -0.463476 0
M  V30 25 C 1.269278 -5.719497 -1.018696 0
M  V30 26 C 1.941658 -6.819555 -0.562348 0
M  V30 27 N 1.701186 -7.731475 -1.518364 0
M  V30 28 N 0.947171 -7.254668 -2.488499 0
M  V30 29 C 0.495025 -7.984030 -3.684267 0
M  V30 30 C 0.618737 -5.932995 -2.233386 0
M  V30 31 H -2.782322 -3.528006 0.520334 0
M  V30 32 H -3.311887 -3.789821 -1.192181 0
M  V30 33 H -2.190169 -2.437673 -0.779933 0
M  V30 34 H -1.437480 -5.282507 -1.068704 0
M  V30 35 H 2.354498 -0.366415 1.373970 0
M  V30 36 H -0.163891 -0.663463 -1.227588 0
M  V30 37 H -0.954654 5.510096 1.369484 0
M  V30 38 H 1.370559 5.161127 2.396671 0
M  V30 39 H 0.154394 6.188408 3.201881 0
M  V30 40 H 1.574874 3.883539 4.234693 0
M  V30 41 H 0.566387 5.061966 5.071197 0
M  V30 42 H -0.771089 3.280829 5.615103 0
M  V30 43 H -0.181738 2.336970 4.240323 0
M  V30 44 H -2.592370 3.107912 4.287688 0
M  V30 45 H -2.807674 4.562017 2.391083 0
M  V30 46 H -1.906382 5.625935 3.507406 0
M  V30 47 H 1.153187 1.299175 2.014719 0
M  V30 48 H 3.327128 -4.385820 -0.218202 0
M  V30 49 H 2.510276 -6.868150 0.353083 0
M  V30 50 H -0.527242 -8.324302 -3.482115 0
M  V30 51 H 0.425977 -7.198305 -4.488975 0
M  V30 52 H 1.213821 -8.755446 -3.948062 0
M  V30 53 H 0.015259 -5.386421 -2.916428 0
M  V30 END ATOM
M  V30 BEGIN BOND
M  V30 1 1 1 2
M  V30 2 1 2 3
M  V30 3 2 3 4
M  V30 4 1 4 5
M  V30 5 1 5 6
M  V30 6 1 6 7
M  V30 7 2 7 8
M  V30 8 1 8 9
M  V30 9 2 9 10
M  V30 10 1 10 11
M  V30 11 3 11 12
M  V30 12 1 10 13
M  V30 13 1 13 14
M  V30 14 1 14 15
M  V30 15 1 15 16
M  V30 16 1 16 17
M  V30 17 1 17 18
M  V30 18 1 18 19
M  V30 19 1 19 20
M  V30 20 2 13 21
M  V30 21 2 5 22
M  V30 22 1 22 23
M  V30 23 2 23 24
M  V30 24 1 24 25
M  V30 25 1 25 26
M  V30 26 2 26 27
M  V30 27 1 27 28
M  V30 28 1 28 29
M  V30 29 1 28 30
M  V30 30 1 24 3
M  V30 31 2 30 25
M  V30 32 1 21 7
M  V30 33 1 20 15
M  V30 34 1 1 31
M  V30 35 1 1 32
M  V30 36 1 1 33
M  V30 37 1 2 34
M  V30 38 1 6 35
M  V30 39 1 8 36
M  V30 40 1 15 37
M  V30 41 1 16 38
M  V30 42 1 16 39
M  V30 43 1 17 40
M  V30 44 1 17 41
M  V30 45 1 18 42
M  V30 46 1 18 43
M  V30 47 1 19 44
M  V30 48 1 20 45
M  V30 49 1 20 46
M  V30 50 1 21 47
M  V30 51 1 23 48
M  V30 52 1 26 49
M  V30 53 1 29 50
M  V30 54 1 29 51
M  V30 55 1 29 52
M  V30 56 1 30 53
M  V30 END BOND
M  V30 END CTAB
M  END
>  <Dataset>  (753) 
ChEMBL_Kinases

>  <Ligand_Instance>  (753) 
nan

>  <PDB_ID>  (753) 
nan

>  <Standardized_SMILES>  (753) 
CNc1nc(Nc2cnc(C#N)c(OC3CCCNC3)c2)ncc1-c1cnn(C)c1

>  <Name>  (753) 
nan

>  <Pocket>  (753) 
nan

>  <ATP_Site>  (753) 
nan

>  <Peripheral>  (753) 
nan

>  <Num_H_Atoms_ProtBoundConf>  (753) 
nan

>  <Num_Resolved_Atoms>  (753) 
nan

>  <Num_Not_Resolved_Atoms>  (753) 
nan

$$$$
CHEMBL4452178
     RDKit          3D

  0  0  0  0  0  0  0  0  0  0999 V3000
M  V30 BEGIN CTAB
M  V30 COUNTS 39 42 0 0 0
M  V30 BEGIN ATOM
M  V30 1 N 0.247004 -2.887151 5.326525 0
M  V30 2 C -0.072506 -3.155724 4.258043 0
M  V30 3 C -0.473954 -3.474262 2.897981 0
M  V30 4 C -1.184181 -4.616666 2.576201 0
M  V30 5 N -1.383816 -4.589469 1.231940 0
M  V30 6 C -0.816600 -3.466832 0.732331 0
M  V30 7 C -0.672296 -2.873763 -0.499893 0
M  V30 8 C 0.010826 -1.666107 -0.581209 0
M  V30 9 C 0.559285 -1.017069 0.505802 0
M  V30 10 C 1.257233 0.235800 0.356493 0
M  V30 11 C 0.556600 1.352573 -0.116196 0
M  V30 12 C -0.838292 1.512319 -0.517230 0
M  V30 13 C -1.235838 1.896411 -1.804884 0
M  V30 14 C -2.575828 2.026703 -2.112924 0
M  V30 15 C -3.564324 1.783097 -1.164059 0
M  V30 16 F -4.884228 1.912195 -1.470666 0
M  V30 17 C -3.215513 1.400413 0.123746 0
M  V30 18 C -1.869203 1.284539 0.381505 0
M  V30 19 N 1.455534 2.369235 -0.152055 0
M  V30 20 C 2.660597 1.935410 0.271021 0
M  V30 21 N 2.523543 0.633945 0.577100 0
M  V30 22 C 3.533338 -0.275804 1.075308 0
M  V30 23 C 3.529550 -0.226931 2.588525 0
M  V30 24 O 4.478554 -1.079583 3.135967 0
M  V30 25 N 0.373285 -1.663389 1.670115 0
M  V30 26 N -0.265854 -2.795471 1.754117 0
M  V30 27 H -1.509701 -5.377232 3.280510 0
M  V30 28 H -1.096346 -3.369812 -1.362477 0
M  V30 29 H 0.088259 -1.252161 -1.587129 0
M  V30 30 H -0.457645 2.084970 -2.540176 0
M  V30 31 H -2.886237 2.326732 -3.117602 0
M  V30 32 H -3.927641 1.194457 0.912579 0
M  V30 33 H -1.570932 0.987731 1.376887 0
M  V30 34 H 3.598601 2.475971 0.369963 0
M  V30 35 H 4.528897 0.079253 0.743466 0
M  V30 36 H 3.335531 -1.315254 0.761817 0
M  V30 37 H 2.512823 -0.427980 2.982548 0
M  V30 38 H 3.732401 0.840964 2.892966 0
M  V30 39 H 4.106036 -1.442862 3.989158 0
M  V30 END ATOM
M  V30 BEGIN BOND
M  V30 1 3 1 2
M  V30 2 1 2 3
M  V30 3 2 3 4
M  V30 4 1 4 5
M  V30 5 2 5 6
M  V30 6 1 6 7
M  V30 7 2 7 8
M  V30 8 1 8 9
M  V30 9 1 9 10
M  V30 10 2 10 11
M  V30 11 1 11 12
M  V30 12 2 12 13
M  V30 13 1 13 14
M  V30 14 2 14 15
M  V30 15 1 15 16
M  V30 16 1 15 17
M  V30 17 2 17 18
M  V30 18 1 11 19
M  V30 19 2 19 20
M  V30 20 1 20 21
M  V30 21 1 21 22
M  V30 22 1 22 23
M  V30 23 1 23 24
M  V30 24 2 9 25
M  V30 25 1 25 26
M  V30 26 1 26 3
M  V30 27 1 26 6
M  V30 28 1 21 10
M  V30 29 1 18 12
M  V30 30 1 4 27
M  V30 31 1 7 28
M  V30 32 1 8 29
M  V30 33 1 13 30
M  V30 34 1 14 31
M  V30 35 1 17 32
M  V30 36 1 18 33
M  V30 37 1 20 34
M  V30 38 1 22 35
M  V30 39 1 22 36
M  V30 40 1 23 37
M  V30 41 1 23 38
M  V30 42 1 24 39
M  V30 END BOND
M  V30 END CTAB
M  END
>  <Dataset>  (754) 
ChEMBL_Kinases

>  <Ligand_Instance>  (754) 
nan

>  <PDB_ID>  (754) 
nan

>  <Standardized_SMILES>  (754) 
N#Cc1cnc2ccc(-c3c(-c4ccc(F)cc4)ncn3CCO)nn12

>  <Name>  (754) 
nan

>  <Pocket>  (754) 
nan

>  <ATP_Site>  (754) 
nan

>  <Peripheral>  (754) 
nan

>  <Num_H_Atoms_ProtBoundConf>  (754) 
nan

>  <Num_Resolved_Atoms>  (754) 
nan

>  <Num_Not_Resolved_Atoms>  (754) 
nan

$$$$
CHEMBL4452098
     RDKit          3D

  0  0  0  0  0  0  0  0  0  0999 V3000
M  V30 BEGIN CTAB
M  V30 COUNTS 36 39 0 0 0
M  V30 BEGIN ATOM
M  V30 1 N -0.865490 -3.553523 2.712767 0
M  V30 2 C -0.108540 -2.447094 2.242502 0
M  V30 3 N 0.999431 -2.109213 2.953969 0
M  V30 4 C 1.774474 -1.058982 2.562773 0
M  V30 5 C 1.370389 -0.371187 1.417948 0
M  V30 6 C 2.213299 0.747108 1.017174 0
M  V30 7 C 3.582201 0.807931 1.213852 0
M  V30 8 C 4.390420 1.858943 0.842300 0
M  V30 9 C 3.828960 2.957951 0.221692 0
M  V30 10 N 4.485468 4.029878 -0.184478 0
M  V30 11 C 4.050649 4.980942 -0.712859 0
M  V30 12 S 2.198861 4.461208 -0.768898 0
M  V30 13 C 2.491517 2.942015 0.008616 0
M  V30 14 C 1.669419 1.863117 0.391187 0
M  V30 15 C 0.268446 -0.667336 0.667063 0
M  V30 16 C -0.477581 -1.742631 1.113549 0
M  V30 17 C -1.675178 -2.128337 0.365238 0
M  V30 18 C -2.863417 -2.421019 1.027585 0
M  V30 19 C -3.965347 -2.781958 0.252619 0
M  V30 20 F -5.114823 -3.063103 0.933151 0
M  V30 21 C -3.905589 -2.853711 -1.124448 0
M  V30 22 O -5.073873 -3.224880 -1.776491 0
M  V30 23 C -2.711585 -2.558864 -1.776555 0
M  V30 24 F -2.695575 -2.641820 -3.133821 0
M  V30 25 C -1.592513 -2.194341 -1.019639 0
M  V30 26 H -1.574339 -3.857442 3.426918 0
M  V30 27 H -0.744129 -4.480997 2.224596 0
M  V30 28 H 2.643115 -0.792772 3.118315 0
M  V30 29 H 3.980520 -0.091503 1.711571 0
M  V30 30 H 5.444091 1.703893 1.090594 0
M  V30 31 H 4.498933 5.896352 -1.078395 0
M  V30 32 H 0.624002 1.928163 0.187336 0
M  V30 33 H 0.005720 -0.099541 -0.208938 0
M  V30 34 H -2.939776 -2.373399 2.103300 0
M  V30 35 H -5.318061 -2.818415 -2.668305 0
M  V30 36 H -0.680431 -1.972300 -1.558804 0
M  V30 END ATOM
M  V30 BEGIN BOND
M  V30 1 1 1 2
M  V30 2 2 2 3
M  V30 3 1 3 4
M  V30 4 2 4 5
M  V30 5 1 5 6
M  V30 6 2 6 7
M  V30 7 1 7 8
M  V30 8 2 8 9
M  V30 9 1 9 10
M  V30 10 2 10 11
M  V30 11 1 11 12
M  V30 12 1 12 13
M  V30 13 2 13 14
M  V30 14 1 5 15
M  V30 15 2 15 16
M  V30 16 1 16 17
M  V30 17 2 17 18
M  V30 18 1 18 19
M  V30 19 1 19 20
M  V30 20 2 19 21
M  V30 21 1 21 22
M  V30 22 1 21 23
M  V30 23 1 23 24
M  V30 24 2 23 25
M  V30 25 1 16 2
M  V30 26 1 25 17
M  V30 27 1 14 6
M  V30 28 1 13 9
M  V30 29 1 1 26
M  V30 30 1 1 27
M  V30 31 1 4 28
M  V30 32 1 7 29
M  V30 33 1 8 30
M  V30 34 1 11 31
M  V30 35 1 14 32
M  V30 36 1 15 33
M  V30 37 1 18 34
M  V30 38 1 22 35
M  V30 39 1 25 36
M  V30 END BOND
M  V30 END CTAB
M  END
>  <Dataset>  (755) 
ChEMBL_Kinases

>  <Ligand_Instance>  (755) 
nan

>  <PDB_ID>  (755) 
nan

>  <Standardized_SMILES>  (755) 
Nc1ncc(-c2ccc3ncsc3c2)cc1-c1cc(F)c(O)c(F)c1

>  <Name>  (755) 
nan

>  <Pocket>  (755) 
nan

>  <ATP_Site>  (755) 
nan

>  <Peripheral>  (755) 
nan

>  <Num_H_Atoms_ProtBoundConf>  (755) 
nan

>  <Num_Resolved_Atoms>  (755) 
nan

>  <Num_Not_Resolved_Atoms>  (755) 
nan

$$$$
CHEMBL4452093
     RDKit          3D

  0  0  0  0  0  0  0  0  0  0999 V3000
M  V30 BEGIN CTAB
M  V30 COUNTS 50 53 0 0 0
M  V30 BEGIN ATOM
M  V30 1 C 4.611092 -3.635129 2.490235 0
M  V30 2 C 5.165580 -2.565175 3.388642 0
M  V30 3 C 4.099661 -2.033634 4.331897 0
M  V30 4 S 5.930278 -1.265561 2.473067 0
M  V30 5 O 6.617400 -0.331370 3.426203 0
M  V30 6 O 6.985489 -1.919354 1.598739 0
M  V30 7 N 4.859731 -0.438986 1.423088 0
M  V30 8 C 3.737898 0.252404 1.963734 0
M  V30 9 C 3.778385 1.068448 3.083976 0
M  V30 10 C 2.630095 1.698444 3.536970 0
M  V30 11 C 1.410207 1.548832 2.908251 0
M  V30 12 C 1.323337 0.734690 1.774277 0
M  V30 13 C 0.101194 0.489031 1.015679 0
M  V30 14 C -1.170285 0.450239 1.545611 0
M  V30 15 C -2.296972 0.216135 0.786732 0
M  V30 16 C -2.146156 0.010854 -0.567253 0
M  V30 17 C -3.063917 -0.241754 -1.566906 0
M  V30 18 N -4.492665 -0.366816 -1.467426 0
M  V30 19 C -5.270924 -0.626937 -2.618547 0
M  V30 20 O -4.620135 -0.735393 -3.702194 0
M  V30 21 C -6.747305 -0.766461 -2.581988 0
M  V30 22 C -7.440798 0.039144 -3.718626 0
M  V30 23 C -7.478947 -1.443359 -3.662245 0
M  V30 24 N -2.337595 -0.353042 -2.691809 0
M  V30 25 N -1.058519 -0.187253 -2.444228 0
M  V30 26 C -0.884442 0.046032 -1.113344 0
M  V30 27 C 0.245843 0.279652 -0.359471 0
M  V30 28 C 2.498260 0.134596 1.371177 0
M  V30 29 H 4.005132 -4.360800 3.063837 0
M  V30 30 H 5.437352 -4.211599 2.030668 0
M  V30 31 H 3.975618 -3.185010 1.675551 0
M  V30 32 H 5.947708 -3.026020 4.026485 0
M  V30 33 H 3.805208 -2.863560 5.004345 0
M  V30 34 H 4.554815 -1.225189 4.940851 0
M  V30 35 H 3.192956 -1.708033 3.785909 0
M  V30 36 H 4.963753 -0.397511 0.382477 0
M  V30 37 H 4.739599 1.185033 3.577660 0
M  V30 38 H 2.694471 2.338557 4.426784 0
M  V30 39 H 0.498180 2.025468 3.235319 0
M  V30 40 H -1.230860 0.619195 2.620917 0
M  V30 41 H -3.280490 0.193677 1.245185 0
M  V30 42 H -4.943768 -0.262418 -0.532955 0
M  V30 43 H -7.239665 -0.660746 -1.592734 0
M  V30 44 H -8.305615 0.650553 -3.411985 0
M  V30 45 H -6.813119 0.527696 -4.465123 0
M  V30 46 H -6.947730 -2.016055 -4.458556 0
M  V30 47 H -8.475083 -1.874022 -3.431654 0
M  V30 48 H -0.293936 -0.229693 -3.166469 0
M  V30 49 H 1.179203 0.283417 -0.903279 0
M  V30 50 H 2.452006 -0.502658 0.491786 0
M  V30 END ATOM
M  V30 BEGIN BOND
M  V30 1 1 1 2
M  V30 2 1 2 3
M  V30 3 1 2 4
M  V30 4 2 4 5
M  V30 5 2 4 6
M  V30 6 1 4 7
M  V30 7 1 7 8
M  V30 8 2 8 9
M  V30 9 1 9 10
M  V30 10 2 10 11
M  V30 11 1 11 12
M  V30 12 1 12 13
M  V30 13 2 13 14
M  V30 14 1 14 15
M  V30 15 2 15 16
M  V30 16 1 16 17
M  V30 17 1 17 18
M  V30 18 1 18 19
M  V30 19 2 19 20
M  V30 20 1 19 21
M  V30 21 1 21 22
M  V30 22 1 22 23
M  V30 23 2 17 24
M  V30 24 1 24 25
M  V30 25 1 25 26
M  V30 26 2 26 27
M  V30 27 2 12 28
M  V30 28 1 28 8
M  V30 29 1 27 13
M  V30 30 1 26 16
M  V30 31 1 23 21
M  V30 32 1 1 29
M  V30 33 1 1 30
M  V30 34 1 1 31
M  V30 35 1 2 32
M  V30 36 1 3 33
M  V30 37 1 3 34
M  V30 38 1 3 35
M  V30 39 1 7 36
M  V30 40 1 9 37
M  V30 41 1 10 38
M  V30 42 1 11 39
M  V30 43 1 14 40
M  V30 44 1 15 41
M  V30 45 1 18 42
M  V30 46 1 21 43
M  V30 47 1 22 44
M  V30 48 1 22 45
M  V30 49 1 23 46
M  V30 50 1 23 47
M  V30 51 1 25 48
M  V30 52 1 27 49
M  V30 53 1 28 50
M  V30 END BOND
M  V30 END CTAB
M  END
>  <Dataset>  (756) 
ChEMBL_Kinases

>  <Ligand_Instance>  (756) 
nan

>  <PDB_ID>  (756) 
nan

>  <Standardized_SMILES>  (756) 
CC(C)S(=O)(=O)Nc1cccc(-c2ccc3c(NC(=O)C4CC4)n[nH]c3c2)c1

>  <Name>  (756) 
nan

>  <Pocket>  (756) 
nan

>  <ATP_Site>  (756) 
nan

>  <Peripheral>  (756) 
nan

>  <Num_H_Atoms_ProtBoundConf>  (756) 
nan

>  <Num_Resolved_Atoms>  (756) 
nan

>  <Num_Not_Resolved_Atoms>  (756) 
nan

$$$$
CHEMBL4451995
     RDKit          3D

  0  0  0  0  0  0  0  0  0  0999 V3000
M  V30 BEGIN CTAB
M  V30 COUNTS 50 52 0 0 0
M  V30 BEGIN ATOM
M  V30 1 C 5.327912 1.685400 4.937635 0
M  V30 2 C 4.596992 0.449118 4.436831 0
M  V30 3 C 5.200256 -0.815990 4.949201 0
M  V30 4 C 4.513846 0.497573 2.936847 0
M  V30 5 C 3.350345 0.627166 2.205594 0
M  V30 6 C 3.773483 0.622795 0.891762 0
M  V30 7 C 2.924333 0.735015 -0.293880 0
M  V30 8 C 3.505692 0.713943 -1.543838 0
M  V30 9 C 2.623392 0.826029 -2.608621 0
M  V30 10 C 1.254382 0.952196 -2.495266 0
M  V30 11 C 0.732088 0.966921 -1.216712 0
M  V30 12 N -0.675343 1.094687 -1.027426 0
M  V30 13 C -1.466735 -0.083720 -0.970201 0
M  V30 14 O -0.845974 -1.151845 -1.093496 0
M  V30 15 N -2.849204 -0.108283 -0.790190 0
M  V30 16 C -3.754508 -1.197767 -0.714551 0
M  V30 17 C -5.080849 -0.969638 -0.531823 0
M  V30 18 C -6.005839 -1.987379 -0.450773 0
M  V30 19 C -7.426350 -1.630855 -0.250645 0
M  V30 20 F -8.032474 -1.516208 -1.483327 0
M  V30 21 F -7.584434 -0.473963 0.486742 0
M  V30 22 F -8.046759 -2.670504 0.429273 0
M  V30 23 C -5.629650 -3.310440 -0.552194 0
M  V30 24 C -4.291904 -3.570500 -0.737673 0
M  V30 25 C -3.863889 -4.989249 -0.849654 0
M  V30 26 F -4.295621 -5.472557 -2.084616 0
M  V30 27 F -2.471969 -4.996178 -0.901625 0
M  V30 28 F -4.328735 -5.753110 0.194435 0
M  V30 29 C -3.410273 -2.527714 -0.812058 0
M  V30 30 C 1.558042 0.859851 -0.140780 0
M  V30 31 N 5.129697 0.496308 0.836358 0
M  V30 32 N 5.564857 0.421055 2.099431 0
M  V30 33 H 6.395491 1.571278 4.675660 0
M  V30 34 H 5.140369 1.801951 6.021544 0
M  V30 35 H 4.938804 2.542104 4.328067 0
M  V30 36 H 3.568640 0.534688 4.849703 0
M  V30 37 H 4.940978 -1.665845 4.270133 0
M  V30 38 H 4.756812 -1.046383 5.932073 0
M  V30 39 H 6.296935 -0.682431 5.036894 0
M  V30 40 H 2.349119 0.711047 2.597241 0
M  V30 41 H 4.569589 0.618176 -1.716226 0
M  V30 42 H 3.054169 0.812760 -3.621302 0
M  V30 43 H 0.637605 1.034616 -3.389877 0
M  V30 44 H -1.142508 2.024597 -0.929666 0
M  V30 45 H -3.245399 0.864951 -0.700047 0
M  V30 46 H -5.430618 0.056118 -0.445584 0
M  V30 47 H -6.403928 -4.061719 -0.480372 0
M  V30 48 H -2.387328 -2.814675 -0.957360 0
M  V30 49 H 1.150828 0.870753 0.877320 0
M  V30 50 H 5.717159 0.464417 -0.033698 0
M  V30 END ATOM
M  V30 BEGIN BOND
M  V30 1 1 1 2
M  V30 2 1 2 3
M  V30 3 1 2 4
M  V30 4 1 4 5
M  V30 5 2 5 6
M  V30 6 1 6 7
M  V30 7 2 7 8
M  V30 8 1 8 9
M  V30 9 2 9 10
M  V30 10 1 10 11
M  V30 11 1 11 12
M  V30 12 1 12 13
M  V30 13 2 13 14
M  V30 14 1 13 15
M  V30 15 1 15 16
M  V30 16 2 16 17
M  V30 17 1 17 18
M  V30 18 1 18 19
M  V30 19 1 19 20
M  V30 20 1 19 21
M  V30 21 1 19 22
M  V30 22 2 18 23
M  V30 23 1 23 24
M  V30 24 1 24 25
M  V30 25 1 25 26
M  V30 26 1 25 27
M  V30 27 1 25 28
M  V30 28 2 24 29
M  V30 29 2 11 30
M  V30 30 1 6 31
M  V30 31 1 31 32
M  V30 32 2 32 4
M  V30 33 1 30 7
M  V30 34 1 29 16
M  V30 35 1 1 33
M  V30 36 1 1 34
M  V30 37 1 1 35
M  V30 38 1 2 36
M  V30 39 1 3 37
M  V30 40 1 3 38
M  V30 41 1 3 39
M  V30 42 1 5 40
M  V30 43 1 8 41
M  V30 44 1 9 42
M  V30 45 1 10 43
M  V30 46 1 12 44
M  V30 47 1 15 45
M  V30 48 1 17 46
M  V30 49 1 23 47
M  V30 50 1 29 48
M  V30 51 1 30 49
M  V30 52 1 31 50
M  V30 END BOND
M  V30 END CTAB
M  END
>  <Dataset>  (757) 
ChEMBL_Kinases

>  <Ligand_Instance>  (757) 
nan

>  <PDB_ID>  (757) 
nan

>  <Standardized_SMILES>  (757) 
CC(C)c1cc(-c2cccc(NC(=O)Nc3cc(C(F)(F)F)cc(C(F)(F)F)c3)c2)[nH]n1

>  <Name>  (757) 
nan

>  <Pocket>  (757) 
nan

>  <ATP_Site>  (757) 
nan

>  <Peripheral>  (757) 
nan

>  <Num_H_Atoms_ProtBoundConf>  (757) 
nan

>  <Num_Resolved_Atoms>  (757) 
nan

>  <Num_Not_Resolved_Atoms>  (757) 
nan

$$$$
CHEMBL4747967
     RDKit          3D

  0  0  0  0  0  0  0  0  0  0999 V3000
M  V30 BEGIN CTAB
M  V30 COUNTS 22 23 0 0 0
M  V30 BEGIN ATOM
M  V30 1 C 0.362033 -2.221123 5.038656 0
M  V30 2 C 0.240165 -1.325103 3.859597 0
M  V30 3 O -0.803954 -0.810982 3.357243 0
M  V30 4 N 1.415053 -0.966936 3.169532 0
M  V30 5 C 1.111145 -0.074077 2.027259 0
M  V30 6 N 0.873432 -0.369627 0.959107 0
M  V30 7 C 0.593807 0.371983 -0.106009 0
M  V30 8 C 0.307561 -0.019585 -1.398482 0
M  V30 9 C 0.044582 0.936168 -2.354799 0
M  V30 10 O -0.249903 0.558278 -3.680122 0
M  V30 11 C 0.038294 2.298848 -2.142289 0
M  V30 12 C 0.324699 2.686855 -0.849752 0
M  V30 13 C 0.591394 1.732022 0.122619 0
M  V30 14 S 0.992039 1.839925 1.854349 0
M  V30 15 H 0.380296 -3.299092 4.741380 0
M  V30 16 H 1.222180 -1.933505 5.673252 0
M  V30 17 H -0.551454 -2.109738 5.691658 0
M  V30 18 H 2.371903 -1.258376 3.389047 0
M  V30 19 H 0.267247 -1.049151 -1.751701 0
M  V30 20 H -0.853683 -0.265595 -3.750517 0
M  V30 21 H -0.161947 3.073156 -2.862304 0
M  V30 22 H 0.371635 3.698074 -0.471467 0
M  V30 END ATOM
M  V30 BEGIN BOND
M  V30 1 1 1 2
M  V30 2 2 2 3
M  V30 3 1 2 4
M  V30 4 1 4 5
M  V30 5 2 5 6
M  V30 6 1 6 7
M  V30 7 2 7 8
M  V30 8 1 8 9
M  V30 9 1 9 10
M  V30 10 2 9 11
M  V30 11 1 11 12
M  V30 12 2 12 13
M  V30 13 1 13 14
M  V30 14 1 14 5
M  V30 15 1 13 7
M  V30 16 1 1 15
M  V30 17 1 1 16
M  V30 18 1 1 17
M  V30 19 1 4 18
M  V30 20 1 8 19
M  V30 21 1 10 20
M  V30 22 1 11 21
M  V30 23 1 12 22
M  V30 END BOND
M  V30 END CTAB
M  END
>  <Dataset>  (758) 
ChEMBL_Kinases

>  <Ligand_Instance>  (758) 
nan

>  <PDB_ID>  (758) 
nan

>  <Standardized_SMILES>  (758) 
CC(=O)Nc1nc2cc(O)ccc2s1

>  <Name>  (758) 
nan

>  <Pocket>  (758) 
nan

>  <ATP_Site>  (758) 
nan

>  <Peripheral>  (758) 
nan

>  <Num_H_Atoms_ProtBoundConf>  (758) 
nan

>  <Num_Resolved_Atoms>  (758) 
nan

>  <Num_Not_Resolved_Atoms>  (758) 
nan

$$$$
CHEMBL4451854
     RDKit          3D

  0  0  0  0  0  0  0  0  0  0999 V3000
M  V30 BEGIN CTAB
M  V30 COUNTS 48 51 0 0 0
M  V30 BEGIN ATOM
M  V30 1 C 2.520137 -5.435651 -4.056150 0
M  V30 2 N 3.193362 -4.828831 -2.924552 0
M  V30 3 N 4.405544 -5.222769 -2.542134 0
M  V30 4 C 4.802838 -4.508376 -1.476558 0
M  V30 5 C 3.739458 -3.662382 -1.254267 0
M  V30 6 Cl 3.909256 -2.560831 0.088831 0
M  V30 7 C 2.715421 -3.846998 -2.154098 0
M  V30 8 C 1.464080 -3.115713 -2.186618 0
M  V30 9 C 0.534231 -3.410405 -3.146267 0
M  V30 10 S -0.888733 -2.216809 -2.777983 0
M  V30 11 C -0.032977 -1.505186 -1.402936 0
M  V30 12 C -0.726497 -0.419400 -0.660400 0
M  V30 13 O -1.868378 -0.070798 -1.045243 0
M  V30 14 N -0.089730 0.186369 0.447935 0
M  V30 15 C -0.737859 1.254385 1.201312 0 CFG=2
M  V30 16 C 0.090171 2.494800 0.857031 0
M  V30 17 N -0.214795 3.590524 1.732558 0
M  V30 18 C 0.065436 3.328281 3.108474 0
M  V30 19 C 0.241037 1.870722 3.352649 0
M  V30 20 C -0.771954 1.000171 2.652676 0 CFG=1
M  V30 21 C -2.095838 0.974558 3.305194 0
M  V30 22 C -2.965260 2.039442 3.290714 0
M  V30 23 C -4.206598 2.044047 3.893200 0
M  V30 24 C -4.639408 0.921877 4.565174 0
M  V30 25 C -3.830243 -0.176136 4.622524 0
M  V30 26 F -4.194578 -1.313260 5.267214 0
M  V30 27 C -2.598850 -0.131030 4.004487 0
M  V30 28 C 1.110383 -2.123470 -1.318234 0
M  V30 29 H 1.590958 -5.968596 -3.776294 0
M  V30 30 H 3.174161 -6.243389 -4.472267 0
M  V30 31 H 2.347858 -4.724178 -4.899311 0
M  V30 32 H 5.764701 -4.681894 -1.018085 0
M  V30 33 H 0.337948 -4.053107 -3.997460 0
M  V30 34 H 0.872342 -0.133468 0.743070 0
M  V30 35 H -1.716955 1.417084 0.718726 0
M  V30 36 H 1.171239 2.251479 0.809555 0
M  V30 37 H -0.177400 2.795543 -0.177075 0
M  V30 38 H 0.379639 4.385600 1.436746 0
M  V30 39 H -0.708406 3.766358 3.797269 0
M  V30 40 H 1.014322 3.825353 3.441127 0
M  V30 41 H 0.350305 1.614619 4.426857 0
M  V30 42 H 1.238605 1.566484 2.917151 0
M  V30 43 H -0.369296 -0.049956 2.803202 0
M  V30 44 H -2.717421 2.943548 2.796309 0
M  V30 45 H -4.872740 2.906121 3.863066 0
M  V30 46 H -5.586721 0.812253 5.071444 0
M  V30 47 H -1.965084 -1.018545 4.060667 0
M  V30 48 H 1.686314 -1.735652 -0.494507 0
M  V30 END ATOM
M  V30 BEGIN BOND
M  V30 1 1 1 2
M  V30 2 1 2 3
M  V30 3 2 3 4
M  V30 4 1 4 5
M  V30 5 1 5 6
M  V30 6 2 5 7
M  V30 7 1 7 8
M  V30 8 2 8 9
M  V30 9 1 9 10
M  V30 10 1 10 11
M  V30 11 1 11 12
M  V30 12 2 12 13
M  V30 13 1 12 14
M  V30 14 1 14 15
M  V30 15 1 15 16
M  V30 16 1 16 17
M  V30 17 1 17 18
M  V30 18 1 18 19
M  V30 19 1 19 20
M  V30 20 1 20 21
M  V30 21 2 21 22
M  V30 22 1 22 23
M  V30 23 2 23 24
M  V30 24 1 24 25
M  V30 25 1 25 26
M  V30 26 2 25 27
M  V30 27 2 11 28
M  V30 28 1 7 2
M  V30 29 1 28 8
M  V30 30 1 20 15
M  V30 31 1 27 21
M  V30 32 1 1 29
M  V30 33 1 1 30
M  V30 34 1 1 31
M  V30 35 1 4 32
M  V30 36 1 9 33
M  V30 37 1 14 34
M  V30 38 1 15 35 CFG=3
M  V30 39 1 16 36
M  V30 40 1 16 37
M  V30 41 1 17 38
M  V30 42 1 18 39
M  V30 43 1 18 40
M  V30 44 1 19 41
M  V30 45 1 19 42
M  V30 46 1 20 43 CFG=3
M  V30 47 1 22 44
M  V30 48 1 23 45
M  V30 49 1 24 46
M  V30 50 1 27 47
M  V30 51 1 28 48
M  V30 END BOND
M  V30 END CTAB
M  END
>  <Dataset>  (759) 
ChEMBL_Kinases

>  <Ligand_Instance>  (759) 
nan

>  <PDB_ID>  (759) 
nan

>  <Standardized_SMILES>  (759) 
Cn1ncc(Cl)c1-c1csc(C(=O)N[C@@H]2CNCC[C@H]2c2cccc(F)c2)c1

>  <Name>  (759) 
nan

>  <Pocket>  (759) 
nan

>  <ATP_Site>  (759) 
nan

>  <Peripheral>  (759) 
nan

>  <Num_H_Atoms_ProtBoundConf>  (759) 
nan

>  <Num_Resolved_Atoms>  (759) 
nan

>  <Num_Not_Resolved_Atoms>  (759) 
nan

$$$$
CHEMBL4451847
     RDKit          3D

  0  0  0  0  0  0  0  0  0  0999 V3000
M  V30 BEGIN CTAB
M  V30 COUNTS 55 59 0 0 0
M  V30 BEGIN ATOM
M  V30 1 C 1.367459 -1.733514 5.567155 0
M  V30 2 N 2.151524 -2.266917 4.466490 0
M  V30 3 C 2.823054 -3.545465 4.585591 0
M  V30 4 C 3.958417 -3.717930 3.638772 0
M  V30 5 O 4.114590 -2.710241 2.674563 0
M  V30 6 C 3.231981 -1.705721 2.375806 0
M  V30 7 C 2.211615 -1.464455 3.292359 0
M  V30 8 C 1.324479 -0.461670 3.001515 0
M  V30 9 N 1.436775 0.263569 1.869474 0
M  V30 10 N 2.406924 0.048283 0.978681 0
M  V30 11 C 2.744272 0.614904 -0.210943 0
M  V30 12 C 1.930070 1.728952 -0.743571 0
M  V30 13 C 2.433243 2.997488 -0.954975 0
M  V30 14 C 1.582616 3.958076 -1.455288 0
M  V30 15 C 0.250284 3.640588 -1.735631 0
M  V30 16 C -0.244661 2.371002 -1.521664 0
M  V30 17 C -1.648752 2.139255 -1.845514 0
M  V30 18 O -2.314857 3.107165 -2.296966 0
M  V30 19 N -2.282363 0.876282 -1.671581 0
M  V30 20 C -3.656321 0.622763 -1.981091 0
M  V30 21 C -4.078425 -0.805256 -1.703108 0
M  V30 22 C -3.908042 -1.188200 -0.265857 0
M  V30 23 C -2.710709 -2.002696 0.069037 0
M  V30 24 N -2.088710 -2.704363 -1.005141 0
M  V30 25 C -3.081006 -3.082893 -1.995224 0
M  V30 26 C -3.491121 -1.790716 -2.674499 0
M  V30 27 C 0.594741 1.419549 -1.026977 0
M  V30 28 N 3.844976 -0.012130 -0.696595 0
M  V30 29 N 4.182791 -0.959895 0.190368 0
M  V30 30 C 3.316988 -0.941085 1.223088 0
M  V30 31 H 1.263930 -2.478603 6.397868 0
M  V30 32 H 0.310483 -1.561185 5.234567 0
M  V30 33 H 1.817202 -0.825812 6.000002 0
M  V30 34 H 2.028680 -4.314463 4.454087 0
M  V30 35 H 3.187373 -3.662953 5.629128 0
M  V30 36 H 3.801691 -4.670530 3.080384 0
M  V30 37 H 4.925095 -3.895724 4.192372 0
M  V30 38 H 0.529278 -0.251717 3.685746 0
M  V30 39 H 3.475437 3.190386 -0.720372 0
M  V30 40 H 1.978978 4.947253 -1.619023 0
M  V30 41 H -0.327648 4.466893 -2.123531 0
M  V30 42 H -1.737006 0.069258 -1.297929 0
M  V30 43 H -4.373014 1.275812 -1.434629 0
M  V30 44 H -3.874955 0.808656 -3.062727 0
M  V30 45 H -5.180273 -0.808223 -1.909544 0
M  V30 46 H -4.838364 -1.675507 0.147616 0
M  V30 47 H -3.843567 -0.233347 0.298720 0
M  V30 48 H -2.990962 -2.779064 0.838295 0
M  V30 49 H -1.912148 -1.405687 0.591855 0
M  V30 50 H -1.613870 -3.572038 -0.656117 0
M  V30 51 H -3.927115 -3.556185 -1.467598 0
M  V30 52 H -2.639379 -3.736517 -2.774245 0
M  V30 53 H -4.168822 -2.010028 -3.533830 0
M  V30 54 H -2.570840 -1.375344 -3.138850 0
M  V30 55 H 0.223065 0.419004 -0.853273 0
M  V30 END ATOM
M  V30 BEGIN BOND
M  V30 1 1 1 2
M  V30 2 1 2 3
M  V30 3 1 3 4
M  V30 4 1 4 5
M  V30 5 1 5 6
M  V30 6 2 6 7
M  V30 7 1 7 8
M  V30 8 2 8 9
M  V30 9 1 9 10
M  V30 10 1 10 11
M  V30 11 1 11 12
M  V30 12 2 12 13
M  V30 13 1 13 14
M  V30 14 2 14 15
M  V30 15 1 15 16
M  V30 16 1 16 17
M  V30 17 2 17 18
M  V30 18 1 17 19
M  V30 19 1 19 20
M  V30 20 1 20 21
M  V30 21 1 21 22
M  V30 22 1 22 23
M  V30 23 1 23 24
M  V30 24 1 24 25
M  V30 25 1 25 26
M  V30 26 2 16 27
M  V30 27 2 11 28
M  V30 28 1 28 29
M  V30 29 2 29 30
M  V30 30 1 7 2
M  V30 31 1 30 10
M  V30 32 1 30 6
M  V30 33 1 27 12
M  V30 34 1 26 21
M  V30 35 1 1 31
M  V30 36 1 1 32
M  V30 37 1 1 33
M  V30 38 1 3 34
M  V30 39 1 3 35
M  V30 40 1 4 36
M  V30 41 1 4 37
M  V30 42 1 8 38
M  V30 43 1 13 39
M  V30 44 1 14 40
M  V30 45 1 15 41
M  V30 46 1 19 42
M  V30 47 1 20 43
M  V30 48 1 20 44
M  V30 49 1 21 45
M  V30 50 1 22 46
M  V30 51 1 22 47
M  V30 52 1 23 48
M  V30 53 1 23 49
M  V30 54 1 24 50
M  V30 55 1 25 51
M  V30 56 1 25 52
M  V30 57 1 26 53
M  V30 58 1 26 54
M  V30 59 1 27 55
M  V30 END BOND
M  V30 END CTAB
M  END
>  <Dataset>  (760) 
ChEMBL_Kinases

>  <Ligand_Instance>  (760) 
nan

>  <PDB_ID>  (760) 
nan

>  <Standardized_SMILES>  (760) 
CN1CCOc2c1cnn1c(-c3cccc(C(=O)NCC4CCNCC4)c3)nnc21

>  <Name>  (760) 
nan

>  <Pocket>  (760) 
nan

>  <ATP_Site>  (760) 
nan

>  <Peripheral>  (760) 
nan

>  <Num_H_Atoms_ProtBoundConf>  (760) 
nan

>  <Num_Resolved_Atoms>  (760) 
nan

>  <Num_Not_Resolved_Atoms>  (760) 
nan

$$$$
CHEMBL4747984
     RDKit          3D

  0  0  0  0  0  0  0  0  0  0999 V3000
M  V30 BEGIN CTAB
M  V30 COUNTS 67 70 0 0 0
M  V30 BEGIN ATOM
M  V30 1 C -0.086953 0.772582 5.683150 0
M  V30 2 C 0.646291 1.548126 4.647522 0
M  V30 3 C 1.542180 2.506137 5.066071 0
M  V30 4 C 2.264830 3.269915 4.169120 0
M  V30 5 C 2.067982 3.050181 2.815462 0
M  V30 6 C 2.824781 3.849590 1.885839 0
M  V30 7 O 3.628868 4.720954 2.349770 0
M  V30 8 N 2.742034 3.739210 0.489502 0
M  V30 9 C 3.497009 4.535974 -0.476949 0
M  V30 10 C 4.025379 3.814454 -1.706134 0
M  V30 11 C 2.911972 4.766184 -1.832248 0
M  V30 12 C 1.172675 2.093103 2.444070 0
M  V30 13 C 0.425427 1.302907 3.304882 0
M  V30 14 N -0.496836 0.316853 2.852384 0
M  V30 15 C -1.748490 0.235513 3.338271 0
M  V30 16 C -2.613495 -0.733049 2.876080 0
M  V30 17 N -2.216699 -1.604153 1.937533 0
M  V30 18 C -0.963959 -1.582925 1.398511 0
M  V30 19 N -0.499650 -2.503223 0.385862 0
M  V30 20 C -1.500135 -3.457456 -0.002464 0 CFG=1
M  V30 21 C -2.710788 -2.781291 -0.563520 0
M  V30 22 C -3.999523 -3.139128 -0.213341 0
M  V30 23 C -5.132457 -2.540374 -0.707583 0
M  V30 24 C -4.968306 -1.514847 -1.612778 0
M  V30 25 C -3.689141 -1.147336 -1.971216 0
M  V30 26 C -2.531981 -1.748999 -1.475105 0
M  V30 27 C -1.042621 -4.597413 -0.826090 0 CFG=1
M  V30 28 C -2.227920 -5.491212 -1.133160 0
M  V30 29 C -0.286504 -4.298260 -2.064459 0
M  V30 30 N 0.937021 -3.586141 -1.820402 0
M  V30 31 C 1.627171 -3.282508 -3.085648 0
M  V30 32 C 1.817403 -4.540572 -1.109957 0
M  V30 33 C -0.165941 -0.578998 1.921518 0
M  V30 34 O 1.007166 -0.491680 1.475797 0
M  V30 35 H 0.613257 0.585729 6.523281 0
M  V30 36 H -0.390499 -0.241796 5.337431 0
M  V30 37 H -0.928446 1.344570 6.142840 0
M  V30 38 H 1.721814 2.705395 6.132892 0
M  V30 39 H 2.958905 4.012268 4.531123 0
M  V30 40 H 2.107859 3.051020 0.065935 0
M  V30 41 H 4.191032 5.296725 -0.097361 0
M  V30 42 H 3.915219 2.721102 -1.668284 0
M  V30 43 H 5.016030 4.125674 -2.129762 0
M  V30 44 H 3.099441 5.688374 -2.395719 0
M  V30 45 H 1.851152 4.403708 -1.939834 0
M  V30 46 H 1.020617 1.923223 1.372460 0
M  V30 47 H -2.101749 0.920635 4.094580 0
M  V30 48 H -3.644990 -0.848155 3.234485 0
M  V30 49 H 0.470598 -2.324193 0.108113 0
M  V30 50 H -1.877280 -3.908203 0.967736 0
M  V30 51 H -4.101444 -3.951994 0.503398 0
M  V30 52 H -6.118482 -2.846716 -0.411150 0
M  V30 53 H -5.832176 -1.031896 -2.012695 0
M  V30 54 H -3.584853 -0.336406 -2.686399 0
M  V30 55 H -1.548209 -1.418970 -1.792295 0
M  V30 56 H -0.365898 -5.236771 -0.187084 0
M  V30 57 H -3.070776 -4.964885 -1.599280 0
M  V30 58 H -1.853914 -6.242746 -1.888962 0
M  V30 59 H -2.475520 -6.082958 -0.245390 0
M  V30 60 H 0.018494 -5.295130 -2.494454 0
M  V30 61 H -0.897182 -3.842512 -2.871581 0
M  V30 62 H 0.841088 -3.070761 -3.855442 0
M  V30 63 H 2.320341 -4.081853 -3.379638 0
M  V30 64 H 2.199875 -2.354430 -2.913930 0
M  V30 65 H 1.537228 -4.520237 -0.036753 0
M  V30 66 H 2.828337 -4.055302 -1.167606 0
M  V30 67 H 1.834103 -5.524843 -1.576172 0
M  V30 END ATOM
M  V30 BEGIN BOND
M  V30 1 1 1 2
M  V30 2 2 2 3
M  V30 3 1 3 4
M  V30 4 2 4 5
M  V30 5 1 5 6
M  V30 6 2 6 7
M  V30 7 1 6 8
M  V30 8 1 8 9
M  V30 9 1 9 10
M  V30 10 1 10 11
M  V30 11 1 5 12
M  V30 12 2 12 13
M  V30 13 1 13 14
M  V30 14 1 14 15
M  V30 15 2 15 16
M  V30 16 1 16 17
M  V30 17 2 17 18
M  V30 18 1 18 19
M  V30 19 1 19 20
M  V30 20 1 20 21
M  V30 21 2 21 22
M  V30 22 1 22 23
M  V30 23 2 23 24
M  V30 24 1 24 25
M  V30 25 2 25 26
M  V30 26 1 20 27
M  V30 27 1 27 28
M  V30 28 1 27 29
M  V30 29 1 29 30
M  V30 30 1 30 31
M  V30 31 1 30 32
M  V30 32 1 18 33
M  V30 33 2 33 34
M  V30 34 1 13 2
M  V30 35 1 33 14
M  V30 36 1 11 9
M  V30 37 1 26 21
M  V30 38 1 1 35
M  V30 39 1 1 36
M  V30 40 1 1 37
M  V30 41 1 3 38
M  V30 42 1 4 39
M  V30 43 1 8 40
M  V30 44 1 9 41
M  V30 45 1 10 42
M  V30 46 1 10 43
M  V30 47 1 11 44
M  V30 48 1 11 45
M  V30 49 1 12 46
M  V30 50 1 15 47
M  V30 51 1 16 48
M  V30 52 1 19 49
M  V30 53 1 20 50 CFG=1
M  V30 54 1 22 51
M  V30 55 1 23 52
M  V30 56 1 24 53
M  V30 57 1 25 54
M  V30 58 1 26 55
M  V30 59 1 27 56 CFG=1
M  V30 60 1 28 57
M  V30 61 1 28 58
M  V30 62 1 28 59
M  V30 63 1 29 60
M  V30 64 1 29 61
M  V30 65 1 31 62
M  V30 66 1 31 63
M  V30 67 1 31 64
M  V30 68 1 32 65
M  V30 69 1 32 66
M  V30 70 1 32 67
M  V30 END BOND
M  V30 END CTAB
M  END
>  <Dataset>  (761) 
ChEMBL_Kinases

>  <Ligand_Instance>  (761) 
nan

>  <PDB_ID>  (761) 
nan

>  <Standardized_SMILES>  (761) 
Cc1ccc(C(=O)NC2CC2)cc1-n1ccnc(N[C@@H](c2ccccc2)[C@@H](C)CN(C)C)c1=O

>  <Name>  (761) 
nan

>  <Pocket>  (761) 
nan

>  <ATP_Site>  (761) 
nan

>  <Peripheral>  (761) 
nan

>  <Num_H_Atoms_ProtBoundConf>  (761) 
nan

>  <Num_Resolved_Atoms>  (761) 
nan

>  <Num_Not_Resolved_Atoms>  (761) 
nan

$$$$
CHEMBL4451783
     RDKit          3D

  0  0  0  0  0  0  0  0  0  0999 V3000
M  V30 BEGIN CTAB
M  V30 COUNTS 59 63 0 0 0
M  V30 BEGIN ATOM
M  V30 1 C 5.793663 -2.054404 3.829919 0
M  V30 2 C 4.676148 -1.161501 3.374267 0
M  V30 3 O 3.520203 -1.177836 3.915648 0
M  V30 4 N 4.965165 -0.290421 2.304749 0
M  V30 5 C 3.981947 0.634145 1.755012 0
M  V30 6 N 3.834473 1.444242 0.951974 0
M  V30 7 C 2.789018 2.168905 0.644099 0
M  V30 8 C 2.582888 3.201256 -0.371597 0
M  V30 9 C 1.714885 3.076147 -1.434953 0
M  V30 10 C 1.520106 4.040365 -2.387696 0
M  V30 11 C 2.250093 5.201999 -2.252453 0
M  V30 12 F 2.069091 6.168453 -3.188083 0
M  V30 13 C 3.123479 5.344236 -1.194086 0
M  V30 14 C 3.325053 4.364821 -0.222354 0
M  V30 15 C 1.712911 1.945654 1.367301 0
M  V30 16 C 0.270485 2.335352 1.601959 0
M  V30 17 C -0.120536 3.597151 1.985691 0
M  V30 18 C -1.464526 3.824369 2.175724 0
M  V30 19 N -2.360031 2.847054 1.992082 0
M  V30 20 C -2.014429 1.593708 1.614937 0
M  V30 21 N -3.021130 0.604905 1.451238 0
M  V30 22 C -2.846387 -0.735574 1.016316 0
M  V30 23 C -1.675771 -1.292578 0.561919 0
M  V30 24 C -1.559921 -2.602109 0.156844 0
M  V30 25 C -2.657939 -3.422074 0.197652 0
M  V30 26 N -2.633229 -4.793140 -0.210026 0
M  V30 27 C -3.794101 -5.662417 -0.037780 0
M  V30 28 C -3.594406 -6.911823 -0.879799 0
M  V30 29 N -3.219173 -6.529101 -2.235751 0
M  V30 30 C -1.918336 -5.883231 -2.243302 0
M  V30 31 C -1.516673 -5.479391 -0.820962 0
M  V30 32 C -3.859709 -2.910171 0.647193 0
M  V30 33 C -3.932281 -1.590526 1.044207 0
M  V30 34 N -0.700410 1.439827 1.447865 0
M  V30 35 S 2.284782 0.650844 2.500318 0
M  V30 36 H 6.268583 -2.551775 2.966856 0
M  V30 37 H 6.514735 -1.502368 4.465340 0
M  V30 38 H 5.361356 -2.874179 4.446143 0
M  V30 39 H 5.861979 -0.185757 1.782547 0
M  V30 40 H 1.191538 2.108953 -1.434565 0
M  V30 41 H 0.811255 3.814856 -3.165264 0
M  V30 42 H 3.646791 6.290460 -1.176727 0
M  V30 43 H 4.035721 4.587851 0.561485 0
M  V30 44 H 0.650973 4.346072 2.118012 0
M  V30 45 H -1.794046 4.816734 2.480668 0
M  V30 46 H -3.995248 0.917112 1.683064 0
M  V30 47 H -0.802135 -0.691016 0.511239 0
M  V30 48 H -0.606256 -2.972739 -0.187810 0
M  V30 49 H -3.774634 -6.028406 1.026485 0
M  V30 50 H -4.738262 -5.188195 -0.332574 0
M  V30 51 H -4.589162 -7.402335 -0.946445 0
M  V30 52 H -2.907514 -7.641340 -0.440485 0
M  V30 53 H -3.236460 -7.412340 -2.795761 0
M  V30 54 H -2.019614 -4.956591 -2.846415 0
M  V30 55 H -1.148236 -6.540039 -2.702540 0
M  V30 56 H -1.298548 -6.423489 -0.266621 0
M  V30 57 H -0.604459 -4.846640 -0.917082 0
M  V30 58 H -4.787249 -3.468955 0.719990 0
M  V30 59 H -4.897639 -1.197949 1.401938 0
M  V30 END ATOM
M  V30 BEGIN BOND
M  V30 1 1 1 2
M  V30 2 2 2 3
M  V30 3 1 2 4
M  V30 4 1 4 5
M  V30 5 2 5 6
M  V30 6 1 6 7
M  V30 7 1 7 8
M  V30 8 2 8 9
M  V30 9 1 9 10
M  V30 10 2 10 11
M  V30 11 1 11 12
M  V30 12 1 11 13
M  V30 13 2 13 14
M  V30 14 2 7 15
M  V30 15 1 15 16
M  V30 16 2 16 17
M  V30 17 1 17 18
M  V30 18 2 18 19
M  V30 19 1 19 20
M  V30 20 1 20 21
M  V30 21 1 21 22
M  V30 22 2 22 23
M  V30 23 1 23 24
M  V30 24 2 24 25
M  V30 25 1 25 26
M  V30 26 1 26 27
M  V30 27 1 27 28
M  V30 28 1 28 29
M  V30 29 1 29 30
M  V30 30 1 30 31
M  V30 31 1 25 32
M  V30 32 2 32 33
M  V30 33 2 20 34
M  V30 34 1 15 35
M  V30 35 1 35 5
M  V30 36 1 14 8
M  V30 37 1 34 16
M  V30 38 1 33 22
M  V30 39 1 31 26
M  V30 40 1 1 36
M  V30 41 1 1 37
M  V30 42 1 1 38
M  V30 43 1 4 39
M  V30 44 1 9 40
M  V30 45 1 10 41
M  V30 46 1 13 42
M  V30 47 1 14 43
M  V30 48 1 17 44
M  V30 49 1 18 45
M  V30 50 1 21 46
M  V30 51 1 23 47
M  V30 52 1 24 48
M  V30 53 1 27 49
M  V30 54 1 27 50
M  V30 55 1 28 51
M  V30 56 1 28 52
M  V30 57 1 29 53
M  V30 58 1 30 54
M  V30 59 1 30 55
M  V30 60 1 31 56
M  V30 61 1 31 57
M  V30 62 1 32 58
M  V30 63 1 33 59
M  V30 END BOND
M  V30 END CTAB
M  END
>  <Dataset>  (762) 
ChEMBL_Kinases

>  <Ligand_Instance>  (762) 
nan

>  <PDB_ID>  (762) 
nan

>  <Standardized_SMILES>  (762) 
CC(=O)Nc1nc(-c2ccc(F)cc2)c(-c2ccnc(Nc3ccc(N4CCNCC4)cc3)n2)s1

>  <Name>  (762) 
nan

>  <Pocket>  (762) 
nan

>  <ATP_Site>  (762) 
nan

>  <Peripheral>  (762) 
nan

>  <Num_H_Atoms_ProtBoundConf>  (762) 
nan

>  <Num_Resolved_Atoms>  (762) 
nan

>  <Num_Not_Resolved_Atoms>  (762) 
nan

$$$$
CHEMBL4451765
     RDKit          3D

  0  0  0  0  0  0  0  0  0  0999 V3000
M  V30 BEGIN CTAB
M  V30 COUNTS 58 61 0 0 0
M  V30 BEGIN ATOM
M  V30 1 C 1.629384 -0.967184 5.216998 0
M  V30 2 N 2.937942 -0.407268 5.496111 0
M  V30 3 N 3.528678 -0.664846 6.674839 0
M  V30 4 C 4.725057 -0.067423 6.752063 0
M  V30 5 C 4.807385 0.565055 5.536736 0
M  V30 6 Cl 6.277711 1.463961 5.292227 0
M  V30 7 C 3.716535 0.374235 4.735856 0
M  V30 8 C 3.440327 0.867368 3.414010 0
M  V30 9 C 2.290487 0.599424 2.710189 0
M  V30 10 C 2.263924 1.187881 1.462634 0
M  V30 11 C 1.304452 1.211907 0.362610 0
M  V30 12 O 1.489938 1.823298 -0.700395 0
M  V30 13 N 0.081771 0.490612 0.517890 0
M  V30 14 C -0.845494 0.523529 -0.565282 0 CFG=2
M  V30 15 C -2.191985 1.035086 -0.130867 0
M  V30 16 N -3.209283 0.937704 -1.097547 0
M  V30 17 C -3.245938 -0.219046 -1.917780 0 CFG=2
M  V30 18 C -4.155594 -1.230838 -1.253217 0
M  V30 19 C -4.272588 -2.504329 -2.035533 0
M  V30 20 C -4.824350 -2.318399 -3.417446 0
M  V30 21 O -6.094748 -1.770308 -3.437091 0
M  V30 22 C -1.903725 -0.776833 -2.284535 0
M  V30 23 C -1.062566 -0.904158 -1.042962 0 CFG=1
M  V30 24 C 0.188341 -1.643975 -1.232478 0
M  V30 25 C 1.179491 -1.275121 -2.115127 0
M  V30 26 C 2.349954 -1.974399 -2.287070 0
M  V30 27 C 2.583500 -3.114979 -1.553614 0
M  V30 28 Cl 4.004575 -4.134364 -1.631692 0
M  V30 29 C 1.615632 -3.516402 -0.660075 0
M  V30 30 Cl 1.780115 -4.955150 0.343868 0
M  V30 31 C 0.440611 -2.800676 -0.497990 0
M  V30 32 O 3.427019 1.840006 1.385482 0
M  V30 33 C 4.087122 1.650342 2.500760 0
M  V30 34 Cl 5.647777 2.382745 2.692425 0
M  V30 35 H 1.666399 -1.715027 4.392257 0
M  V30 36 H 0.833545 -0.214489 5.133671 0
M  V30 37 H 1.314757 -1.594807 6.104918 0
M  V30 38 H 5.324692 -0.177798 7.636657 0
M  V30 39 H 1.390537 0.035678 2.893105 0
M  V30 40 H -0.183162 -0.058508 1.364997 0
M  V30 41 H -0.501118 1.121520 -1.426751 0
M  V30 42 H -2.506504 0.548553 0.813941 0
M  V30 43 H -2.048911 2.118863 0.109153 0
M  V30 44 H -3.638130 1.791995 -1.462665 0
M  V30 45 H -3.755915 0.076162 -2.859240 0
M  V30 46 H -3.733959 -1.462095 -0.270459 0
M  V30 47 H -5.153237 -0.763369 -1.211999 0
M  V30 48 H -3.371980 -3.114406 -2.083970 0
M  V30 49 H -5.030412 -3.129062 -1.487366 0
M  V30 50 H -4.937236 -3.358383 -3.838372 0
M  V30 51 H -4.180034 -1.775702 -4.113198 0
M  V30 52 H -6.475448 -1.601098 -2.559796 0
M  V30 53 H -1.431378 -0.072931 -3.002149 0
M  V30 54 H -1.997784 -1.759454 -2.743597 0
M  V30 55 H -1.692816 -1.423358 -0.262948 0
M  V30 56 H 1.047720 -0.393942 -2.711225 0
M  V30 57 H 3.138281 -1.703386 -2.971942 0
M  V30 58 H -0.324757 -3.120260 0.210249 0
M  V30 END ATOM
M  V30 BEGIN BOND
M  V30 1 1 1 2
M  V30 2 1 2 3
M  V30 3 2 3 4
M  V30 4 1 4 5
M  V30 5 1 5 6
M  V30 6 2 5 7
M  V30 7 1 7 8
M  V30 8 1 8 9
M  V30 9 2 9 10
M  V30 10 1 10 11
M  V30 11 2 11 12
M  V30 12 1 11 13
M  V30 13 1 13 14
M  V30 14 1 14 15
M  V30 15 1 15 16
M  V30 16 1 16 17
M  V30 17 1 17 18
M  V30 18 1 18 19
M  V30 19 1 19 20
M  V30 20 1 20 21
M  V30 21 1 17 22
M  V30 22 1 22 23
M  V30 23 1 23 24
M  V30 24 2 24 25
M  V30 25 1 25 26
M  V30 26 2 26 27
M  V30 27 1 27 28
M  V30 28 1 27 29
M  V30 29 1 29 30
M  V30 30 2 29 31
M  V30 31 1 10 32
M  V30 32 1 32 33
M  V30 33 1 33 34
M  V30 34 1 7 2
M  V30 35 2 33 8
M  V30 36 1 23 14
M  V30 37 1 31 24
M  V30 38 1 1 35
M  V30 39 1 1 36
M  V30 40 1 1 37
M  V30 41 1 4 38
M  V30 42 1 9 39
M  V30 43 1 13 40
M  V30 44 1 14 41 CFG=3
M  V30 45 1 15 42
M  V30 46 1 15 43
M  V30 47 1 16 44
M  V30 48 1 17 45 CFG=3
M  V30 49 1 18 46
M  V30 50 1 18 47
M  V30 51 1 19 48
M  V30 52 1 19 49
M  V30 53 1 20 50
M  V30 54 1 20 51
M  V30 55 1 21 52
M  V30 56 1 22 53
M  V30 57 1 22 54
M  V30 58 1 23 55 CFG=1
M  V30 59 1 25 56
M  V30 60 1 26 57
M  V30 61 1 31 58
M  V30 END BOND
M  V30 END CTAB
M  END
>  <Dataset>  (763) 
ChEMBL_Kinases

>  <Ligand_Instance>  (763) 
nan

>  <PDB_ID>  (763) 
nan

>  <Standardized_SMILES>  (763) 
Cn1ncc(Cl)c1-c1cc(C(=O)N[C@@H]2CN[C@H](CCCO)C[C@H]2c2ccc(Cl)c(Cl)c2)oc1Cl

>  <Name>  (763) 
nan

>  <Pocket>  (763) 
nan

>  <ATP_Site>  (763) 
nan

>  <Peripheral>  (763) 
nan

>  <Num_H_Atoms_ProtBoundConf>  (763) 
nan

>  <Num_Resolved_Atoms>  (763) 
nan

>  <Num_Not_Resolved_Atoms>  (763) 
nan

$$$$
CHEMBL4451691
     RDKit          3D

  0  0  0  0  0  0  0  0  0  0999 V3000
M  V30 BEGIN CTAB
M  V30 COUNTS 41 44 0 0 0
M  V30 BEGIN ATOM
M  V30 1 N 1.788793 -4.974205 1.557544 0
M  V30 2 C 1.471468 -3.787610 2.307126 0
M  V30 3 O 1.533371 -3.986777 3.533092 0
M  V30 4 C 1.141484 -2.589850 1.542212 0
M  V30 5 C 1.123450 -2.572196 0.166390 0
M  V30 6 C 0.797267 -1.381833 -0.439919 0
M  V30 7 C 0.766861 -1.312660 -1.897598 0
M  V30 8 C -0.089637 -0.472753 -2.617299 0
M  V30 9 C -0.033694 -0.485445 -3.990129 0
M  V30 10 C 0.855022 -1.314282 -4.684058 0
M  V30 11 C 1.702118 -2.144760 -3.979198 0
M  V30 12 C 1.641644 -2.128346 -2.585400 0
M  V30 13 C 0.489504 -0.213465 0.243508 0
M  V30 14 C 0.510169 -0.241486 1.622048 0
M  V30 15 C 0.253912 0.746663 2.551297 0
M  V30 16 C -0.130694 2.162406 2.259661 0
M  V30 17 C -1.636252 2.311866 2.176974 0
M  V30 18 C -2.031870 2.096377 3.640589 0
M  V30 19 C -0.865499 2.731789 4.320816 0
M  V30 20 O -1.051708 2.944244 5.567297 0
M  V30 21 N 0.222794 2.967141 3.412073 0
M  V30 22 C 0.432852 0.126970 3.779792 0
M  V30 23 N 0.775300 -1.155268 3.554060 0
M  V30 24 C 0.837678 -1.436555 2.236087 0
M  V30 25 H 1.763961 -5.961022 1.886717 0
M  V30 26 H 2.100055 -5.261658 0.604062 0
M  V30 27 H 1.354750 -3.450829 -0.381150 0
M  V30 28 H -0.763755 0.154981 -2.058385 0
M  V30 29 H -0.725033 0.190358 -4.494204 0
M  V30 30 H 0.821469 -1.249005 -5.775533 0
M  V30 31 H 2.361606 -2.758306 -4.559002 0
M  V30 32 H 2.344181 -2.813603 -2.109198 0
M  V30 33 H 0.241013 0.693974 -0.264822 0
M  V30 34 H 0.383340 2.569094 1.390518 0
M  V30 35 H -1.859957 3.352499 1.943020 0
M  V30 36 H -2.113206 1.576401 1.527165 0
M  V30 37 H -2.993793 2.588007 3.875816 0
M  V30 38 H -2.082932 0.997328 3.823088 0
M  V30 39 H 0.932639 3.630917 3.834963 0
M  V30 40 H 0.313309 0.607645 4.733018 0
M  V30 41 H 0.970852 -1.852795 4.302043 0
M  V30 END ATOM
M  V30 BEGIN BOND
M  V30 1 1 1 2
M  V30 2 2 2 3
M  V30 3 1 2 4
M  V30 4 2 4 5
M  V30 5 1 5 6
M  V30 6 1 6 7
M  V30 7 2 7 8
M  V30 8 1 8 9
M  V30 9 2 9 10
M  V30 10 1 10 11
M  V30 11 2 11 12
M  V30 12 2 6 13
M  V30 13 1 13 14
M  V30 14 1 14 15
M  V30 15 1 15 16
M  V30 16 1 16 17
M  V30 17 1 17 18
M  V30 18 1 18 19
M  V30 19 2 19 20
M  V30 20 1 19 21
M  V30 21 2 15 22
M  V30 22 1 22 23
M  V30 23 1 23 24
M  V30 24 1 24 4
M  V30 25 1 12 7
M  V30 26 2 24 14
M  V30 27 1 21 16
M  V30 28 1 1 25
M  V30 29 1 1 26
M  V30 30 1 5 27
M  V30 31 1 8 28
M  V30 32 1 9 29
M  V30 33 1 10 30
M  V30 34 1 11 31
M  V30 35 1 12 32
M  V30 36 1 13 33
M  V30 37 1 16 34
M  V30 38 1 17 35
M  V30 39 1 17 36
M  V30 40 1 18 37
M  V30 41 1 18 38
M  V30 42 1 21 39
M  V30 43 1 22 40
M  V30 44 1 23 41
M  V30 END BOND
M  V30 END CTAB
M  END
>  <Dataset>  (764) 
ChEMBL_Kinases

>  <Ligand_Instance>  (764) 
nan

>  <PDB_ID>  (764) 
nan

>  <Standardized_SMILES>  (764) 
NC(=O)c1cc(-c2ccccc2)cc2c(C3CCC(=O)N3)c[nH]c12

>  <Name>  (764) 
nan

>  <Pocket>  (764) 
nan

>  <ATP_Site>  (764) 
nan

>  <Peripheral>  (764) 
nan

>  <Num_H_Atoms_ProtBoundConf>  (764) 
nan

>  <Num_Resolved_Atoms>  (764) 
nan

>  <Num_Not_Resolved_Atoms>  (764) 
nan

$$$$
CHEMBL4748552
     RDKit          3D

  0  0  0  0  0  0  0  0  0  0999 V3000
M  V30 BEGIN CTAB
M  V30 COUNTS 48 51 0 0 0
M  V30 BEGIN ATOM
M  V30 1 C 2.455099 -2.988672 8.673581 0
M  V30 2 C 3.341310 -3.213236 7.478894 0
M  V30 3 N 2.632552 -2.696340 6.303932 0
M  V30 4 C 3.414127 -2.877118 5.149105 0
M  V30 5 O 4.491048 -3.442260 5.549482 0
M  V30 6 C 3.282070 -2.592757 3.744800 0
M  V30 7 N 4.313904 -2.947101 2.948946 0
M  V30 8 N 4.030326 -2.615417 1.691166 0
M  V30 9 C 2.824378 -2.035413 1.576044 0
M  V30 10 C 2.047463 -1.513078 0.564966 0
M  V30 11 C 0.793364 -0.976606 0.865529 0
M  V30 12 C -0.029122 -0.423386 -0.206296 0
M  V30 13 C 0.565377 0.406398 -1.145593 0
M  V30 14 C -0.146260 0.971608 -2.193592 0
M  V30 15 C -1.499221 0.713733 -2.328751 0
M  V30 16 N -2.237708 1.290790 -3.403086 0
M  V30 17 C -1.715908 1.368448 -4.655050 0
M  V30 18 C -2.433455 1.928153 -5.694870 0
M  V30 19 C -3.712175 2.430979 -5.498609 0
M  V30 20 C -4.228234 2.344010 -4.218301 0
M  V30 21 C -5.603473 2.873359 -3.959861 0
M  V30 22 C -3.487648 1.779808 -3.200934 0
M  V30 23 O -4.035196 1.742945 -2.072091 0
M  V30 24 C -2.113255 -0.114905 -1.398192 0
M  V30 25 C -1.377951 -0.663719 -0.364396 0
M  V30 26 Cl -2.173534 -1.695506 0.782978 0
M  V30 27 C 0.376708 -0.994128 2.198997 0
M  V30 28 C 1.151358 -1.515481 3.210531 0
M  V30 29 C 2.377478 -2.034018 2.879088 0
M  V30 30 H 1.366133 -3.008783 8.374541 0
M  V30 31 H 2.605451 -1.944869 9.073756 0
M  V30 32 H 2.580285 -3.712151 9.487332 0
M  V30 33 H 4.311155 -2.709600 7.639592 0
M  V30 34 H 3.516512 -4.298792 7.334318 0
M  V30 35 H 1.722729 -2.239960 6.100073 0
M  V30 36 H 4.686457 -2.795586 0.900558 0
M  V30 37 H 2.449363 -1.539184 -0.450243 0
M  V30 38 H 1.634824 0.639186 -1.079114 0
M  V30 39 H 0.316927 1.624809 -2.934749 0
M  V30 40 H -0.709269 0.978603 -4.834363 0
M  V30 41 H -1.967861 1.968047 -6.690167 0
M  V30 42 H -4.258283 2.867222 -6.332518 0
M  V30 43 H -6.176435 2.951971 -4.901924 0
M  V30 44 H -6.085248 2.129286 -3.265115 0
M  V30 45 H -5.585842 3.833154 -3.396520 0
M  V30 46 H -3.153379 -0.338667 -1.466530 0
M  V30 47 H -0.601849 -0.578693 2.453522 0
M  V30 48 H 0.788932 -1.504292 4.203864 0
M  V30 END ATOM
M  V30 BEGIN BOND
M  V30 1 1 1 2
M  V30 2 1 2 3
M  V30 3 1 3 4
M  V30 4 2 4 5
M  V30 5 1 4 6
M  V30 6 2 6 7
M  V30 7 1 7 8
M  V30 8 1 8 9
M  V30 9 2 9 10
M  V30 10 1 10 11
M  V30 11 1 11 12
M  V30 12 2 12 13
M  V30 13 1 13 14
M  V30 14 2 14 15
M  V30 15 1 15 16
M  V30 16 1 16 17
M  V30 17 2 17 18
M  V30 18 1 18 19
M  V30 19 2 19 20
M  V30 20 1 20 21
M  V30 21 1 20 22
M  V30 22 2 22 23
M  V30 23 1 15 24
M  V30 24 2 24 25
M  V30 25 1 25 26
M  V30 26 2 11 27
M  V30 27 1 27 28
M  V30 28 2 28 29
M  V30 29 1 29 6
M  V30 30 1 29 9
M  V30 31 1 25 12
M  V30 32 1 22 16
M  V30 33 1 1 30
M  V30 34 1 1 31
M  V30 35 1 1 32
M  V30 36 1 2 33
M  V30 37 1 2 34
M  V30 38 1 3 35
M  V30 39 1 8 36
M  V30 40 1 10 37
M  V30 41 1 13 38
M  V30 42 1 14 39
M  V30 43 1 17 40
M  V30 44 1 18 41
M  V30 45 1 19 42
M  V30 46 1 21 43
M  V30 47 1 21 44
M  V30 48 1 21 45
M  V30 49 1 24 46
M  V30 50 1 27 47
M  V30 51 1 28 48
M  V30 END BOND
M  V30 END CTAB
M  END
>  <Dataset>  (765) 
ChEMBL_Kinases

>  <Ligand_Instance>  (765) 
nan

>  <PDB_ID>  (765) 
nan

>  <Standardized_SMILES>  (765) 
CCNC(=O)c1n[nH]c2cc(-c3ccc(-n4cccc(C)c4=O)cc3Cl)ccc12

>  <Name>  (765) 
nan

>  <Pocket>  (765) 
nan

>  <ATP_Site>  (765) 
nan

>  <Peripheral>  (765) 
nan

>  <Num_H_Atoms_ProtBoundConf>  (765) 
nan

>  <Num_Resolved_Atoms>  (765) 
nan

>  <Num_Not_Resolved_Atoms>  (765) 
nan

$$$$
CHEMBL4748052
     RDKit          3D

  0  0  0  0  0  0  0  0  0  0999 V3000
M  V30 BEGIN CTAB
M  V30 COUNTS 53 56 0 0 0
M  V30 BEGIN ATOM
M  V30 1 O 1.200289 1.548974 0.419777 0
M  V30 2 C 1.030616 0.356766 0.081966 0
M  V30 3 C 2.386814 -0.080892 -0.362289 0
M  V30 4 C 3.388751 0.993148 0.020592 0
M  V30 5 N 4.714272 0.682983 -0.361140 0
M  V30 6 C 5.373482 -0.378671 0.301237 0
M  V30 7 C 5.880478 0.046411 1.641357 0
M  V30 8 O 6.838225 1.048375 1.473493 0
M  V30 9 C 6.358369 2.134365 0.792636 0
M  V30 10 C 5.547226 1.842185 -0.425920 0
M  V30 11 N -0.216052 -0.309411 0.155980 0
M  V30 12 C -1.430629 0.264968 0.607398 0
M  V30 13 C -1.626473 1.596810 0.854464 0
M  V30 14 C -2.828068 2.088768 1.348342 0
M  V30 15 C -3.860679 1.214941 1.601512 0
M  V30 16 C -3.626936 -0.115836 1.340751 0
M  V30 17 C -2.454920 -0.653229 0.850756 0
M  V30 18 C -4.866025 -0.778774 1.717303 0
M  V30 19 C -5.151056 -2.061384 1.629989 0
M  V30 20 C -4.279259 -3.109227 1.126561 0
M  V30 21 C -3.464943 -4.023946 1.814070 0
M  V30 22 C -2.788014 -4.957714 1.068706 0
M  V30 23 C -2.837658 -5.075236 -0.298664 0
M  V30 24 O -2.086084 -6.076678 -0.868570 0
M  V30 25 C -3.645148 -4.166771 -0.965947 0
M  V30 26 O -3.673596 -4.314847 -2.344484 0
M  V30 27 C -4.347573 -3.209331 -0.272575 0
M  V30 28 C -5.861741 0.176682 2.216905 0
M  V30 29 O -7.040532 -0.001241 2.637260 0
M  V30 30 N -5.164452 1.428456 2.118896 0
M  V30 31 H 2.473997 -0.186509 -1.462447 0
M  V30 32 H 2.588924 -1.059074 0.085521 0
M  V30 33 H 3.067511 1.932339 -0.455116 0
M  V30 34 H 3.274920 1.194161 1.124648 0
M  V30 35 H 6.294888 -0.620695 -0.309291 0
M  V30 36 H 4.826090 -1.342291 0.323959 0
M  V30 37 H 6.455430 -0.821724 2.075317 0
M  V30 38 H 5.102023 0.281174 2.360209 0
M  V30 39 H 7.268333 2.712878 0.451204 0
M  V30 40 H 5.813808 2.860696 1.456425 0
M  V30 41 H 4.966622 2.771826 -0.639820 0
M  V30 42 H 6.247071 1.684046 -1.298386 0
M  V30 43 H -0.077856 -1.269813 -0.177415 0
M  V30 44 H -0.872456 2.335772 0.676204 0
M  V30 45 H -2.954136 3.153437 1.537984 0
M  V30 46 H -2.259973 -1.675716 0.655588 0
M  V30 47 H -6.116999 -2.490378 1.945605 0
M  V30 48 H -3.494220 -3.852619 2.876093 0
M  V30 49 H -2.193973 -5.608568 1.714831 0
M  V30 50 H -1.402080 -5.926655 -1.589435 0
M  V30 51 H -4.367503 -4.998153 -2.684921 0
M  V30 52 H -4.942186 -2.563080 -0.917987 0
M  V30 53 H -5.580853 2.364321 2.398473 0
M  V30 END ATOM
M  V30 BEGIN BOND
M  V30 1 2 1 2
M  V30 2 1 2 3
M  V30 3 1 3 4
M  V30 4 1 4 5
M  V30 5 1 5 6
M  V30 6 1 6 7
M  V30 7 1 7 8
M  V30 8 1 8 9
M  V30 9 1 9 10
M  V30 10 1 2 11
M  V30 11 1 11 12
M  V30 12 2 12 13
M  V30 13 1 13 14
M  V30 14 2 14 15
M  V30 15 1 15 16
M  V30 16 2 16 17
M  V30 17 1 16 18
M  V30 18 2 18 19
M  V30 19 1 19 20
M  V30 20 2 20 21
M  V30 21 1 21 22
M  V30 22 2 22 23
M  V30 23 1 23 24
M  V30 24 1 23 25
M  V30 25 1 25 26
M  V30 26 2 25 27
M  V30 27 1 18 28
M  V30 28 2 28 29
M  V30 29 1 28 30
M  V30 30 1 10 5
M  V30 31 1 17 12
M  V30 32 1 27 20
M  V30 33 1 30 15
M  V30 34 1 3 31
M  V30 35 1 3 32
M  V30 36 1 4 33
M  V30 37 1 4 34
M  V30 38 1 6 35
M  V30 39 1 6 36
M  V30 40 1 7 37
M  V30 41 1 7 38
M  V30 42 1 9 39
M  V30 43 1 9 40
M  V30 44 1 10 41
M  V30 45 1 10 42
M  V30 46 1 11 43
M  V30 47 1 13 44
M  V30 48 1 14 45
M  V30 49 1 17 46
M  V30 50 1 19 47
M  V30 51 1 21 48
M  V30 52 1 22 49
M  V30 53 1 24 50
M  V30 54 1 26 51
M  V30 55 1 27 52
M  V30 56 1 30 53
M  V30 END BOND
M  V30 END CTAB
M  END
>  <Dataset>  (766) 
ChEMBL_Kinases

>  <Ligand_Instance>  (766) 
nan

>  <PDB_ID>  (766) 
nan

>  <Standardized_SMILES>  (766) 
O=C(CCN1CCOCC1)Nc1ccc2c(c1)/C(=C\c1ccc(O)c(O)c1)C(=O)N2

>  <Name>  (766) 
nan

>  <Pocket>  (766) 
nan

>  <ATP_Site>  (766) 
nan

>  <Peripheral>  (766) 
nan

>  <Num_H_Atoms_ProtBoundConf>  (766) 
nan

>  <Num_Resolved_Atoms>  (766) 
nan

>  <Num_Not_Resolved_Atoms>  (766) 
nan

$$$$
CHEMBL474807
     RDKit          3D

  0  0  0  0  0  0  0  0  0  0999 V3000
M  V30 BEGIN CTAB
M  V30 COUNTS 59 64 0 0 0
M  V30 BEGIN ATOM
M  V30 1 C 5.352061 -2.127538 4.177330 0
M  V30 2 N 4.249057 -2.651920 3.422740 0
M  V30 3 C 2.997020 -2.097161 3.821149 0
M  V30 4 C 2.356652 -1.177746 2.819357 0
M  V30 5 N 3.357459 -0.457097 2.029470 0
M  V30 6 C 3.494724 0.906831 1.732550 0
M  V30 7 C 4.660024 1.543094 2.146543 0
M  V30 8 C 4.858208 2.900656 1.882395 0
M  V30 9 C 3.902380 3.647027 1.203271 0
M  V30 10 C 2.732744 3.023044 0.783785 0
M  V30 11 N 1.599506 3.353966 0.126677 0
M  V30 12 C 0.790137 2.317612 -0.001818 0
M  V30 13 C -0.516088 2.272807 -0.645562 0
M  V30 14 N -1.192680 3.255465 -1.248726 0
M  V30 15 N -2.365545 2.816946 -1.719309 0
M  V30 16 C -2.509878 1.512481 -1.441436 0
M  V30 17 C -3.452589 0.526617 -1.649657 0
M  V30 18 C -3.254064 -0.764608 -1.203349 0
M  V30 19 C -4.223851 -1.836466 -1.401807 0
M  V30 20 C -4.987735 -1.772072 -2.555785 0
M  V30 21 C -5.919887 -2.763289 -2.789953 0
M  V30 22 C -6.056614 -3.793650 -1.852925 0
M  V30 23 C -7.077643 -4.866717 -2.122858 0
M  V30 24 O -6.442048 -5.861474 -2.836915 0
M  V30 25 C -5.285738 -3.844726 -0.703610 0
M  V30 26 C -4.339584 -2.842394 -0.461903 0
M  V30 27 C -2.081599 -1.110932 -0.522197 0
M  V30 28 C -1.143590 -0.119548 -0.317979 0
M  V30 29 C -1.350642 1.178715 -0.770430 0
M  V30 30 N 1.390288 1.264312 0.581265 0
M  V30 31 C 2.575491 1.687076 1.062605 0
M  V30 32 C 4.422626 -1.246802 1.420225 0
M  V30 33 C 4.472974 -2.639016 2.002636 0
M  V30 34 H 5.340605 -2.632132 5.181632 0
M  V30 35 H 6.276210 -2.358218 3.621843 0
M  V30 36 H 5.248769 -1.017791 4.322548 0
M  V30 37 H 3.182067 -1.471263 4.736192 0
M  V30 38 H 2.264999 -2.854396 4.150323 0
M  V30 39 H 1.699212 -0.427220 3.305711 0
M  V30 40 H 1.720098 -1.750280 2.115869 0
M  V30 41 H 5.468778 1.065192 2.680399 0
M  V30 42 H 5.746189 3.435097 2.184126 0
M  V30 43 H 3.999014 4.691274 0.972635 0
M  V30 44 H 1.432036 4.333003 -0.219653 0
M  V30 45 H -3.085857 3.385556 -2.233746 0
M  V30 46 H -4.353685 0.779914 -2.169753 0
M  V30 47 H -4.860997 -0.957583 -3.270093 0
M  V30 48 H -6.547928 -2.774111 -3.668388 0
M  V30 49 H -7.541959 -5.235583 -1.189326 0
M  V30 50 H -7.873925 -4.459758 -2.805230 0
M  V30 51 H -5.891013 -6.480567 -2.273810 0
M  V30 52 H -5.384500 -4.632890 0.021327 0
M  V30 53 H -3.731380 -2.859829 0.419631 0
M  V30 54 H -1.915837 -2.133357 -0.164467 0
M  V30 55 H -0.254738 -0.416309 0.207525 0
M  V30 56 H 4.114405 -1.351651 0.344628 0
M  V30 57 H 5.400776 -0.754712 1.432081 0
M  V30 58 H 3.732615 -3.324632 1.539068 0
M  V30 59 H 5.473338 -3.046181 1.802699 0
M  V30 END ATOM
M  V30 BEGIN BOND
M  V30 1 1 1 2
M  V30 2 1 2 3
M  V30 3 1 3 4
M  V30 4 1 4 5
M  V30 5 1 5 6
M  V30 6 2 6 7
M  V30 7 1 7 8
M  V30 8 2 8 9
M  V30 9 1 9 10
M  V30 10 1 10 11
M  V30 11 1 11 12
M  V30 12 1 12 13
M  V30 13 2 13 14
M  V30 14 1 14 15
M  V30 15 1 15 16
M  V30 16 2 16 17
M  V30 17 1 17 18
M  V30 18 1 18 19
M  V30 19 2 19 20
M  V30 20 1 20 21
M  V30 21 2 21 22
M  V30 22 1 22 23
M  V30 23 1 23 24
M  V30 24 1 22 25
M  V30 25 2 25 26
M  V30 26 2 18 27
M  V30 27 1 27 28
M  V30 28 2 28 29
M  V30 29 2 12 30
M  V30 30 1 30 31
M  V30 31 1 5 32
M  V30 32 1 32 33
M  V30 33 1 33 2
M  V30 34 1 31 6
M  V30 35 2 31 10
M  V30 36 1 29 13
M  V30 37 1 29 16
M  V30 38 1 26 19
M  V30 39 1 1 34
M  V30 40 1 1 35
M  V30 41 1 1 36
M  V30 42 1 3 37
M  V30 43 1 3 38
M  V30 44 1 4 39
M  V30 45 1 4 40
M  V30 46 1 7 41
M  V30 47 1 8 42
M  V30 48 1 9 43
M  V30 49 1 11 44
M  V30 50 1 15 45
M  V30 51 1 17 46
M  V30 52 1 20 47
M  V30 53 1 21 48
M  V30 54 1 23 49
M  V30 55 1 23 50
M  V30 56 1 24 51
M  V30 57 1 25 52
M  V30 58 1 26 53
M  V30 59 1 27 54
M  V30 60 1 28 55
M  V30 61 1 32 56
M  V30 62 1 32 57
M  V30 63 1 33 58
M  V30 64 1 33 59
M  V30 END BOND
M  V30 END CTAB
M  END
>  <Dataset>  (767) 
ChEMBL_Kinases

>  <Ligand_Instance>  (767) 
nan

>  <PDB_ID>  (767) 
nan

>  <Standardized_SMILES>  (767) 
CN1CCN(c2cccc3[nH]c(-c4n[nH]c5cc(-c6ccc(CO)cc6)ccc45)nc23)CC1

>  <Name>  (767) 
nan

>  <Pocket>  (767) 
nan

>  <ATP_Site>  (767) 
nan

>  <Peripheral>  (767) 
nan

>  <Num_H_Atoms_ProtBoundConf>  (767) 
nan

>  <Num_Resolved_Atoms>  (767) 
nan

>  <Num_Not_Resolved_Atoms>  (767) 
nan

$$$$
CHEMBL4748084
     RDKit          3D

  0  0  0  0  0  0  0  0  0  0999 V3000
M  V30 BEGIN CTAB
M  V30 COUNTS 37 40 0 0 0
M  V30 BEGIN ATOM
M  V30 1 O -0.133582 -1.526152 2.305019 0
M  V30 2 C 0.187811 -0.472820 1.722403 0
M  V30 3 C 1.496080 -0.059451 1.730379 0
M  V30 4 C 2.434636 -0.827704 2.390082 0
M  V30 5 C 3.762162 -0.383253 2.382811 0
M  V30 6 F 4.678654 -1.145226 3.034224 0
M  V30 7 C 4.189315 0.781375 1.753007 0
M  V30 8 C 3.224945 1.527277 1.101869 0
M  V30 9 C 1.922601 1.093179 1.107821 0
M  V30 10 N 0.971706 1.797592 0.484847 0
M  V30 11 C 1.020526 2.939096 -0.206488 0
M  V30 12 S 2.231255 3.952830 -0.586767 0
M  V30 13 N -0.208201 3.255313 -0.646648 0
M  V30 14 N -1.027487 2.283610 -0.213821 0
M  V30 15 C -0.304826 1.384425 0.483099 0
M  V30 16 N -0.748058 0.258220 1.086080 0
M  V30 17 C -2.122913 -0.119930 1.043125 0
M  V30 18 C -2.493173 -0.994342 -0.130183 0
M  V30 19 C -1.752061 -2.272078 -0.167945 0
M  V30 20 C -2.136187 -3.460166 0.419200 0
M  V30 21 C -1.371411 -4.606209 0.327370 0
M  V30 22 C -0.174234 -4.528808 -0.390439 0
M  V30 23 Cl 0.837602 -5.946458 -0.542175 0
M  V30 24 C 0.254451 -3.352945 -0.999668 0
M  V30 25 C -0.553595 -2.233754 -0.874515 0
M  V30 26 H 2.195844 -1.750624 2.909128 0
M  V30 27 H 5.239928 1.035651 1.807107 0
M  V30 28 H 3.602247 2.409638 0.635459 0
M  V30 29 H -0.595868 4.044992 -1.209267 0
M  V30 30 H -2.492119 -0.555074 1.988111 0
M  V30 31 H -2.716007 0.820566 0.910482 0
M  V30 32 H -3.567020 -1.279978 0.040137 0
M  V30 33 H -2.466445 -0.449849 -1.089105 0
M  V30 34 H -3.082010 -3.421160 0.955581 0
M  V30 35 H -1.697094 -5.521206 0.796867 0
M  V30 36 H 1.184259 -3.309565 -1.552027 0
M  V30 37 H -0.194084 -1.323436 -1.362188 0
M  V30 END ATOM
M  V30 BEGIN BOND
M  V30 1 2 1 2
M  V30 2 1 2 3
M  V30 3 2 3 4
M  V30 4 1 4 5
M  V30 5 1 5 6
M  V30 6 2 5 7
M  V30 7 1 7 8
M  V30 8 2 8 9
M  V30 9 1 9 10
M  V30 10 1 10 11
M  V30 11 2 11 12
M  V30 12 1 11 13
M  V30 13 1 13 14
M  V30 14 2 14 15
M  V30 15 1 15 16
M  V30 16 1 16 17
M  V30 17 1 17 18
M  V30 18 1 18 19
M  V30 19 2 19 20
M  V30 20 1 20 21
M  V30 21 2 21 22
M  V30 22 1 22 23
M  V30 23 1 22 24
M  V30 24 2 24 25
M  V30 25 1 16 2
M  V30 26 1 25 19
M  V30 27 1 9 3
M  V30 28 1 15 10
M  V30 29 1 4 26
M  V30 30 1 7 27
M  V30 31 1 8 28
M  V30 32 1 13 29
M  V30 33 1 17 30
M  V30 34 1 17 31
M  V30 35 1 18 32
M  V30 36 1 18 33
M  V30 37 1 20 34
M  V30 38 1 21 35
M  V30 39 1 24 36
M  V30 40 1 25 37
M  V30 END BOND
M  V30 END CTAB
M  END
>  <Dataset>  (768) 
ChEMBL_Kinases

>  <Ligand_Instance>  (768) 
nan

>  <PDB_ID>  (768) 
nan

>  <Standardized_SMILES>  (768) 
O=c1c2cc(F)ccc2n2c(=S)[nH]nc2n1CCc1ccc(Cl)cc1

>  <Name>  (768) 
nan

>  <Pocket>  (768) 
nan

>  <ATP_Site>  (768) 
nan

>  <Peripheral>  (768) 
nan

>  <Num_H_Atoms_ProtBoundConf>  (768) 
nan

>  <Num_Resolved_Atoms>  (768) 
nan

>  <Num_Not_Resolved_Atoms>  (768) 
nan

$$$$
CHEMBL4748086
     RDKit          3D

  0  0  0  0  0  0  0  0  0  0999 V3000
M  V30 BEGIN CTAB
M  V30 COUNTS 41 43 0 0 0
M  V30 BEGIN ATOM
M  V30 1 C -0.046031 -4.431180 -0.826233 0
M  V30 2 C 0.638493 -3.126504 -0.475190 0
M  V30 3 C 0.283993 -2.724831 0.925680 0
M  V30 4 N 2.087383 -3.257492 -0.656007 0
M  V30 5 C 2.710563 -4.458511 -0.497832 0
M  V30 6 N 4.036744 -4.305859 -0.719524 0
M  V30 7 N 4.222925 -3.012450 -1.012835 0
M  V30 8 C 3.050036 -2.370483 -0.976925 0
M  V30 9 C 2.616653 -0.997004 -1.197875 0
M  V30 10 C 2.538992 -0.386492 -2.428379 0
M  V30 11 C 2.112184 0.921097 -2.499067 0
M  V30 12 C 1.771093 1.594552 -1.341352 0
M  V30 13 C 1.850668 0.975159 -0.100666 0
M  V30 14 N 1.520467 1.590635 1.139215 0
M  V30 15 C 0.210557 1.531023 1.665197 0
M  V30 16 O -0.623964 0.907396 0.971835 0
M  V30 17 N -0.195470 2.109205 2.876025 0
M  V30 18 C -1.470868 2.108739 3.489243 0
M  V30 19 C -2.620731 1.524145 3.016328 0
M  V30 20 C -3.829144 1.569610 3.677905 0
M  V30 21 C -3.908838 2.234488 4.883716 0
M  V30 22 N -2.788703 2.808486 5.352340 0
M  V30 23 C -1.619666 2.754506 4.694764 0
M  V30 24 N 2.274742 -0.304923 -0.092964 0
M  V30 25 H -0.146756 -5.017934 0.127351 0
M  V30 26 H -1.025342 -4.186320 -1.268681 0
M  V30 27 H 0.589306 -4.995441 -1.551595 0
M  V30 28 H 0.249835 -2.326822 -1.164894 0
M  V30 29 H 1.191606 -2.375298 1.451600 0
M  V30 30 H -0.192471 -3.569478 1.497818 0
M  V30 31 H -0.455616 -1.893699 0.941865 0
M  V30 32 H 2.261158 -5.393454 -0.240655 0
M  V30 33 H 2.823413 -0.974435 -3.307471 0
M  V30 34 H 2.047129 1.412433 -3.464279 0
M  V30 35 H 1.437869 2.603585 -1.357799 0
M  V30 36 H 2.255969 2.111446 1.699712 0
M  V30 37 H 0.595431 2.596479 3.350962 0
M  V30 38 H -2.598295 1.005006 2.093999 0
M  V30 39 H -4.705835 1.092091 3.261500 0
M  V30 40 H -4.824828 2.310767 5.458624 0
M  V30 41 H -0.771817 3.251712 5.159624 0
M  V30 END ATOM
M  V30 BEGIN BOND
M  V30 1 1 1 2
M  V30 2 1 2 3
M  V30 3 1 2 4
M  V30 4 1 4 5
M  V30 5 2 5 6
M  V30 6 1 6 7
M  V30 7 2 7 8
M  V30 8 1 8 9
M  V30 9 2 9 10
M  V30 10 1 10 11
M  V30 11 2 11 12
M  V30 12 1 12 13
M  V30 13 1 13 14
M  V30 14 1 14 15
M  V30 15 2 15 16
M  V30 16 1 15 17
M  V30 17 1 17 18
M  V30 18 2 18 19
M  V30 19 1 19 20
M  V30 20 2 20 21
M  V30 21 1 21 22
M  V30 22 2 22 23
M  V30 23 2 13 24
M  V30 24 1 8 4
M  V30 25 1 24 9
M  V30 26 1 23 18
M  V30 27 1 1 25
M  V30 28 1 1 26
M  V30 29 1 1 27
M  V30 30 1 2 28
M  V30 31 1 3 29
M  V30 32 1 3 30
M  V30 33 1 3 31
M  V30 34 1 5 32
M  V30 35 1 10 33
M  V30 36 1 11 34
M  V30 37 1 12 35
M  V30 38 1 14 36
M  V30 39 1 17 37
M  V30 40 1 19 38
M  V30 41 1 20 39
M  V30 42 1 21 40
M  V30 43 1 23 41
M  V30 END BOND
M  V30 END CTAB
M  END
>  <Dataset>  (769) 
ChEMBL_Kinases

>  <Ligand_Instance>  (769) 
nan

>  <PDB_ID>  (769) 
nan

>  <Standardized_SMILES>  (769) 
CC(C)n1cnnc1-c1cccc(NC(=O)Nc2cccnc2)n1

>  <Name>  (769) 
nan

>  <Pocket>  (769) 
nan

>  <ATP_Site>  (769) 
nan

>  <Peripheral>  (769) 
nan

>  <Num_H_Atoms_ProtBoundConf>  (769) 
nan

>  <Num_Resolved_Atoms>  (769) 
nan

>  <Num_Not_Resolved_Atoms>  (769) 
nan

$$$$
CHEMBL4748097
     RDKit          3D

  0  0  0  0  0  0  0  0  0  0999 V3000
M  V30 BEGIN CTAB
M  V30 COUNTS 40 42 0 0 0
M  V30 BEGIN ATOM
M  V30 1 C -0.400536 -6.188083 4.318213 0
M  V30 2 O -0.326924 -5.556534 3.059723 0
M  V30 3 C 0.277462 -4.320131 2.887932 0
M  V30 4 C 0.310409 -3.769769 1.635771 0
M  V30 5 C 0.877196 -2.549158 1.317440 0
M  V30 6 C 0.888816 -2.000492 -0.036598 0
M  V30 7 C 1.198845 -2.668497 -1.203657 0
M  V30 8 N 1.070683 -1.752771 -2.182027 0
M  V30 9 N 0.705690 -0.591162 -1.664983 0
M  V30 10 C 0.479956 0.558168 -2.329437 0
M  V30 11 C 0.103072 1.681611 -1.621960 0
M  V30 12 O -0.180796 2.961277 -2.079124 0
M  V30 13 C -0.098985 3.255361 -3.461315 0
M  V30 14 C -0.035098 1.599105 -0.233451 0
M  V30 15 C -0.437249 2.738353 0.657362 0
M  V30 16 C 0.711011 3.537748 1.164183 0
M  V30 17 C -1.236865 2.127808 1.815852 0
M  V30 18 N 0.210544 0.399711 0.372472 0
M  V30 19 C 0.575593 -0.681543 -0.328565 0
M  V30 20 C 1.449903 -1.857423 2.389532 0
M  V30 21 C 1.412951 -2.420372 3.654134 0
M  V30 22 N 0.838422 -3.631135 3.908573 0
M  V30 23 H -0.039272 -7.243024 4.183771 0
M  V30 24 H 0.246865 -5.740419 5.091054 0
M  V30 25 H -1.449722 -6.162524 4.664349 0
M  V30 26 H -0.135100 -4.302941 0.789093 0
M  V30 27 H 1.482953 -3.725983 -1.255998 0
M  V30 28 H 0.555956 0.732350 -3.387393 0
M  V30 29 H -0.997346 2.916843 -4.020890 0
M  V30 30 H 0.134443 4.325626 -3.630337 0
M  V30 31 H 0.761557 2.699499 -3.887679 0
M  V30 32 H -1.092004 3.369505 0.034059 0
M  V30 33 H 0.767783 4.495980 0.632165 0
M  V30 34 H 0.456720 3.807385 2.231739 0
M  V30 35 H 1.659576 2.977745 1.217032 0
M  V30 36 H -2.215720 1.779297 1.418528 0
M  V30 37 H -1.393853 2.883202 2.613389 0
M  V30 38 H -0.696400 1.268475 2.245478 0
M  V30 39 H 1.912045 -0.897417 2.220687 0
M  V30 40 H 1.850898 -1.904119 4.506712 0
M  V30 END ATOM
M  V30 BEGIN BOND
M  V30 1 1 1 2
M  V30 2 1 2 3
M  V30 3 2 3 4
M  V30 4 1 4 5
M  V30 5 1 5 6
M  V30 6 1 6 7
M  V30 7 2 7 8
M  V30 8 1 8 9
M  V30 9 1 9 10
M  V30 10 2 10 11
M  V30 11 1 11 12
M  V30 12 1 12 13
M  V30 13 1 11 14
M  V30 14 1 14 15
M  V30 15 1 15 16
M  V30 16 1 15 17
M  V30 17 2 14 18
M  V30 18 1 18 19
M  V30 19 2 5 20
M  V30 20 1 20 21
M  V30 21 2 21 22
M  V30 22 1 22 3
M  V30 23 2 19 6
M  V30 24 1 19 9
M  V30 25 1 1 23
M  V30 26 1 1 24
M  V30 27 1 1 25
M  V30 28 1 4 26
M  V30 29 1 7 27
M  V30 30 1 10 28
M  V30 31 1 13 29
M  V30 32 1 13 30
M  V30 33 1 13 31
M  V30 34 1 15 32
M  V30 35 1 16 33
M  V30 36 1 16 34
M  V30 37 1 16 35
M  V30 38 1 17 36
M  V30 39 1 17 37
M  V30 40 1 17 38
M  V30 41 1 20 39
M  V30 42 1 21 40
M  V30 END BOND
M  V30 END CTAB
M  END
>  <Dataset>  (770) 
ChEMBL_Kinases

>  <Ligand_Instance>  (770) 
nan

>  <PDB_ID>  (770) 
nan

>  <Standardized_SMILES>  (770) 
COc1cc(-c2cnn3cc(OC)c(C(C)C)nc23)ccn1

>  <Name>  (770) 
nan

>  <Pocket>  (770) 
nan

>  <ATP_Site>  (770) 
nan

>  <Peripheral>  (770) 
nan

>  <Num_H_Atoms_ProtBoundConf>  (770) 
nan

>  <Num_Resolved_Atoms>  (770) 
nan

>  <Num_Not_Resolved_Atoms>  (770) 
nan

$$$$
CHEMBL4748104
     RDKit          3D

  0  0  0  0  0  0  0  0  0  0999 V3000
M  V30 BEGIN CTAB
M  V30 COUNTS 44 47 0 0 0
M  V30 BEGIN ATOM
M  V30 1 O -0.108928 -3.322355 2.129583 0
M  V30 2 C -0.434079 -3.915343 1.067479 0
M  V30 3 N -0.963405 -3.134008 0.018913 0
M  V30 4 C -1.102997 -1.732621 0.207907 0
M  V30 5 C -0.039794 -0.928385 -0.147401 0
M  V30 6 C -0.072817 0.424369 -0.006137 0
M  V30 7 C -1.173728 1.080327 0.503035 0
M  V30 8 O -1.458282 2.393462 0.745241 0
M  V30 9 C -0.519473 3.381959 0.508873 0
M  V30 10 C -0.595421 4.427260 -0.386039 0
M  V30 11 C 0.409218 5.349651 -0.526516 0
M  V30 12 C 1.545968 5.250404 0.242742 0
M  V30 13 C 2.506314 6.219975 0.036513 0
M  V30 14 C 3.654543 6.173947 0.769382 0
M  V30 15 C 3.810079 5.171747 1.678001 0
M  V30 16 C 2.832418 4.213063 1.864897 0
M  V30 17 C 1.652731 4.213788 1.149781 0
M  V30 18 C 0.638665 3.286293 1.289199 0
M  V30 19 Br 1.014952 1.960677 2.634622 0
M  V30 20 C -2.263459 0.279917 0.869166 0
M  V30 21 Cl -3.791838 0.862339 1.544147 0
M  V30 22 C -2.222912 -1.111869 0.720903 0
M  V30 23 C -0.241793 -5.360156 0.996048 0
M  V30 24 C 0.289889 -5.979741 2.114562 0
M  V30 25 C 0.522295 -7.350408 2.174501 0
M  V30 26 C 0.201871 -8.099585 1.062554 0
M  V30 27 O 0.402193 -9.482691 1.035585 0
M  V30 28 C -0.325746 -7.467934 -0.040852 0
M  V30 29 C -0.559612 -6.101114 -0.106014 0
M  V30 30 H -1.239461 -3.606835 -0.870799 0
M  V30 31 H 0.872360 -1.347760 -0.557076 0
M  V30 32 H 0.715530 1.112575 -0.272241 0
M  V30 33 H -1.515677 4.459060 -0.969371 0
M  V30 34 H 0.262340 6.129456 -1.248770 0
M  V30 35 H 2.384566 7.016021 -0.684111 0
M  V30 36 H 4.435124 6.903805 0.649072 0
M  V30 37 H 4.710321 5.092251 2.287860 0
M  V30 38 H 2.977186 3.419601 2.597402 0
M  V30 39 H -3.032933 -1.766847 0.987354 0
M  V30 40 H 0.563394 -5.445280 3.022728 0
M  V30 41 H 0.940157 -7.816406 3.061759 0
M  V30 42 H 1.274851 -9.852017 0.627380 0
M  V30 43 H -0.581276 -8.042745 -0.918773 0
M  V30 44 H -0.975447 -5.628667 -0.985500 0
M  V30 END ATOM
M  V30 BEGIN BOND
M  V30 1 2 1 2
M  V30 2 1 2 3
M  V30 3 1 3 4
M  V30 4 2 4 5
M  V30 5 1 5 6
M  V30 6 2 6 7
M  V30 7 1 7 8
M  V30 8 1 8 9
M  V30 9 2 9 10
M  V30 10 1 10 11
M  V30 11 2 11 12
M  V30 12 1 12 13
M  V30 13 2 13 14
M  V30 14 1 14 15
M  V30 15 2 15 16
M  V30 16 1 16 17
M  V30 17 2 17 18
M  V30 18 1 18 19
M  V30 19 1 7 20
M  V30 20 1 20 21
M  V30 21 2 20 22
M  V30 22 1 2 23
M  V30 23 2 23 24
M  V30 24 1 24 25
M  V30 25 2 25 26
M  V30 26 1 26 27
M  V30 27 1 26 28
M  V30 28 2 28 29
M  V30 29 1 22 4
M  V30 30 1 29 23
M  V30 31 1 18 9
M  V30 32 1 17 12
M  V30 33 1 3 30
M  V30 34 1 5 31
M  V30 35 1 6 32
M  V30 36 1 10 33
M  V30 37 1 11 34
M  V30 38 1 13 35
M  V30 39 1 14 36
M  V30 40 1 15 37
M  V30 41 1 16 38
M  V30 42 1 22 39
M  V30 43 1 24 40
M  V30 44 1 25 41
M  V30 45 1 27 42
M  V30 46 1 28 43
M  V30 47 1 29 44
M  V30 END BOND
M  V30 END CTAB
M  END
>  <Dataset>  (771) 
ChEMBL_Kinases

>  <Ligand_Instance>  (771) 
nan

>  <PDB_ID>  (771) 
nan

>  <Standardized_SMILES>  (771) 
O=C(Nc1ccc(Oc2ccc3ccccc3c2Br)c(Cl)c1)c1ccc(O)cc1

>  <Name>  (771) 
nan

>  <Pocket>  (771) 
nan

>  <ATP_Site>  (771) 
nan

>  <Peripheral>  (771) 
nan

>  <Num_H_Atoms_ProtBoundConf>  (771) 
nan

>  <Num_Resolved_Atoms>  (771) 
nan

>  <Num_Not_Resolved_Atoms>  (771) 
nan

$$$$
CHEMBL4748147
     RDKit          3D

  0  0  0  0  0  0  0  0  0  0999 V3000
M  V30 BEGIN CTAB
M  V30 COUNTS 30 32 0 0 0
M  V30 BEGIN ATOM
M  V30 1 C -2.689851 -1.435153 1.936792 0
M  V30 2 C -1.271737 -1.652354 2.428662 0
M  V30 3 C -1.072295 -3.104327 2.673671 0
M  V30 4 N -0.337594 -1.073422 1.499336 0
M  V30 5 C 0.351186 -1.790800 0.605054 0
M  V30 6 O 0.206146 -3.022221 0.540765 0
M  V30 7 C 1.224097 -1.168976 -0.248550 0
M  V30 8 C 1.936644 -1.934530 -1.177964 0
M  V30 9 C 2.809490 -1.276067 -2.024797 0
M  V30 10 C 3.016706 0.074849 -2.007550 0
M  V30 11 C 2.311244 0.833460 -1.087250 0
M  V30 12 C 1.442227 0.189545 -0.242008 0
M  V30 13 N 0.743428 0.885560 0.659470 0
M  V30 14 C 0.703508 2.192588 0.942521 0
M  V30 15 S 1.467084 3.478208 0.331361 0
M  V30 16 N -0.168262 2.379718 1.942659 0
M  V30 17 N -0.668701 1.203954 2.282330 0
M  V30 18 C -0.104424 0.252443 1.483242 0
M  V30 19 H -3.023659 -2.229011 1.235284 0
M  V30 20 H -2.793044 -0.445930 1.433104 0
M  V30 21 H -3.363468 -1.499436 2.826350 0
M  V30 22 H -1.137814 -1.114728 3.393986 0
M  V30 23 H -1.547057 -3.752126 1.903480 0
M  V30 24 H -0.026089 -3.379423 2.912923 0
M  V30 25 H -1.646370 -3.350768 3.613991 0
M  V30 26 H 1.767695 -3.010737 -1.187422 0
M  V30 27 H 3.354532 -1.881570 -2.739388 0
M  V30 28 H 3.718350 0.519614 -2.703739 0
M  V30 29 H 2.517598 1.883845 -1.123957 0
M  V30 30 H -0.516696 3.210651 2.480548 0
M  V30 END ATOM
M  V30 BEGIN BOND
M  V30 1 1 1 2
M  V30 2 1 2 3
M  V30 3 1 2 4
M  V30 4 1 4 5
M  V30 5 2 5 6
M  V30 6 1 5 7
M  V30 7 2 7 8
M  V30 8 1 8 9
M  V30 9 2 9 10
M  V30 10 1 10 11
M  V30 11 2 11 12
M  V30 12 1 12 13
M  V30 13 1 13 14
M  V30 14 2 14 15
M  V30 15 1 14 16
M  V30 16 1 16 17
M  V30 17 2 17 18
M  V30 18 1 18 4
M  V30 19 1 12 7
M  V30 20 1 18 13
M  V30 21 1 1 19
M  V30 22 1 1 20
M  V30 23 1 1 21
M  V30 24 1 2 22
M  V30 25 1 3 23
M  V30 26 1 3 24
M  V30 27 1 3 25
M  V30 28 1 8 26
M  V30 29 1 9 27
M  V30 30 1 10 28
M  V30 31 1 11 29
M  V30 32 1 16 30
M  V30 END BOND
M  V30 END CTAB
M  END
>  <Dataset>  (772) 
ChEMBL_Kinases

>  <Ligand_Instance>  (772) 
nan

>  <PDB_ID>  (772) 
nan

>  <Standardized_SMILES>  (772) 
CC(C)n1c(=O)c2ccccc2n2c(=S)[nH]nc12

>  <Name>  (772) 
nan

>  <Pocket>  (772) 
nan

>  <ATP_Site>  (772) 
nan

>  <Peripheral>  (772) 
nan

>  <Num_H_Atoms_ProtBoundConf>  (772) 
nan

>  <Num_Resolved_Atoms>  (772) 
nan

>  <Num_Not_Resolved_Atoms>  (772) 
nan

$$$$
CHEMBL4748155
     RDKit          3D

  0  0  0  0  0  0  0  0  0  0999 V3000
M  V30 BEGIN CTAB
M  V30 COUNTS 53 56 0 0 0
M  V30 BEGIN ATOM
M  V30 1 C 2.172324 -0.316883 3.623952 0
M  V30 2 C 3.229783 -0.970497 2.796019 0
M  V30 3 C 3.581843 -2.297863 3.435045 0
M  V30 4 N 4.427581 -0.160433 2.666742 0
M  V30 5 C 5.688476 -0.398968 3.119808 0
M  V30 6 N 6.452402 0.625567 2.763159 0
M  V30 7 N 5.722272 1.498424 2.104145 0
M  V30 8 C 4.453403 1.029045 2.031214 0
M  V30 9 C 3.306423 1.677765 1.386000 0
M  V30 10 C 3.132914 3.042840 1.293280 0
M  V30 11 C 2.024876 3.581030 0.669633 0
M  V30 12 C 1.078854 2.717786 0.132078 0
M  V30 13 C 1.254023 1.350802 0.225727 0
M  V30 14 N 0.363955 0.357815 -0.280732 0
M  V30 15 C 0.276795 -0.309406 -1.533297 0
M  V30 16 O 1.167820 0.060782 -2.343007 0
M  V30 17 C -0.867564 -1.282162 -1.543000 0
M  V30 18 C -2.133762 -0.512184 -1.219392 0
M  V30 19 N -3.218390 -1.429179 -1.507011 0
M  V30 20 C -4.163442 -1.901256 -0.561828 0
M  V30 21 C -4.144340 -1.495137 0.750284 0
M  V30 22 C -5.049021 -1.940477 1.682293 0
M  V30 23 C -6.040609 -2.837350 1.331629 0
M  V30 24 C -6.068153 -3.252455 0.012039 0
M  V30 25 C -5.149130 -2.792760 -0.910195 0
M  V30 26 C -3.195574 -1.794900 -2.910375 0
M  V30 27 C -1.948886 -2.681745 -3.033676 0
M  V30 28 O -0.861454 -1.864563 -2.783573 0
M  V30 29 N 2.360213 0.900781 0.848669 0
M  V30 30 H 2.179408 -0.743128 4.648253 0
M  V30 31 H 1.147207 -0.452422 3.230682 0
M  V30 32 H 2.331475 0.788776 3.646439 0
M  V30 33 H 2.867452 -1.235320 1.767383 0
M  V30 34 H 3.930975 -2.108577 4.471581 0
M  V30 35 H 2.623033 -2.859759 3.525281 0
M  V30 36 H 4.294634 -2.897145 2.863993 0
M  V30 37 H 5.913788 -1.318569 3.674225 0
M  V30 38 H 3.901034 3.683453 1.729512 0
M  V30 39 H 1.876189 4.648199 0.589780 0
M  V30 40 H 0.183028 3.055831 -0.372499 0
M  V30 41 H -0.230098 0.266812 0.587904 0
M  V30 42 H -0.754333 -2.048309 -0.740894 0
M  V30 43 H -2.063075 -0.161143 -0.199988 0
M  V30 44 H -2.148768 0.331024 -1.961810 0
M  V30 45 H -3.430767 -0.809600 1.136956 0
M  V30 46 H -5.046001 -1.631423 2.711687 0
M  V30 47 H -6.767552 -3.206619 2.042156 0
M  V30 48 H -6.843276 -3.956526 -0.272120 0
M  V30 49 H -5.263740 -3.183028 -1.910202 0
M  V30 50 H -4.085655 -2.286602 -3.283027 0
M  V30 51 H -2.982273 -0.927421 -3.571461 0
M  V30 52 H -1.889098 -2.988836 -4.096844 0
M  V30 53 H -2.011156 -3.578068 -2.395015 0
M  V30 END ATOM
M  V30 BEGIN BOND
M  V30 1 1 1 2
M  V30 2 1 2 3
M  V30 3 1 2 4
M  V30 4 1 4 5
M  V30 5 2 5 6
M  V30 6 1 6 7
M  V30 7 2 7 8
M  V30 8 1 8 9
M  V30 9 2 9 10
M  V30 10 1 10 11
M  V30 11 2 11 12
M  V30 12 1 12 13
M  V30 13 1 13 14
M  V30 14 1 14 15
M  V30 15 2 15 16
M  V30 16 1 15 17
M  V30 17 1 17 18
M  V30 18 1 18 19
M  V30 19 1 19 20
M  V30 20 2 20 21
M  V30 21 1 21 22
M  V30 22 2 22 23
M  V30 23 1 23 24
M  V30 24 2 24 25
M  V30 25 1 19 26
M  V30 26 1 26 27
M  V30 27 1 27 28
M  V30 28 2 13 29
M  V30 29 1 8 4
M  V30 30 1 29 9
M  V30 31 1 28 17
M  V30 32 1 25 20
M  V30 33 1 1 30
M  V30 34 1 1 31
M  V30 35 1 1 32
M  V30 36 1 2 33
M  V30 37 1 3 34
M  V30 38 1 3 35
M  V30 39 1 3 36
M  V30 40 1 5 37
M  V30 41 1 10 38
M  V30 42 1 11 39
M  V30 43 1 12 40
M  V30 44 1 14 41
M  V30 45 1 17 42
M  V30 46 1 18 43
M  V30 47 1 18 44
M  V30 48 1 21 45
M  V30 49 1 22 46
M  V30 50 1 23 47
M  V30 51 1 24 48
M  V30 52 1 25 49
M  V30 53 1 26 50
M  V30 54 1 26 51
M  V30 55 1 27 52
M  V30 56 1 27 53
M  V30 END BOND
M  V30 END CTAB
M  END
>  <Dataset>  (773) 
ChEMBL_Kinases

>  <Ligand_Instance>  (773) 
nan

>  <PDB_ID>  (773) 
nan

>  <Standardized_SMILES>  (773) 
CC(C)n1cnnc1-c1cccc(NC(=O)C2CN(c3ccccc3)CCO2)n1

>  <Name>  (773) 
nan

>  <Pocket>  (773) 
nan

>  <ATP_Site>  (773) 
nan

>  <Peripheral>  (773) 
nan

>  <Num_H_Atoms_ProtBoundConf>  (773) 
nan

>  <Num_Resolved_Atoms>  (773) 
nan

>  <Num_Not_Resolved_Atoms>  (773) 
nan

$$$$
CHEMBL4748191
     RDKit          3D

  0  0  0  0  0  0  0  0  0  0999 V3000
M  V30 BEGIN CTAB
M  V30 COUNTS 37 39 0 0 0
M  V30 BEGIN ATOM
M  V30 1 C 2.752688 -6.691928 4.070721 0
M  V30 2 C 2.150523 -5.869426 3.426904 0
M  V30 3 C 1.440794 -4.890981 2.652656 0
M  V30 4 N 1.990712 -3.716763 2.350042 0
M  V30 5 C 1.414013 -2.737586 1.633890 0
M  V30 6 N 2.106778 -1.537739 1.382535 0
M  V30 7 C 1.664074 -0.412576 0.650179 0
M  V30 8 C 0.431945 -0.293611 0.047848 0
M  V30 9 C 0.004268 0.804322 -0.668451 0
M  V30 10 C 0.868985 1.884900 -0.804779 0
M  V30 11 C 0.412366 3.043795 -1.565756 0
M  V30 12 O 0.985319 3.432308 -2.601960 0
M  V30 13 N -0.732433 3.746897 -1.095161 0
M  V30 14 C -1.571049 3.490135 0.085707 0
M  V30 15 C -1.268609 4.907904 -1.779666 0
M  V30 16 C 2.113027 1.803344 -0.214886 0
M  V30 17 C 2.481977 0.679012 0.488159 0
M  V30 18 N 0.187122 -3.055180 1.232422 0
M  V30 19 C -0.469527 -4.192079 1.469739 0
M  V30 20 N -1.687189 -4.651292 1.138317 0
M  V30 21 C -1.823552 -5.885495 1.654375 0
M  V30 22 N -0.685064 -6.196271 2.310185 0
M  V30 23 C 0.169581 -5.161149 2.209359 0
M  V30 24 H 3.288661 -7.407024 4.646203 0
M  V30 25 H 3.084765 -1.464849 1.793209 0
M  V30 26 H -0.276310 -1.077973 0.111492 0
M  V30 27 H -0.983593 0.850943 -1.127375 0
M  V30 28 H -1.301413 2.527812 0.566542 0
M  V30 29 H -2.645492 3.451678 -0.181550 0
M  V30 30 H -1.369392 4.302451 0.825853 0
M  V30 31 H -1.054566 5.812605 -1.197654 0
M  V30 32 H -0.854114 5.035880 -2.814959 0
M  V30 33 H -2.377531 4.784980 -1.961431 0
M  V30 34 H 2.792433 2.649346 -0.320125 0
M  V30 35 H 3.475378 0.709272 0.913305 0
M  V30 36 H -2.402534 -4.126637 0.572590 0
M  V30 37 H -2.715394 -6.505448 1.544493 0
M  V30 END ATOM
M  V30 BEGIN BOND
M  V30 1 3 1 2
M  V30 2 1 2 3
M  V30 3 2 3 4
M  V30 4 1 4 5
M  V30 5 1 5 6
M  V30 6 1 6 7
M  V30 7 2 7 8
M  V30 8 1 8 9
M  V30 9 2 9 10
M  V30 10 1 10 11
M  V30 11 2 11 12
M  V30 12 1 11 13
M  V30 13 1 13 14
M  V30 14 1 13 15
M  V30 15 1 10 16
M  V30 16 2 16 17
M  V30 17 2 5 18
M  V30 18 1 18 19
M  V30 19 1 19 20
M  V30 20 1 20 21
M  V30 21 2 21 22
M  V30 22 1 22 23
M  V30 23 1 23 3
M  V30 24 1 17 7
M  V30 25 2 23 19
M  V30 26 1 1 24
M  V30 27 1 6 25
M  V30 28 1 8 26
M  V30 29 1 9 27
M  V30 30 1 14 28
M  V30 31 1 14 29
M  V30 32 1 14 30
M  V30 33 1 15 31
M  V30 34 1 15 32
M  V30 35 1 15 33
M  V30 36 1 16 34
M  V30 37 1 17 35
M  V30 38 1 20 36
M  V30 39 1 21 37
M  V30 END BOND
M  V30 END CTAB
M  END
>  <Dataset>  (774) 
ChEMBL_Kinases

>  <Ligand_Instance>  (774) 
nan

>  <PDB_ID>  (774) 
nan

>  <Standardized_SMILES>  (774) 
C#Cc1nc(Nc2ccc(C(=O)N(C)C)cc2)nc2[nH]cnc12

>  <Name>  (774) 
nan

>  <Pocket>  (774) 
nan

>  <ATP_Site>  (774) 
nan

>  <Peripheral>  (774) 
nan

>  <Num_H_Atoms_ProtBoundConf>  (774) 
nan

>  <Num_Resolved_Atoms>  (774) 
nan

>  <Num_Not_Resolved_Atoms>  (774) 
nan

$$$$
CHEMBL4748212
     RDKit          3D

  0  0  0  0  0  0  0  0  0  0999 V3000
M  V30 BEGIN CTAB
M  V30 COUNTS 59 63 0 0 0
M  V30 BEGIN ATOM
M  V30 1 O 3.642045 -1.207923 1.301629 0
M  V30 2 N 4.506953 -1.403199 2.194914 0 CHG=1 VAL=4
M  V30 3 O 4.903051 -2.670203 2.578661 0 CHG=-1 VAL=1
M  V30 4 C 5.084582 -0.246249 2.819221 0
M  V30 5 C 6.039371 -0.422791 3.806174 0
M  V30 6 C 6.597936 0.685859 4.409665 0
M  V30 7 C 6.233658 1.969218 4.059312 0
M  V30 8 C 5.280090 2.156673 3.073859 0
M  V30 9 S 4.687601 3.709847 2.492555 0
M  V30 10 O 5.823153 4.684000 2.744929 0
M  V30 11 O 4.455453 3.702231 1.029964 0
M  V30 12 N 3.318395 4.226815 3.410285 0
M  V30 13 C 2.150276 3.404851 3.388975 0
M  V30 14 C 1.739865 2.920963 2.163159 0
M  V30 15 C 0.614802 2.125140 2.116695 0
M  V30 16 C -0.097289 1.809989 3.264755 0
M  V30 17 C -1.283631 0.963123 3.167861 0
M  V30 18 N -1.786323 0.430148 2.039925 0
M  V30 19 C -2.887369 -0.301660 2.288181 0
M  V30 20 C -3.513882 -0.926614 1.127966 0
M  V30 21 C -4.839068 -0.661595 0.859390 0
M  V30 22 C -5.350699 -1.291540 -0.252790 0
M  V30 23 N -4.637327 -2.106350 -1.033898 0
M  V30 24 C -3.350438 -2.394758 -0.815842 0
M  V30 25 N -2.517876 -3.243961 -1.587352 0
M  V30 26 C -2.877916 -3.962178 -2.748715 0
M  V30 27 C -4.108533 -3.979812 -3.360976 0
M  V30 28 C -4.438782 -4.688140 -4.494530 0
M  V30 29 C -3.475275 -5.454763 -5.090247 0
M  V30 30 O -3.660895 -6.219178 -6.231965 0
M  V30 31 C -3.443915 -5.721233 -7.538006 0
M  V30 32 F -4.249035 -4.640344 -7.834067 0
M  V30 33 F -3.732106 -6.767475 -8.415944 0
M  V30 34 F -2.100159 -5.395414 -7.690453 0
M  V30 35 C -2.219562 -5.480157 -4.525266 0
M  V30 36 C -1.948103 -4.750508 -3.390431 0
M  V30 37 C -2.833872 -1.773957 0.286105 0
M  V30 38 N -3.047268 -0.200184 3.621017 0
M  V30 39 O -2.099100 0.542698 4.110585 0
M  V30 40 C 0.300828 2.286361 4.497431 0
M  V30 41 C 1.442703 3.094558 4.547602 0
M  V30 42 C 4.722577 1.035684 2.471193 0
M  V30 43 H 6.364683 -1.424326 4.122158 0
M  V30 44 H 7.356305 0.606105 5.194883 0
M  V30 45 H 6.620893 2.885747 4.480876 0
M  V30 46 H 3.149719 5.059526 4.013034 0
M  V30 47 H 2.205391 3.095865 1.218229 0
M  V30 48 H 0.234633 1.707678 1.173335 0
M  V30 49 H -5.442871 -0.020391 1.453784 0
M  V30 50 H -6.392758 -1.161208 -0.571493 0
M  V30 51 H -1.525458 -3.356151 -1.267311 0
M  V30 52 H -4.910635 -3.397092 -2.941448 0
M  V30 53 H -5.415050 -4.660639 -4.923090 0
M  V30 54 H -1.424604 -6.085164 -4.978876 0
M  V30 55 H -0.928805 -4.820629 -3.000025 0
M  V30 56 H -1.793521 -1.927581 0.571916 0
M  V30 57 H -0.241724 2.053627 5.418235 0
M  V30 58 H 1.804072 3.500116 5.498882 0
M  V30 59 H 3.963688 1.091605 1.684930 0
M  V30 END ATOM
M  V30 BEGIN BOND
M  V30 1 2 1 2
M  V30 2 1 2 3
M  V30 3 1 2 4
M  V30 4 2 4 5
M  V30 5 1 5 6
M  V30 6 2 6 7
M  V30 7 1 7 8
M  V30 8 1 8 9
M  V30 9 2 9 10
M  V30 10 2 9 11
M  V30 11 1 9 12
M  V30 12 1 12 13
M  V30 13 2 13 14
M  V30 14 1 14 15
M  V30 15 2 15 16
M  V30 16 1 16 17
M  V30 17 2 17 18
M  V30 18 1 18 19
M  V30 19 1 19 20
M  V30 20 2 20 21
M  V30 21 1 21 22
M  V30 22 2 22 23
M  V30 23 1 23 24
M  V30 24 1 24 25
M  V30 25 1 25 26
M  V30 26 2 26 27
M  V30 27 1 27 28
M  V30 28 2 28 29
M  V30 29 1 29 30
M  V30 30 1 30 31
M  V30 31 1 31 32
M  V30 32 1 31 33
M  V30 33 1 31 34
M  V30 34 1 29 35
M  V30 35 2 35 36
M  V30 36 2 24 37
M  V30 37 2 19 38
M  V30 38 1 38 39
M  V30 39 1 16 40
M  V30 40 2 40 41
M  V30 41 2 8 42
M  V30 42 1 42 4
M  V30 43 1 41 13
M  V30 44 1 39 17
M  V30 45 1 37 20
M  V30 46 1 36 26
M  V30 47 1 5 43
M  V30 48 1 6 44
M  V30 49 1 7 45
M  V30 50 1 12 46
M  V30 51 1 14 47
M  V30 52 1 15 48
M  V30 53 1 21 49
M  V30 54 1 22 50
M  V30 55 1 25 51
M  V30 56 1 27 52
M  V30 57 1 28 53
M  V30 58 1 35 54
M  V30 59 1 36 55
M  V30 60 1 37 56
M  V30 61 1 40 57
M  V30 62 1 41 58
M  V30 63 1 42 59
M  V30 END BOND
M  V30 END CTAB
M  END
>  <Dataset>  (775) 
ChEMBL_Kinases

>  <Ligand_Instance>  (775) 
nan

>  <PDB_ID>  (775) 
nan

>  <Standardized_SMILES>  (775) 
O=[N+]([O-])c1cccc(S(=O)(=O)Nc2ccc(-c3nc(-c4ccnc(Nc5ccc(OC(F)(F)F)cc5)c4)no3)cc2)c1

>  <Name>  (775) 
nan

>  <Pocket>  (775) 
nan

>  <ATP_Site>  (775) 
nan

>  <Peripheral>  (775) 
nan

>  <Num_H_Atoms_ProtBoundConf>  (775) 
nan

>  <Num_Resolved_Atoms>  (775) 
nan

>  <Num_Not_Resolved_Atoms>  (775) 
nan

$$$$
CHEMBL4748400
     RDKit          3D

  0  0  0  0  0  0  0  0  0  0999 V3000
M  V30 BEGIN CTAB
M  V30 COUNTS 38 41 0 0 0
M  V30 BEGIN ATOM
M  V30 1 F -0.214755 -5.315213 2.703011 0
M  V30 2 C -0.640182 -5.317878 1.397987 0
M  V30 3 F -2.028330 -5.234128 1.383853 0
M  V30 4 F -0.245037 -6.499968 0.792643 0
M  V30 5 C -0.072881 -4.195488 0.639766 0
M  V30 6 C 0.717775 -4.375415 -0.472799 0
M  V30 7 N 1.210380 -3.316285 -1.128476 0
M  V30 8 C 0.980397 -2.067088 -0.766549 0
M  V30 9 N 1.536171 -0.991612 -1.510132 0
M  V30 10 C 1.422137 0.409042 -1.305587 0
M  V30 11 C 2.041366 1.308323 -2.143684 0
M  V30 12 C 1.950623 2.669064 -1.973008 0
M  V30 13 C 1.227600 3.210760 -0.943396 0
M  V30 14 N 1.134361 4.538591 -0.770268 0
M  V30 15 C 0.412397 5.049859 0.256892 0
M  V30 16 C -0.241280 4.193047 1.144568 0
M  V30 17 N -0.127530 2.870261 0.942892 0
M  V30 18 C 0.587538 2.352588 -0.074819 0
M  V30 19 C 0.709509 1.001167 -0.288908 0
M  V30 20 N 0.208095 -1.915557 0.319409 0
M  V30 21 C -0.324336 -2.917697 1.032662 0
M  V30 22 N -1.139711 -2.623135 2.183496 0
M  V30 23 C -1.496757 -1.308567 2.725354 0
M  V30 24 C -0.331582 -0.427961 3.165580 0
M  V30 25 C -1.239968 -1.039426 4.178018 0
M  V30 26 H 0.935903 -5.374721 -0.810125 0
M  V30 27 H 2.128061 -1.262698 -2.347440 0
M  V30 28 H 2.636939 0.936042 -2.989444 0
M  V30 29 H 2.469068 3.310734 -2.678249 0
M  V30 30 H 0.330420 6.108627 0.405614 0
M  V30 31 H -0.813014 4.626495 1.958897 0
M  V30 32 H 0.182866 0.401107 0.429164 0
M  V30 33 H -1.538956 -3.428482 2.716627 0
M  V30 34 H -2.370718 -0.767752 2.305616 0
M  V30 35 H -0.432302 0.668261 3.023923 0
M  V30 36 H 0.699713 -0.861710 3.026622 0
M  V30 37 H -0.844046 -1.856770 4.819881 0
M  V30 38 H -1.945212 -0.377550 4.732591 0
M  V30 END ATOM
M  V30 BEGIN BOND
M  V30 1 1 1 2
M  V30 2 1 2 3
M  V30 3 1 2 4
M  V30 4 1 2 5
M  V30 5 2 5 6
M  V30 6 1 6 7
M  V30 7 2 7 8
M  V30 8 1 8 9
M  V30 9 1 9 10
M  V30 10 2 10 11
M  V30 11 1 11 12
M  V30 12 2 12 13
M  V30 13 1 13 14
M  V30 14 2 14 15
M  V30 15 1 15 16
M  V30 16 2 16 17
M  V30 17 1 17 18
M  V30 18 2 18 19
M  V30 19 1 8 20
M  V30 20 2 20 21
M  V30 21 1 21 22
M  V30 22 1 22 23
M  V30 23 1 23 24
M  V30 24 1 24 25
M  V30 25 1 21 5
M  V30 26 1 25 23
M  V30 27 1 19 10
M  V30 28 1 18 13
M  V30 29 1 6 26
M  V30 30 1 9 27
M  V30 31 1 11 28
M  V30 32 1 12 29
M  V30 33 1 15 30
M  V30 34 1 16 31
M  V30 35 1 19 32
M  V30 36 1 22 33
M  V30 37 1 23 34
M  V30 38 1 24 35
M  V30 39 1 24 36
M  V30 40 1 25 37
M  V30 41 1 25 38
M  V30 END BOND
M  V30 END CTAB
M  END
>  <Dataset>  (776) 
ChEMBL_Kinases

>  <Ligand_Instance>  (776) 
nan

>  <PDB_ID>  (776) 
nan

>  <Standardized_SMILES>  (776) 
FC(F)(F)c1cnc(Nc2ccc3nccnc3c2)nc1NC1CC1

>  <Name>  (776) 
nan

>  <Pocket>  (776) 
nan

>  <ATP_Site>  (776) 
nan

>  <Peripheral>  (776) 
nan

>  <Num_H_Atoms_ProtBoundConf>  (776) 
nan

>  <Num_Resolved_Atoms>  (776) 
nan

>  <Num_Not_Resolved_Atoms>  (776) 
nan

$$$$
CHEMBL4748440
     RDKit          3D

  0  0  0  0  0  0  0  0  0  0999 V3000
M  V30 BEGIN CTAB
M  V30 COUNTS 39 41 0 0 0
M  V30 BEGIN ATOM
M  V30 1 C -1.873247 -5.423222 1.649376 0
M  V30 2 C -1.181156 -4.492166 2.615647 0
M  V30 3 C -2.079037 -4.339703 3.837724 0
M  V30 4 C -0.935722 -3.147430 2.031784 0
M  V30 5 C -1.933747 -2.343677 1.521737 0
M  V30 6 C -1.707694 -1.095639 0.979274 0
M  V30 7 C -0.395986 -0.684794 0.974457 0
M  V30 8 C -0.163593 0.657251 0.390372 0
M  V30 9 C -0.933823 1.630910 -0.162922 0
M  V30 10 C -0.289379 2.755161 -0.589293 0
M  V30 11 N -0.970400 3.798096 -1.152572 0
M  V30 12 C -0.291902 4.881452 -1.546696 0
M  V30 13 N 1.057221 5.077286 -1.449280 0
M  V30 14 C 1.706717 4.015589 -0.882404 0
M  V30 15 S 3.451571 4.168907 -0.686822 0
M  V30 16 C 4.238156 2.724972 -0.008939 0
M  V30 17 C 4.225480 1.576474 -0.974077 0
M  V30 18 O 3.785768 1.477814 -2.170671 0
M  V30 19 O 4.433489 0.308113 -1.475794 0
M  V30 20 C 1.046271 2.857686 -0.451624 0
M  V30 21 S 1.562833 1.423393 0.277966 0
M  V30 22 C 0.674206 -1.399353 1.453522 0
M  V30 23 C 0.358911 -2.642771 1.981417 0
M  V30 24 H -1.780740 -6.453648 2.032766 0
M  V30 25 H -2.959686 -5.173080 1.605360 0
M  V30 26 H -1.443206 -5.430736 0.639924 0
M  V30 27 H -0.241773 -4.963713 2.975405 0
M  V30 28 H -1.602661 -3.674927 4.599153 0
M  V30 29 H -3.059882 -3.909368 3.524688 0
M  V30 30 H -2.229130 -5.360268 4.256962 0
M  V30 31 H -2.955852 -2.696776 1.540402 0
M  V30 32 H -2.488195 -0.466677 0.580202 0
M  V30 33 H -1.974228 1.346002 -0.176106 0
M  V30 34 H -0.831686 5.726937 -2.001539 0
M  V30 35 H 3.796333 2.453204 0.954932 0
M  V30 36 H 5.314814 2.966537 0.157383 0
M  V30 37 H 4.387933 -0.542899 -0.892457 0
M  V30 38 H 1.674318 -1.009864 1.414878 0
M  V30 39 H 1.195669 -3.235876 2.371979 0
M  V30 END ATOM
M  V30 BEGIN BOND
M  V30 1 1 1 2
M  V30 2 1 2 3
M  V30 3 1 2 4
M  V30 4 2 4 5
M  V30 5 1 5 6
M  V30 6 2 6 7
M  V30 7 1 7 8
M  V30 8 2 8 9
M  V30 9 1 9 10
M  V30 10 2 10 11
M  V30 11 1 11 12
M  V30 12 2 12 13
M  V30 13 1 13 14
M  V30 14 1 14 15
M  V30 15 1 15 16
M  V30 16 1 16 17
M  V30 17 2 17 18
M  V30 18 1 17 19
M  V30 19 2 14 20
M  V30 20 1 20 21
M  V30 21 1 7 22
M  V30 22 2 22 23
M  V30 23 1 23 4
M  V30 24 1 21 8
M  V30 25 1 20 10
M  V30 26 1 1 24
M  V30 27 1 1 25
M  V30 28 1 1 26
M  V30 29 1 2 27
M  V30 30 1 3 28
M  V30 31 1 3 29
M  V30 32 1 3 30
M  V30 33 1 5 31
M  V30 34 1 6 32
M  V30 35 1 9 33
M  V30 36 1 12 34
M  V30 37 1 16 35
M  V30 38 1 16 36
M  V30 39 1 19 37
M  V30 40 1 22 38
M  V30 41 1 23 39
M  V30 END BOND
M  V30 END CTAB
M  END
>  <Dataset>  (777) 
ChEMBL_Kinases

>  <Ligand_Instance>  (777) 
nan

>  <PDB_ID>  (777) 
nan

>  <Standardized_SMILES>  (777) 
CC(C)c1ccc(-c2cc3ncnc(SCC(=O)O)c3s2)cc1

>  <Name>  (777) 
nan

>  <Pocket>  (777) 
nan

>  <ATP_Site>  (777) 
nan

>  <Peripheral>  (777) 
nan

>  <Num_H_Atoms_ProtBoundConf>  (777) 
nan

>  <Num_Resolved_Atoms>  (777) 
nan

>  <Num_Not_Resolved_Atoms>  (777) 
nan

$$$$
CHEMBL4451672
     RDKit          3D

  0  0  0  0  0  0  0  0  0  0999 V3000
M  V30 BEGIN CTAB
M  V30 COUNTS 45 48 0 0 0
M  V30 BEGIN ATOM
M  V30 1 C -0.170848 -4.293325 -3.985013 0
M  V30 2 C -0.462519 -2.822418 -4.273039 0
M  V30 3 N 0.053884 -2.015882 -3.178721 0
M  V30 4 C 1.304041 -1.502953 -3.134997 0
M  V30 5 C 2.365292 -1.589444 -4.042494 0
M  V30 6 C 3.543324 -0.939955 -3.700577 0
M  V30 7 C 3.743948 -0.216732 -2.533577 0
M  V30 8 C 2.663975 -0.170994 -1.686592 0
M  V30 9 C 1.458100 -0.791303 -1.955994 0
M  V30 10 C 0.242449 -0.911296 -1.312959 0
M  V30 11 C -0.136415 -0.375543 -0.075201 0
M  V30 12 C -1.416533 -0.626594 0.376254 0
M  V30 13 C -1.780957 -0.049976 1.677793 0
M  V30 14 N -0.911155 0.637818 2.307186 0
M  V30 15 N -1.137027 1.246396 3.568534 0
M  V30 16 C -0.041238 0.960889 4.430347 0
M  V30 17 O 0.871672 0.248403 3.905909 0
M  V30 18 C 0.103331 1.402857 5.799577 0
M  V30 19 C 1.251655 1.006787 6.448792 0
M  V30 20 C 1.429492 1.412918 7.773103 0
M  V30 21 C 0.457987 2.188838 8.377904 0
M  V30 22 C -0.684583 2.576376 7.714797 0
M  V30 23 Cl -1.858373 3.564067 8.576956 0
M  V30 24 C -0.872963 2.175828 6.389622 0
M  V30 25 C -2.313345 -1.380935 -0.354439 0
M  V30 26 C -1.906759 -1.903816 -1.588515 0
M  V30 27 C -0.631595 -1.669300 -2.066387 0
M  V30 28 H 0.913364 -4.528363 -4.147110 0
M  V30 29 H -0.799317 -4.967737 -4.577782 0
M  V30 30 H -0.349227 -4.525490 -2.903380 0
M  V30 31 H -1.537351 -2.710242 -4.429110 0
M  V30 32 H 0.129633 -2.589964 -5.205186 0
M  V30 33 H 2.292365 -2.133976 -4.976445 0
M  V30 34 H 4.369374 -1.010747 -4.413223 0
M  V30 35 H 4.686803 0.262588 -2.333240 0
M  V30 36 H 2.748946 0.384169 -0.741923 0
M  V30 37 H 0.581723 0.216994 0.489064 0
M  V30 38 H -2.760302 -0.186605 2.123523 0
M  V30 39 H -1.905185 1.826454 3.958819 0
M  V30 40 H 2.011372 0.410136 6.002300 0
M  V30 41 H 2.324523 1.113981 8.304710 0
M  V30 42 H 0.626993 2.485906 9.403745 0
M  V30 43 H -1.774221 2.488129 5.883862 0
M  V30 44 H -3.313570 -1.571074 0.009206 0
M  V30 45 H -2.581928 -2.497872 -2.185954 0
M  V30 END ATOM
M  V30 BEGIN BOND
M  V30 1 1 1 2
M  V30 2 1 2 3
M  V30 3 1 3 4
M  V30 4 2 4 5
M  V30 5 1 5 6
M  V30 6 2 6 7
M  V30 7 1 7 8
M  V30 8 2 8 9
M  V30 9 1 9 10
M  V30 10 2 10 11
M  V30 11 1 11 12
M  V30 12 1 12 13
M  V30 13 2 13 14
M  V30 14 1 14 15
M  V30 15 1 15 16
M  V30 16 2 16 17
M  V30 17 1 16 18
M  V30 18 2 18 19
M  V30 19 1 19 20
M  V30 20 2 20 21
M  V30 21 1 21 22
M  V30 22 1 22 23
M  V30 23 2 22 24
M  V30 24 2 12 25
M  V30 25 1 25 26
M  V30 26 2 26 27
M  V30 27 1 27 3
M  V30 28 1 9 4
M  V30 29 1 27 10
M  V30 30 1 24 18
M  V30 31 1 1 28
M  V30 32 1 1 29
M  V30 33 1 1 30
M  V30 34 1 2 31
M  V30 35 1 2 32
M  V30 36 1 5 33
M  V30 37 1 6 34
M  V30 38 1 7 35
M  V30 39 1 8 36
M  V30 40 1 11 37
M  V30 41 1 13 38
M  V30 42 1 15 39
M  V30 43 1 19 40
M  V30 44 1 20 41
M  V30 45 1 21 42
M  V30 46 1 24 43
M  V30 47 1 25 44
M  V30 48 1 26 45
M  V30 END BOND
M  V30 END CTAB
M  END
>  <Dataset>  (778) 
ChEMBL_Kinases

>  <Ligand_Instance>  (778) 
nan

>  <PDB_ID>  (778) 
nan

>  <Standardized_SMILES>  (778) 
CCn1c2ccccc2c2cc(/C=N/NC(=O)c3cccc(Cl)c3)ccc21

>  <Name>  (778) 
nan

>  <Pocket>  (778) 
nan

>  <ATP_Site>  (778) 
nan

>  <Peripheral>  (778) 
nan

>  <Num_H_Atoms_ProtBoundConf>  (778) 
nan

>  <Num_Resolved_Atoms>  (778) 
nan

>  <Num_Not_Resolved_Atoms>  (778) 
nan

$$$$
CHEMBL4444003
     RDKit          3D

  0  0  0  0  0  0  0  0  0  0999 V3000
M  V30 BEGIN CTAB
M  V30 COUNTS 38 40 0 0 0
M  V30 BEGIN ATOM
M  V30 1 C -1.047251 -4.271376 0.335099 0
M  V30 2 C -0.562877 -2.850528 0.390491 0
M  V30 3 C 0.966396 -2.907183 0.372170 0
M  V30 4 C -0.965253 -2.171567 -0.897405 0
M  V30 5 N -0.975797 -2.091192 1.554459 0
M  V30 6 C -0.492113 -0.763243 1.597904 0
M  V30 7 N 0.282068 -0.284504 0.640063 0
M  V30 8 C 0.787436 0.954112 0.602696 0
M  V30 9 C 1.633336 1.379710 -0.505354 0
M  V30 10 C 1.953006 0.546092 -1.554445 0
M  V30 11 C 2.768770 0.995922 -2.597929 0
M  V30 12 N 3.223568 2.250274 -2.543500 0
M  V30 13 C 2.925325 3.076786 -1.533806 0
M  V30 14 C 2.124012 2.667966 -0.487864 0
M  V30 15 N 0.489507 1.783897 1.614931 0
M  V30 16 C -0.281831 1.428948 2.646507 0
M  V30 17 C -0.571716 2.300889 3.670265 0
M  V30 18 N -1.352339 1.925980 4.701862 0
M  V30 19 C -1.844384 0.651049 4.693935 0
M  V30 20 C -1.548170 -0.214286 3.664123 0
M  V30 21 Cl -2.274922 -1.759164 3.860230 0
M  V30 22 C -0.754755 0.139858 2.598895 0
M  V30 23 H -2.078711 -4.327121 -0.118570 0
M  V30 24 H -1.165076 -4.703878 1.348486 0
M  V30 25 H -0.308236 -4.875755 -0.226864 0
M  V30 26 H 1.331096 -3.956084 0.561332 0
M  V30 27 H 1.389059 -2.645980 -0.614854 0
M  V30 28 H 1.411616 -2.303079 1.172678 0
M  V30 29 H -0.140452 -2.130337 -1.628885 0
M  V30 30 H -1.771403 -2.779104 -1.351491 0
M  V30 31 H -1.433518 -1.168996 -0.735508 0
M  V30 32 H -1.529410 -2.805763 2.016120 0
M  V30 33 H 1.581260 -0.466936 -1.591077 0
M  V30 34 H 3.040012 0.384025 -3.427587 0
M  V30 35 H 3.339215 4.060620 -1.584236 0
M  V30 36 H 1.913208 3.371539 0.301486 0
M  V30 37 H -0.129064 3.288162 3.576134 0
M  V30 38 H -2.456891 0.449113 5.561687 0
M  V30 END ATOM
M  V30 BEGIN BOND
M  V30 1 1 1 2
M  V30 2 1 2 3
M  V30 3 1 2 4
M  V30 4 1 2 5
M  V30 5 1 5 6
M  V30 6 2 6 7
M  V30 7 1 7 8
M  V30 8 1 8 9
M  V30 9 2 9 10
M  V30 10 1 10 11
M  V30 11 2 11 12
M  V30 12 1 12 13
M  V30 13 2 13 14
M  V30 14 2 8 15
M  V30 15 1 15 16
M  V30 16 2 16 17
M  V30 17 1 17 18
M  V30 18 2 18 19
M  V30 19 1 19 20
M  V30 20 1 20 21
M  V30 21 2 20 22
M  V30 22 1 22 6
M  V30 23 1 14 9
M  V30 24 1 22 16
M  V30 25 1 1 23
M  V30 26 1 1 24
M  V30 27 1 1 25
M  V30 28 1 3 26
M  V30 29 1 3 27
M  V30 30 1 3 28
M  V30 31 1 4 29
M  V30 32 1 4 30
M  V30 33 1 4 31
M  V30 34 1 5 32
M  V30 35 1 10 33
M  V30 36 1 11 34
M  V30 37 1 13 35
M  V30 38 1 14 36
M  V30 39 1 17 37
M  V30 40 1 19 38
M  V30 END BOND
M  V30 END CTAB
M  END
>  <Dataset>  (779) 
ChEMBL_Kinases

>  <Ligand_Instance>  (779) 
nan

>  <PDB_ID>  (779) 
nan

>  <Standardized_SMILES>  (779) 
CC(C)(C)Nc1nc(-c2ccncc2)nc2cncc(Cl)c12

>  <Name>  (779) 
nan

>  <Pocket>  (779) 
nan

>  <ATP_Site>  (779) 
nan

>  <Peripheral>  (779) 
nan

>  <Num_H_Atoms_ProtBoundConf>  (779) 
nan

>  <Num_Resolved_Atoms>  (779) 
nan

>  <Num_Not_Resolved_Atoms>  (779) 
nan

$$$$
CHEMBL4443912
     RDKit          3D

  0  0  0  0  0  0  0  0  0  0999 V3000
M  V30 BEGIN CTAB
M  V30 COUNTS 42 45 0 0 0
M  V30 BEGIN ATOM
M  V30 1 N -0.525890 -4.497082 1.520916 0
M  V30 2 C 0.624603 -4.471147 0.690788 0
M  V30 3 N 1.556876 -5.419010 0.653796 0
M  V30 4 C 2.645182 -5.341612 -0.166149 0
M  V30 5 C 2.817528 -4.253148 -1.002100 0
M  V30 6 N 3.744996 -3.877273 -1.904210 0
M  V30 7 C 3.395392 -2.701678 -2.428444 0
M  V30 8 C 2.208294 -2.282408 -1.864541 0
M  V30 9 C 1.374687 -1.083683 -2.061878 0
M  V30 10 C 1.022614 -0.523395 -3.278900 0
M  V30 11 C 0.231647 0.606179 -3.301536 0
M  V30 12 C -0.231030 1.211005 -2.140927 0
M  V30 13 C 0.098923 0.681499 -0.907606 0
M  V30 14 C -0.341041 1.249931 0.336182 0
M  V30 15 C -0.708038 1.708825 1.390162 0
M  V30 16 C -1.146840 2.254023 2.698471 0
M  V30 17 O -2.025939 3.295450 2.447081 0
M  V30 18 C -1.762077 1.175074 3.546602 0
M  V30 19 C -1.543010 1.639336 4.950816 0
M  V30 20 C -0.324787 2.505323 4.912193 0
M  V30 21 C 0.073877 2.649638 3.465903 0
M  V30 22 C 0.890689 -0.446721 -0.937346 0
M  V30 23 C 1.839625 -3.276963 -0.951443 0
M  V30 24 N 0.771267 -3.397075 -0.117571 0
M  V30 25 H -1.485699 -4.867772 1.357621 0
M  V30 26 H -0.593591 -4.115821 2.508328 0
M  V30 27 H 3.388130 -6.128409 -0.175012 0
M  V30 28 H 4.611586 -4.433315 -2.151853 0
M  V30 29 H 3.889355 -2.093817 -3.176387 0
M  V30 30 H 1.407330 -1.030636 -4.153367 0
M  V30 31 H -0.032263 1.029018 -4.273618 0
M  V30 32 H -0.848089 2.092847 -2.171673 0
M  V30 33 H -1.648427 3.803188 1.683052 0
M  V30 34 H -1.203965 0.242731 3.372421 0
M  V30 35 H -2.838165 1.042869 3.316474 0
M  V30 36 H -1.387352 0.746400 5.594435 0
M  V30 37 H -2.453991 2.151363 5.339687 0
M  V30 38 H 0.508053 2.070389 5.525175 0
M  V30 39 H -0.564054 3.483250 5.370927 0
M  V30 40 H 0.909422 1.969939 3.209722 0
M  V30 41 H 0.373319 3.697584 3.260025 0
M  V30 42 H 1.145745 -0.857443 0.045495 0
M  V30 END ATOM
M  V30 BEGIN BOND
M  V30 1 1 1 2
M  V30 2 2 2 3
M  V30 3 1 3 4
M  V30 4 2 4 5
M  V30 5 1 5 6
M  V30 6 1 6 7
M  V30 7 2 7 8
M  V30 8 1 8 9
M  V30 9 2 9 10
M  V30 10 1 10 11
M  V30 11 2 11 12
M  V30 12 1 12 13
M  V30 13 1 13 14
M  V30 14 3 14 15
M  V30 15 1 15 16
M  V30 16 1 16 17
M  V30 17 1 16 18
M  V30 18 1 18 19
M  V30 19 1 19 20
M  V30 20 1 20 21
M  V30 21 2 13 22
M  V30 22 1 8 23
M  V30 23 2 23 24
M  V30 24 1 24 2
M  V30 25 1 23 5
M  V30 26 1 22 9
M  V30 27 1 21 16
M  V30 28 1 1 25
M  V30 29 1 1 26
M  V30 30 1 4 27
M  V30 31 1 6 28
M  V30 32 1 7 29
M  V30 33 1 10 30
M  V30 34 1 11 31
M  V30 35 1 12 32
M  V30 36 1 17 33
M  V30 37 1 18 34
M  V30 38 1 18 35
M  V30 39 1 19 36
M  V30 40 1 19 37
M  V30 41 1 20 38
M  V30 42 1 20 39
M  V30 43 1 21 40
M  V30 44 1 21 41
M  V30 45 1 22 42
M  V30 END BOND
M  V30 END CTAB
M  END
>  <Dataset>  (780) 
ChEMBL_Kinases

>  <Ligand_Instance>  (780) 
nan

>  <PDB_ID>  (780) 
nan

>  <Standardized_SMILES>  (780) 
Nc1ncc2[nH]cc(-c3cccc(C#CC4(O)CCCC4)c3)c2n1

>  <Name>  (780) 
nan

>  <Pocket>  (780) 
nan

>  <ATP_Site>  (780) 
nan

>  <Peripheral>  (780) 
nan

>  <Num_H_Atoms_ProtBoundConf>  (780) 
nan

>  <Num_Resolved_Atoms>  (780) 
nan

>  <Num_Not_Resolved_Atoms>  (780) 
nan

$$$$
CHEMBL4443908
     RDKit          3D

  0  0  0  0  0  0  0  0  0  0999 V3000
M  V30 BEGIN CTAB
M  V30 COUNTS 51 54 0 0 0
M  V30 BEGIN ATOM
M  V30 1 C 4.077470 -1.413306 7.467392 0
M  V30 2 O 4.199959 -2.020363 6.216905 0
M  V30 3 C 3.892007 -1.374820 5.030847 0
M  V30 4 C 4.043509 -2.052920 3.844593 0
M  V30 5 C 3.744726 -1.435776 2.648951 0
M  V30 6 C 3.289590 -0.134201 2.601390 0
M  V30 7 C 2.944269 0.617007 1.400218 0
M  V30 8 O 2.528271 1.805140 1.418567 0
M  V30 9 N 3.070100 0.014455 0.137097 0
M  V30 10 C 2.723507 0.775617 -1.028347 0
M  V30 11 C 3.404362 1.618281 -1.883579 0
M  V30 12 N 2.517052 2.035370 -2.807985 0
M  V30 13 C 1.297797 1.506384 -2.595209 0
M  V30 14 N 0.159119 1.694844 -3.315055 0
M  V30 15 C -0.949872 1.041468 -2.890113 0
M  V30 16 C -0.944680 0.214848 -1.775747 0
M  V30 17 C -2.137398 -0.490274 -1.316247 0
M  V30 18 C -2.250761 -0.720503 0.054033 0
M  V30 19 C -3.373888 -1.386369 0.500726 0
M  V30 20 C -4.355589 -1.809700 -0.399357 0
M  V30 21 O -5.457275 -2.474537 0.132694 0
M  V30 22 C -5.527512 -2.684107 1.524226 0
M  V30 23 C -4.239120 -1.579570 -1.754652 0
M  V30 24 O -5.263854 -2.041364 -2.531821 0
M  V30 25 C -5.331940 -1.908012 -3.920429 0
M  V30 26 C -3.113271 -0.912773 -2.196615 0
M  V30 27 C 0.243055 0.067180 -1.090598 0
M  V30 28 C 1.412967 0.698226 -1.460584 0
M  V30 29 C 3.151167 0.515207 3.831185 0
M  V30 30 C 3.436704 -0.059124 5.050398 0
M  V30 31 H 4.322872 -2.193318 8.236738 0
M  V30 32 H 3.081308 -1.028970 7.718083 0
M  V30 33 H 4.858971 -0.614662 7.594553 0
M  V30 34 H 4.391911 -3.073399 3.758064 0
M  V30 35 H 3.851437 -1.935602 1.704615 0
M  V30 36 H 3.400866 -0.958864 -0.027902 0
M  V30 37 H 4.440021 1.795296 -1.697723 0
M  V30 38 H 2.884482 2.699234 -3.550841 0
M  V30 39 H -1.868840 1.180994 -3.454132 0
M  V30 40 H -1.510390 -0.406571 0.774772 0
M  V30 41 H -3.456695 -1.564430 1.582835 0
M  V30 42 H -6.388982 -3.326694 1.784195 0
M  V30 43 H -4.619870 -3.277266 1.832602 0
M  V30 44 H -5.594866 -1.732721 2.110772 0
M  V30 45 H -4.647405 -2.600822 -4.470170 0
M  V30 46 H -5.039552 -0.871970 -4.189369 0
M  V30 47 H -6.404758 -2.057820 -4.222052 0
M  V30 48 H -3.030563 -0.738629 -3.245615 0
M  V30 49 H 0.287408 -0.576319 -0.206303 0
M  V30 50 H 2.792056 1.550388 3.831348 0
M  V30 51 H 3.307826 0.499130 5.967304 0
M  V30 END ATOM
M  V30 BEGIN BOND
M  V30 1 1 1 2
M  V30 2 1 2 3
M  V30 3 2 3 4
M  V30 4 1 4 5
M  V30 5 2 5 6
M  V30 6 1 6 7
M  V30 7 2 7 8
M  V30 8 1 7 9
M  V30 9 1 9 10
M  V30 10 2 10 11
M  V30 11 1 11 12
M  V30 12 1 12 13
M  V30 13 2 13 14
M  V30 14 1 14 15
M  V30 15 2 15 16
M  V30 16 1 16 17
M  V30 17 2 17 18
M  V30 18 1 18 19
M  V30 19 2 19 20
M  V30 20 1 20 21
M  V30 21 1 21 22
M  V30 22 1 20 23
M  V30 23 1 23 24
M  V30 24 1 24 25
M  V30 25 2 23 26
M  V30 26 1 16 27
M  V30 27 2 27 28
M  V30 28 1 6 29
M  V30 29 2 29 30
M  V30 30 1 30 3
M  V30 31 1 28 10
M  V30 32 1 28 13
M  V30 33 1 26 17
M  V30 34 1 1 31
M  V30 35 1 1 32
M  V30 36 1 1 33
M  V30 37 1 4 34
M  V30 38 1 5 35
M  V30 39 1 9 36
M  V30 40 1 11 37
M  V30 41 1 12 38
M  V30 42 1 15 39
M  V30 43 1 18 40
M  V30 44 1 19 41
M  V30 45 1 22 42
M  V30 46 1 22 43
M  V30 47 1 22 44
M  V30 48 1 25 45
M  V30 49 1 25 46
M  V30 50 1 25 47
M  V30 51 1 26 48
M  V30 52 1 27 49
M  V30 53 1 29 50
M  V30 54 1 30 51
M  V30 END BOND
M  V30 END CTAB
M  END
>  <Dataset>  (781) 
ChEMBL_Kinases

>  <Ligand_Instance>  (781) 
nan

>  <PDB_ID>  (781) 
nan

>  <Standardized_SMILES>  (781) 
COc1ccc(C(=O)Nc2c[nH]c3ncc(-c4ccc(OC)c(OC)c4)cc23)cc1

>  <Name>  (781) 
nan

>  <Pocket>  (781) 
nan

>  <ATP_Site>  (781) 
nan

>  <Peripheral>  (781) 
nan

>  <Num_H_Atoms_ProtBoundConf>  (781) 
nan

>  <Num_Resolved_Atoms>  (781) 
nan

>  <Num_Not_Resolved_Atoms>  (781) 
nan

$$$$
CHEMBL4443876
     RDKit          3D

  0  0  0  0  0  0  0  0  0  0999 V3000
M  V30 BEGIN CTAB
M  V30 COUNTS 33 34 0 0 0
M  V30 BEGIN ATOM
M  V30 1 O -1.243134 -0.844516 2.418222 0
M  V30 2 C -1.848667 -1.765551 1.810329 0
M  V30 3 C -1.317354 -3.064719 1.346409 0
M  V30 4 C 0.143036 -3.245379 1.673290 0
M  V30 5 N 0.981253 -2.253800 1.085540 0
M  V30 6 C 2.411814 -2.173687 1.226425 0
M  V30 7 S 3.091381 -3.353357 2.155969 0
M  V30 8 N 3.148641 -1.131555 0.589981 0
M  V30 9 C 2.156291 -0.353358 -0.098159 0
M  V30 10 C 1.758709 -0.583615 -1.403202 0
M  V30 11 C 0.788689 0.233929 -1.964111 0
M  V30 12 C 0.256368 1.249276 -1.194242 0
M  V30 13 C 0.645242 1.489645 0.110632 0
M  V30 14 C 1.622450 0.666439 0.676363 0
M  V30 15 C -0.082508 2.622701 0.677996 0
M  V30 16 O 0.029052 3.107643 1.843288 0
M  V30 17 N -0.961290 3.084138 -0.360285 0
M  V30 18 C -0.758447 2.252543 -1.499188 0
M  V30 19 O -1.385211 2.403670 -2.578464 0
M  V30 20 N -3.221308 -1.501490 1.545570 0
M  V30 21 O -3.691414 -0.295349 1.982924 0
M  V30 22 H -1.903517 -3.863136 1.845552 0
M  V30 23 H -1.435284 -3.204922 0.243936 0
M  V30 24 H 0.282627 -3.185398 2.786083 0
M  V30 25 H 0.475652 -4.249227 1.388993 0
M  V30 26 H 0.499510 -1.519352 0.498468 0
M  V30 27 H 4.184700 -1.150025 0.745723 0
M  V30 28 H 2.228298 -1.398801 -1.928799 0
M  V30 29 H 0.469087 0.061257 -2.988724 0
M  V30 30 H 1.916375 0.865805 1.698269 0
M  V30 31 H -1.597039 3.905332 -0.184486 0
M  V30 32 H -3.895973 -2.126567 1.057959 0
M  V30 33 H -3.807048 0.339355 1.226846 0
M  V30 END ATOM
M  V30 BEGIN BOND
M  V30 1 2 1 2
M  V30 2 1 2 3
M  V30 3 1 3 4
M  V30 4 1 4 5
M  V30 5 1 5 6
M  V30 6 2 6 7
M  V30 7 1 6 8
M  V30 8 1 8 9
M  V30 9 2 9 10
M  V30 10 1 10 11
M  V30 11 2 11 12
M  V30 12 1 12 13
M  V30 13 2 13 14
M  V30 14 1 13 15
M  V30 15 2 15 16
M  V30 16 1 15 17
M  V30 17 1 17 18
M  V30 18 2 18 19
M  V30 19 1 2 20
M  V30 20 1 20 21
M  V30 21 1 14 9
M  V30 22 1 18 12
M  V30 23 1 3 22
M  V30 24 1 3 23
M  V30 25 1 4 24
M  V30 26 1 4 25
M  V30 27 1 5 26
M  V30 28 1 8 27
M  V30 29 1 10 28
M  V30 30 1 11 29
M  V30 31 1 14 30
M  V30 32 1 17 31
M  V30 33 1 20 32
M  V30 34 1 21 33
M  V30 END BOND
M  V30 END CTAB
M  END
>  <Dataset>  (782) 
ChEMBL_Kinases

>  <Ligand_Instance>  (782) 
nan

>  <PDB_ID>  (782) 
nan

>  <Standardized_SMILES>  (782) 
O=C(CCNC(=S)Nc1ccc2c(c1)C(=O)NC2=O)NO

>  <Name>  (782) 
nan

>  <Pocket>  (782) 
nan

>  <ATP_Site>  (782) 
nan

>  <Peripheral>  (782) 
nan

>  <Num_H_Atoms_ProtBoundConf>  (782) 
nan

>  <Num_Resolved_Atoms>  (782) 
nan

>  <Num_Not_Resolved_Atoms>  (782) 
nan

$$$$
CHEMBL4443872
     RDKit          3D

  0  0  0  0  0  0  0  0  0  0999 V3000
M  V30 BEGIN CTAB
M  V30 COUNTS 45 48 0 0 0
M  V30 BEGIN ATOM
M  V30 1 C 0.223456 -3.620553 4.873220 0
M  V30 2 C 1.283566 -4.218899 4.005505 0
M  V30 3 O 1.049346 -4.095402 2.636959 0
M  V30 4 C 0.909577 -2.928295 1.952607 0
M  V30 5 O 1.036755 -2.027495 2.812863 0
M  V30 6 C 0.660720 -2.587515 0.523474 0
M  V30 7 N 0.583580 -1.213467 0.223029 0
M  V30 8 C 0.124759 0.112200 0.214299 0
M  V30 9 N 0.706621 1.129855 -0.484528 0
M  V30 10 C 0.267729 2.383607 -0.488958 0
M  V30 11 C 1.026040 3.324123 -1.298314 0
M  V30 12 C 0.535654 4.611113 -1.273421 0
M  V30 13 C 1.219881 5.562550 -2.030763 0
M  V30 14 N 2.296856 5.195464 -2.732344 0
M  V30 15 C 2.737352 3.924315 -2.724430 0
M  V30 16 C 2.126488 2.893141 -2.000484 0
M  V30 17 N -0.813912 2.662715 0.239294 0
M  V30 18 C -1.501719 1.781007 0.980998 0
M  V30 19 C -2.609446 2.169689 1.700893 0
M  V30 20 N -3.255422 1.242221 2.424921 0
M  V30 21 C -2.835655 -0.054009 2.455001 0
M  V30 22 C -1.720944 -0.368472 1.710325 0
M  V30 23 C -0.985537 0.502677 0.934627 0
M  V30 24 C 1.487298 -3.489250 -0.398687 0
M  V30 25 C 0.413479 -4.536833 -0.240856 0
M  V30 26 C -0.546039 -3.404626 0.030799 0
M  V30 27 H -0.014119 -4.336996 5.684268 0
M  V30 28 H 0.584773 -2.654124 5.318885 0
M  V30 29 H -0.687596 -3.370736 4.287998 0
M  V30 30 H 1.377030 -5.325341 4.210173 0
M  V30 31 H 2.275747 -3.779859 4.233180 0
M  V30 32 H 1.445350 -1.200998 -0.374461 0
M  V30 33 H -0.340957 4.891531 -0.697540 0
M  V30 34 H 0.894043 6.593707 -2.060527 0
M  V30 35 H 3.629484 3.690318 -3.324031 0
M  V30 36 H 2.483848 1.881598 -1.999244 0
M  V30 37 H -2.928451 3.196624 1.667029 0
M  V30 38 H -3.373001 -0.780332 3.045413 0
M  V30 39 H -1.437309 -1.402396 1.773843 0
M  V30 40 H 1.464975 -3.074659 -1.438697 0
M  V30 41 H 2.477232 -3.768816 -0.011707 0
M  V30 42 H 0.196261 -5.108938 -1.171975 0
M  V30 43 H 0.563552 -5.188342 0.655935 0
M  V30 44 H -0.891281 -2.980293 -0.925589 0
M  V30 45 H -1.311229 -3.604813 0.801163 0
M  V30 END ATOM
M  V30 BEGIN BOND
M  V30 1 1 1 2
M  V30 2 1 2 3
M  V30 3 1 3 4
M  V30 4 2 4 5
M  V30 5 1 4 6
M  V30 6 1 6 7
M  V30 7 1 7 8
M  V30 8 2 8 9
M  V30 9 1 9 10
M  V30 10 1 10 11
M  V30 11 2 11 12
M  V30 12 1 12 13
M  V30 13 2 13 14
M  V30 14 1 14 15
M  V30 15 2 15 16
M  V30 16 2 10 17
M  V30 17 1 17 18
M  V30 18 2 18 19
M  V30 19 1 19 20
M  V30 20 2 20 21
M  V30 21 1 21 22
M  V30 22 2 22 23
M  V30 23 1 6 24
M  V30 24 1 24 25
M  V30 25 1 25 26
M  V30 26 1 26 6
M  V30 27 1 23 8
M  V30 28 1 16 11
M  V30 29 1 23 18
M  V30 30 1 1 27
M  V30 31 1 1 28
M  V30 32 1 1 29
M  V30 33 1 2 30
M  V30 34 1 2 31
M  V30 35 1 7 32
M  V30 36 1 12 33
M  V30 37 1 13 34
M  V30 38 1 15 35
M  V30 39 1 16 36
M  V30 40 1 19 37
M  V30 41 1 21 38
M  V30 42 1 22 39
M  V30 43 1 24 40
M  V30 44 1 24 41
M  V30 45 1 25 42
M  V30 46 1 25 43
M  V30 47 1 26 44
M  V30 48 1 26 45
M  V30 END BOND
M  V30 END CTAB
M  END
>  <Dataset>  (783) 
ChEMBL_Kinases

>  <Ligand_Instance>  (783) 
nan

>  <PDB_ID>  (783) 
nan

>  <Standardized_SMILES>  (783) 
CCOC(=O)C1(Nc2nc(-c3ccncc3)nc3cnccc23)CCC1

>  <Name>  (783) 
nan

>  <Pocket>  (783) 
nan

>  <ATP_Site>  (783) 
nan

>  <Peripheral>  (783) 
nan

>  <Num_H_Atoms_ProtBoundConf>  (783) 
nan

>  <Num_Resolved_Atoms>  (783) 
nan

>  <Num_Not_Resolved_Atoms>  (783) 
nan

$$$$
CHEMBL4751285
     RDKit          3D

  0  0  0  0  0  0  0  0  0  0999 V3000
M  V30 BEGIN CTAB
M  V30 COUNTS 41 44 0 0 0
M  V30 BEGIN ATOM
M  V30 1 C 1.929482 -4.919033 3.139273 0
M  V30 2 O 0.783850 -5.401818 2.481860 0
M  V30 3 C 0.273404 -4.932588 1.297794 0
M  V30 4 C 0.867751 -3.890307 0.608289 0
M  V30 5 C 0.346884 -3.426696 -0.580995 0
M  V30 6 C 0.889259 -2.330304 -1.394784 0
M  V30 7 N 0.332215 -1.030723 -1.089764 0
M  V30 8 C -0.767281 -0.636626 -1.769629 0
M  V30 9 N -1.355089 0.568633 -1.548270 0
M  V30 10 C -0.844100 1.425223 -0.620970 0
M  V30 11 C -1.502245 2.631643 -0.456666 0
M  V30 12 C -0.950171 3.470289 0.494939 0
M  V30 13 C 0.169507 3.144111 1.231589 0
M  V30 14 C 0.720149 4.056970 2.226136 0
M  V30 15 C 0.735156 5.456737 2.257269 0
M  V30 16 N 1.353448 5.886695 3.373870 0
M  V30 17 N 1.737233 4.810450 4.063216 0
M  V30 18 C 1.367116 3.704927 3.392275 0
M  V30 19 C 0.808878 1.915750 1.038915 0
M  V30 20 C 0.272165 1.066280 0.093644 0
M  V30 21 C 0.805819 -0.158682 -0.184064 0
M  V30 22 O 1.828497 -0.507089 0.458819 0
M  V30 23 C -0.796230 -4.017899 -1.095327 0
M  V30 24 C -1.399722 -5.058669 -0.418241 0
M  V30 25 C -0.880654 -5.536013 0.786780 0
M  V30 26 F -1.440294 -6.553520 1.482111 0
M  V30 27 H 2.663182 -4.671902 2.339272 0
M  V30 28 H 2.306618 -5.778316 3.760792 0
M  V30 29 H 1.655668 -4.057480 3.773273 0
M  V30 30 H 1.758154 -3.403784 0.975600 0
M  V30 31 H 0.769163 -2.488991 -2.479016 0
M  V30 32 H 1.994727 -2.254883 -1.233839 0
M  V30 33 H -1.188342 -1.300532 -2.509872 0
M  V30 34 H -2.372878 2.943923 -0.994627 0
M  V30 35 H -1.441032 4.422993 0.648489 0
M  V30 36 H 0.296876 6.074170 1.467812 0
M  V30 37 H 2.249741 4.747265 4.988408 0
M  V30 38 H 1.539840 2.681082 3.700591 0
M  V30 39 H 1.676574 1.633556 1.591869 0
M  V30 40 H -1.348146 -3.790422 -2.011952 0
M  V30 41 H -2.292339 -5.590467 -0.729789 0
M  V30 END ATOM
M  V30 BEGIN BOND
M  V30 1 1 1 2
M  V30 2 1 2 3
M  V30 3 2 3 4
M  V30 4 1 4 5
M  V30 5 1 5 6
M  V30 6 1 6 7
M  V30 7 1 7 8
M  V30 8 2 8 9
M  V30 9 1 9 10
M  V30 10 2 10 11
M  V30 11 1 11 12
M  V30 12 2 12 13
M  V30 13 1 13 14
M  V30 14 1 14 15
M  V30 15 2 15 16
M  V30 16 1 16 17
M  V30 17 1 17 18
M  V30 18 1 13 19
M  V30 19 2 19 20
M  V30 20 1 20 21
M  V30 21 2 21 22
M  V30 22 2 5 23
M  V30 23 1 23 24
M  V30 24 2 24 25
M  V30 25 1 25 26
M  V30 26 1 25 3
M  V30 27 1 21 7
M  V30 28 1 20 10
M  V30 29 2 18 14
M  V30 30 1 1 27
M  V30 31 1 1 28
M  V30 32 1 1 29
M  V30 33 1 4 30
M  V30 34 1 6 31
M  V30 35 1 6 32
M  V30 36 1 8 33
M  V30 37 1 11 34
M  V30 38 1 12 35
M  V30 39 1 15 36
M  V30 40 1 17 37
M  V30 41 1 18 38
M  V30 42 1 19 39
M  V30 43 1 23 40
M  V30 44 1 24 41
M  V30 END BOND
M  V30 END CTAB
M  END
>  <Dataset>  (784) 
ChEMBL_Kinases

>  <Ligand_Instance>  (784) 
nan

>  <PDB_ID>  (784) 
nan

>  <Standardized_SMILES>  (784) 
COc1cc(Cn2cnc3ccc(-c4cn[nH]c4)cc3c2=O)ccc1F

>  <Name>  (784) 
nan

>  <Pocket>  (784) 
nan

>  <ATP_Site>  (784) 
nan

>  <Peripheral>  (784) 
nan

>  <Num_H_Atoms_ProtBoundConf>  (784) 
nan

>  <Num_Resolved_Atoms>  (784) 
nan

>  <Num_Not_Resolved_Atoms>  (784) 
nan

$$$$
CHEMBL4443821
     RDKit          3D

  0  0  0  0  0  0  0  0  0  0999 V3000
M  V30 BEGIN CTAB
M  V30 COUNTS 45 48 0 0 0
M  V30 BEGIN ATOM
M  V30 1 O -2.198699 -3.068055 3.654145 0
M  V30 2 C -1.313030 -2.438436 3.029745 0
M  V30 3 C -1.595342 -1.158440 2.376152 0
M  V30 4 C -0.801188 -0.381180 1.694632 0
M  V30 5 C -1.147429 0.887969 1.066754 0
M  V30 6 C -2.378776 1.445953 1.103360 0
M  V30 7 N -2.660025 2.622580 0.514017 0
M  V30 8 C -1.725189 3.348106 -0.168349 0
M  V30 9 N -1.758070 4.518078 -0.822755 0
M  V30 10 C -0.516334 4.745419 -1.308284 0
M  V30 11 C 0.329052 3.697693 -0.956698 0
M  V30 12 C 1.752420 3.527751 -1.279145 0
M  V30 13 C 2.791431 4.428090 -1.162440 0
M  V30 14 C 4.059195 4.084816 -1.523211 0
M  V30 15 C 4.375630 2.835490 -2.019288 0
M  V30 16 F 5.666631 2.559836 -2.360381 0
M  V30 17 C 3.336843 1.927029 -2.139090 0
M  V30 18 C 2.047394 2.255512 -1.779426 0
M  V30 19 C -0.446792 2.793927 -0.220829 0
M  V30 20 C -0.176905 1.592444 0.386143 0
M  V30 21 N -0.035703 -3.062880 3.012623 0
M  V30 22 C 0.321924 -4.304498 3.623815 0
M  V30 23 C -0.118381 -5.517105 2.921567 0
M  V30 24 C -1.320839 -6.185914 3.111461 0
M  V30 25 C -1.535039 -7.315046 2.341825 0
M  V30 26 N -0.698809 -7.819430 1.438440 0
M  V30 27 C 0.495207 -7.200853 1.213645 0
M  V30 28 C 0.735702 -6.071176 1.968197 0
M  V30 29 H -2.616530 -0.784830 2.462083 0
M  V30 30 H 0.224654 -0.758830 1.609526 0
M  V30 31 H -3.183716 0.968332 1.607446 0
M  V30 32 H -2.620334 5.118374 -0.916171 0
M  V30 33 H -0.235978 5.621259 -1.885962 0
M  V30 34 H 2.460676 5.384952 -0.764563 0
M  V30 35 H 4.837210 4.839900 -1.407537 0
M  V30 36 H 3.675014 0.967382 -2.539198 0
M  V30 37 H 1.393420 1.398185 -1.957169 0
M  V30 38 H 0.826375 1.156295 0.348989 0
M  V30 39 H 0.707836 -2.517377 2.478019 0
M  V30 40 H 1.441770 -4.351349 3.698713 0
M  V30 41 H -0.016609 -4.380651 4.682401 0
M  V30 42 H -1.994503 -5.789832 3.832797 0
M  V30 43 H -2.474602 -7.860739 2.471969 0
M  V30 44 H 1.224102 -7.550815 0.498448 0
M  V30 45 H 1.695169 -5.580938 1.783729 0
M  V30 END ATOM
M  V30 BEGIN BOND
M  V30 1 2 1 2
M  V30 2 1 2 3
M  V30 3 2 3 4
M  V30 4 1 4 5
M  V30 5 2 5 6
M  V30 6 1 6 7
M  V30 7 2 7 8
M  V30 8 1 8 9
M  V30 9 1 9 10
M  V30 10 2 10 11
M  V30 11 1 11 12
M  V30 12 2 12 13
M  V30 13 1 13 14
M  V30 14 2 14 15
M  V30 15 1 15 16
M  V30 16 1 15 17
M  V30 17 2 17 18
M  V30 18 1 11 19
M  V30 19 2 19 20
M  V30 20 1 2 21
M  V30 21 1 21 22
M  V30 22 1 22 23
M  V30 23 2 23 24
M  V30 24 1 24 25
M  V30 25 2 25 26
M  V30 26 1 26 27
M  V30 27 2 27 28
M  V30 28 1 20 5
M  V30 29 1 28 23
M  V30 30 1 19 8
M  V30 31 1 18 12
M  V30 32 1 3 29
M  V30 33 1 4 30
M  V30 34 1 6 31
M  V30 35 1 9 32
M  V30 36 1 10 33
M  V30 37 1 13 34
M  V30 38 1 14 35
M  V30 39 1 17 36
M  V30 40 1 18 37
M  V30 41 1 20 38
M  V30 42 1 21 39
M  V30 43 1 22 40
M  V30 44 1 22 41
M  V30 45 1 24 42
M  V30 46 1 25 43
M  V30 47 1 27 44
M  V30 48 1 28 45
M  V30 END BOND
M  V30 END CTAB
M  END
>  <Dataset>  (785) 
ChEMBL_Kinases

>  <Ligand_Instance>  (785) 
nan

>  <PDB_ID>  (785) 
nan

>  <Standardized_SMILES>  (785) 
O=C(/C=C/c1cnc2[nH]cc(-c3ccc(F)cc3)c2c1)NCc1ccncc1

>  <Name>  (785) 
nan

>  <Pocket>  (785) 
nan

>  <ATP_Site>  (785) 
nan

>  <Peripheral>  (785) 
nan

>  <Num_H_Atoms_ProtBoundConf>  (785) 
nan

>  <Num_Resolved_Atoms>  (785) 
nan

>  <Num_Not_Resolved_Atoms>  (785) 
nan

$$$$
CHEMBL4443751
     RDKit          3D

  0  0  0  0  0  0  0  0  0  0999 V3000
M  V30 BEGIN CTAB
M  V30 COUNTS 39 40 0 0 0
M  V30 BEGIN ATOM
M  V30 1 O -0.555351 -0.844149 0.534066 0
M  V30 2 C 0.640544 -0.503813 0.722363 0
M  V30 3 N 1.642365 -1.480887 0.501585 0
M  V30 4 O 1.961093 -2.727589 0.150533 0
M  V30 5 C 2.155036 -2.756294 -1.230121 0
M  V30 6 C 2.547662 -4.159102 -1.699497 0
M  V30 7 C 2.728729 -4.061129 -3.205254 0
M  V30 8 O 1.528819 -3.647940 -3.793857 0
M  V30 9 C 1.006008 0.815605 1.144267 0
M  V30 10 C 2.308212 1.206991 1.360176 0
M  V30 11 C 2.545347 2.506667 1.768234 0
M  V30 12 C 1.493174 3.378444 1.950448 0
M  V30 13 F 1.773236 4.636157 2.349395 0
M  V30 14 C 0.182070 2.980195 1.731739 0
M  V30 15 F -0.855963 3.833027 1.909135 0
M  V30 16 C -0.036001 1.658376 1.318369 0
M  V30 17 N -1.397869 1.303048 1.108478 0
M  V30 18 C -2.234787 0.774147 2.126545 0
M  V30 19 C -1.695782 0.598520 3.384096 0
M  V30 20 C -2.537661 0.085249 4.340714 0
M  V30 21 C -3.863536 -0.238752 4.051156 0
M  V30 22 F -4.727586 -0.744117 4.952964 0
M  V30 23 C -4.365246 -0.050511 2.788590 0
M  V30 24 C -3.533766 0.471000 1.789551 0
M  V30 25 F -3.967737 0.680990 0.523551 0
M  V30 26 H 2.651903 -1.348808 0.614041 0
M  V30 27 H 2.914734 -2.004622 -1.479854 0
M  V30 28 H 1.177930 -2.566051 -1.763782 0
M  V30 29 H 1.690150 -4.814641 -1.514106 0
M  V30 30 H 3.481979 -4.422184 -1.206152 0
M  V30 31 H 2.933978 -5.080091 -3.565295 0
M  V30 32 H 3.538490 -3.353802 -3.477690 0
M  V30 33 H 0.813738 -4.010266 -3.197541 0
M  V30 34 H 3.133682 0.525206 1.217863 0
M  V30 35 H 3.582935 2.800386 1.935009 0
M  V30 36 H -1.723802 1.469162 0.130806 0
M  V30 37 H -0.687695 0.829337 3.662190 0
M  V30 38 H -2.288083 -0.114592 5.365405 0
M  V30 39 H -5.373984 -0.263970 2.447995 0
M  V30 END ATOM
M  V30 BEGIN BOND
M  V30 1 2 1 2
M  V30 2 1 2 3
M  V30 3 1 3 4
M  V30 4 1 4 5
M  V30 5 1 5 6
M  V30 6 1 6 7
M  V30 7 1 7 8
M  V30 8 1 2 9
M  V30 9 2 9 10
M  V30 10 1 10 11
M  V30 11 2 11 12
M  V30 12 1 12 13
M  V30 13 1 12 14
M  V30 14 1 14 15
M  V30 15 2 14 16
M  V30 16 1 16 17
M  V30 17 1 17 18
M  V30 18 2 18 19
M  V30 19 1 19 20
M  V30 20 2 20 21
M  V30 21 1 21 22
M  V30 22 1 21 23
M  V30 23 2 23 24
M  V30 24 1 24 25
M  V30 25 1 16 9
M  V30 26 1 24 18
M  V30 27 1 3 26
M  V30 28 1 5 27
M  V30 29 1 5 28
M  V30 30 1 6 29
M  V30 31 1 6 30
M  V30 32 1 7 31
M  V30 33 1 7 32
M  V30 34 1 8 33
M  V30 35 1 10 34
M  V30 36 1 11 35
M  V30 37 1 17 36
M  V30 38 1 19 37
M  V30 39 1 20 38
M  V30 40 1 23 39
M  V30 END BOND
M  V30 END CTAB
M  END
>  <Dataset>  (786) 
ChEMBL_Kinases

>  <Ligand_Instance>  (786) 
nan

>  <PDB_ID>  (786) 
nan

>  <Standardized_SMILES>  (786) 
O=C(NOCCCO)c1ccc(F)c(F)c1Nc1ccc(F)cc1F

>  <Name>  (786) 
nan

>  <Pocket>  (786) 
nan

>  <ATP_Site>  (786) 
nan

>  <Peripheral>  (786) 
nan

>  <Num_H_Atoms_ProtBoundConf>  (786) 
nan

>  <Num_Resolved_Atoms>  (786) 
nan

>  <Num_Not_Resolved_Atoms>  (786) 
nan

$$$$
CHEMBL4443724
     RDKit          3D

  0  0  0  0  0  0  0  0  0  0999 V3000
M  V30 BEGIN CTAB
M  V30 COUNTS 35 37 0 0 0
M  V30 BEGIN ATOM
M  V30 1 O 2.726760 -0.869493 3.184086 0
M  V30 2 C 1.940319 -0.901106 2.206131 0
M  V30 3 N 1.681143 -2.157451 1.638098 0
M  V30 4 C 2.143012 -3.445336 1.956639 0
M  V30 5 C 1.725858 -4.545158 1.233316 0
M  V30 6 C 2.159061 -5.803260 1.527193 0
M  V30 7 N 3.012120 -6.055575 2.530449 0
M  V30 8 C 3.469170 -5.038389 3.287449 0
M  V30 9 C 3.014623 -3.776385 2.967895 0
M  V30 10 C 1.349613 0.341092 1.722770 0
M  V30 11 C 0.477920 0.558651 0.688223 0
M  V30 12 C 0.152480 1.889941 0.554262 0
M  V30 13 C -0.732710 2.600094 -0.343660 0
M  V30 14 O -0.395449 3.820550 -0.551260 0
M  V30 15 C -1.930188 2.196403 -1.055058 0
M  V30 16 C -2.343636 3.014131 -2.078445 0
M  V30 17 F -1.703071 4.158702 -2.486166 0
M  V30 18 C -3.484564 2.778645 -2.844924 0
M  V30 19 C -4.244762 1.661272 -2.562417 0
M  V30 20 C -3.822948 0.855883 -1.540545 0
M  V30 21 C -2.697521 1.087165 -0.783313 0
M  V30 22 F -2.377208 0.262495 0.207127 0
M  V30 23 C 0.880643 2.482133 1.572859 0
M  V30 24 N 1.564269 1.564996 2.234297 0
M  V30 25 H 1.007040 -2.083518 0.816339 0
M  V30 26 H 1.025789 -4.455176 0.388403 0
M  V30 27 H 1.832249 -6.651376 0.961854 0
M  V30 28 H 4.153796 -5.213394 4.099057 0
M  V30 29 H 3.405240 -2.995957 3.595905 0
M  V30 30 H 0.149672 -0.263631 0.093368 0
M  V30 31 H -3.821750 3.411038 -3.651670 0
M  V30 32 H -5.128790 1.449566 -3.134483 0
M  V30 33 H -4.402762 -0.046328 -1.281841 0
M  V30 34 H 0.906283 3.539798 1.815740 0
M  V30 35 H 2.202461 1.757525 3.061611 0
M  V30 END ATOM
M  V30 BEGIN BOND
M  V30 1 2 1 2
M  V30 2 1 2 3
M  V30 3 1 3 4
M  V30 4 2 4 5
M  V30 5 1 5 6
M  V30 6 2 6 7
M  V30 7 1 7 8
M  V30 8 2 8 9
M  V30 9 1 2 10
M  V30 10 2 10 11
M  V30 11 1 11 12
M  V30 12 1 12 13
M  V30 13 2 13 14
M  V30 14 1 13 15
M  V30 15 2 15 16
M  V30 16 1 16 17
M  V30 17 1 16 18
M  V30 18 2 18 19
M  V30 19 1 19 20
M  V30 20 2 20 21
M  V30 21 1 21 22
M  V30 22 2 12 23
M  V30 23 1 23 24
M  V30 24 1 9 4
M  V30 25 1 24 10
M  V30 26 1 21 15
M  V30 27 1 3 25
M  V30 28 1 5 26
M  V30 29 1 6 27
M  V30 30 1 8 28
M  V30 31 1 9 29
M  V30 32 1 11 30
M  V30 33 1 18 31
M  V30 34 1 19 32
M  V30 35 1 20 33
M  V30 36 1 23 34
M  V30 37 1 24 35
M  V30 END BOND
M  V30 END CTAB
M  END
>  <Dataset>  (787) 
ChEMBL_Kinases

>  <Ligand_Instance>  (787) 
nan

>  <PDB_ID>  (787) 
nan

>  <Standardized_SMILES>  (787) 
O=C(Nc1ccncc1)c1cc(C(=O)c2c(F)cccc2F)c[nH]1

>  <Name>  (787) 
nan

>  <Pocket>  (787) 
nan

>  <ATP_Site>  (787) 
nan

>  <Peripheral>  (787) 
nan

>  <Num_H_Atoms_ProtBoundConf>  (787) 
nan

>  <Num_Resolved_Atoms>  (787) 
nan

>  <Num_Not_Resolved_Atoms>  (787) 
nan

$$$$
CHEMBL4443718
     RDKit          3D

  0  0  0  0  0  0  0  0  0  0999 V3000
M  V30 BEGIN CTAB
M  V30 COUNTS 57 58 0 0 0
M  V30 BEGIN ATOM
M  V30 1 C 2.572961 1.596966 4.980326 0
M  V30 2 C 3.462190 0.763363 4.056052 0
M  V30 3 C 3.638904 -0.591024 4.671250 0
M  V30 4 C 4.500890 -1.514705 3.851014 0
M  V30 5 C 3.945092 -1.763928 2.467739 0
M  V30 6 C 2.590209 -2.376609 2.480032 0
M  V30 7 C 2.125840 -2.599416 1.061697 0
M  V30 8 C 2.041543 -1.353095 0.242499 0
M  V30 9 C 1.550872 -1.696909 -1.162720 0
M  V30 10 C 1.485809 -0.473130 -2.002832 0
M  V30 11 C 0.594969 0.618535 -1.543475 0
M  V30 12 C -0.825950 0.302132 -1.414120 0
M  V30 13 C -1.514931 0.428212 -0.295931 0
M  V30 14 O -0.943972 0.875609 0.864154 0
M  V30 15 C -2.931230 0.076750 -0.310354 0
M  V30 16 O -3.554563 0.217600 0.799213 0
M  V30 17 C -3.685117 -0.413068 -1.463252 0
M  V30 18 C -2.932131 -0.514465 -2.541892 0
M  V30 19 O -3.581339 -0.974548 -3.674865 0
M  V30 20 C -4.932175 -1.278837 -3.576309 0
M  V30 21 N -5.518537 -1.742864 -4.779159 0
M  V30 22 C -5.713833 -1.191403 -2.531432 0
M  V30 23 C -7.089448 -1.555192 -2.631544 0
M  V30 24 N -8.215862 -1.834562 -2.705826 0
M  V30 25 C -5.120202 -0.703716 -1.271564 0
M  V30 26 N -5.388812 -1.576399 -0.140929 0 CHG=1 VAL=4
M  V30 27 O -6.604015 -1.775381 -0.097309 0
M  V30 28 O -6.782765 -1.743698 -0.172223 0 CHG=-1 VAL=1
M  V30 29 C -1.522621 -0.185342 -2.608141 0
M  V30 30 O -0.949823 -0.343703 -3.739515 0
M  V30 31 H 1.648636 1.072926 5.271190 0
M  V30 32 H 2.410885 2.602610 4.536449 0
M  V30 33 H 3.203169 1.762290 5.902484 0
M  V30 34 H 4.443785 1.270743 4.016553 0
M  V30 35 H 3.063633 0.738019 3.020050 0
M  V30 36 H 2.689264 -1.063621 4.998547 0
M  V30 37 H 4.217816 -0.421224 5.619814 0
M  V30 38 H 4.719609 -2.426783 4.407251 0
M  V30 39 H 5.474156 -0.976054 3.699682 0
M  V30 40 H 3.978778 -0.826060 1.884318 0
M  V30 41 H 4.650647 -2.469341 1.983792 0
M  V30 42 H 2.629513 -3.399336 2.943606 0
M  V30 43 H 1.815241 -1.747065 2.960396 0
M  V30 44 H 1.141105 -3.111015 1.012363 0
M  V30 45 H 2.856030 -3.278419 0.533282 0
M  V30 46 H 1.262412 -0.711761 0.701226 0
M  V30 47 H 2.981152 -0.800774 0.127665 0
M  V30 48 H 0.632942 -2.312067 -1.148068 0
M  V30 49 H 2.339502 -2.397373 -1.567312 0
M  V30 50 H 1.214481 -0.816325 -3.040097 0
M  V30 51 H 2.542050 -0.090123 -2.092001 0
M  V30 52 H 1.023669 1.111816 -0.639647 0
M  V30 53 H 0.657438 1.430987 -2.329077 0
M  V30 54 H -1.389648 1.371511 1.608771 0
M  V30 55 H -5.327694 -1.917688 -5.775900 0
M  V30 56 H -5.888005 -2.072621 -5.693059 0
M  V30 57 H -5.630505 0.285825 -1.061773 0
M  V30 END ATOM
M  V30 BEGIN BOND
M  V30 1 1 1 2
M  V30 2 1 2 3
M  V30 3 1 3 4
M  V30 4 1 4 5
M  V30 5 1 5 6
M  V30 6 1 6 7
M  V30 7 1 7 8
M  V30 8 1 8 9
M  V30 9 1 9 10
M  V30 10 1 10 11
M  V30 11 1 11 12
M  V30 12 2 12 13
M  V30 13 1 13 14
M  V30 14 1 13 15
M  V30 15 2 15 16
M  V30 16 1 15 17
M  V30 17 2 17 18
M  V30 18 1 18 19
M  V30 19 1 19 20
M  V30 20 1 20 21
M  V30 21 2 20 22
M  V30 22 1 22 23
M  V30 23 3 23 24
M  V30 24 1 22 25
M  V30 25 1 25 26
M  V30 26 2 26 27
M  V30 27 1 26 28
M  V30 28 1 18 29
M  V30 29 2 29 30
M  V30 30 1 29 12
M  V30 31 1 25 17
M  V30 32 1 1 31
M  V30 33 1 1 32
M  V30 34 1 1 33
M  V30 35 1 2 34
M  V30 36 1 2 35
M  V30 37 1 3 36
M  V30 38 1 3 37
M  V30 39 1 4 38
M  V30 40 1 4 39
M  V30 41 1 5 40
M  V30 42 1 5 41
M  V30 43 1 6 42
M  V30 44 1 6 43
M  V30 45 1 7 44
M  V30 46 1 7 45
M  V30 47 1 8 46
M  V30 48 1 8 47
M  V30 49 1 9 48
M  V30 50 1 9 49
M  V30 51 1 10 50
M  V30 52 1 10 51
M  V30 53 1 11 52
M  V30 54 1 11 53
M  V30 55 1 14 54
M  V30 56 1 21 55
M  V30 57 1 21 56
M  V30 58 1 25 57
M  V30 END BOND
M  V30 END CTAB
M  END
>  <Dataset>  (788) 
ChEMBL_Kinases

>  <Ligand_Instance>  (788) 
nan

>  <PDB_ID>  (788) 
nan

>  <Standardized_SMILES>  (788) 
CCCCCCCCCCCC1=C(O)C(=O)C2=C(OC(N)=C(C#N)C2[N+](=O)[O-])C1=O

>  <Name>  (788) 
nan

>  <Pocket>  (788) 
nan

>  <ATP_Site>  (788) 
nan

>  <Peripheral>  (788) 
nan

>  <Num_H_Atoms_ProtBoundConf>  (788) 
nan

>  <Num_Resolved_Atoms>  (788) 
nan

>  <Num_Not_Resolved_Atoms>  (788) 
nan

$$$$
CHEMBL4443714
     RDKit          3D

  0  0  0  0  0  0  0  0  0  0999 V3000
M  V30 BEGIN CTAB
M  V30 COUNTS 38 40 0 0 0
M  V30 BEGIN ATOM
M  V30 1 O 0.580169 -2.656511 3.339958 0
M  V30 2 C 0.060023 -2.024572 2.391159 0
M  V30 3 N 0.150630 -2.527733 1.069747 0
M  V30 4 C 0.785288 -3.731683 0.609107 0
M  V30 5 C 2.257860 -3.630318 0.542204 0
M  V30 6 C 3.175323 -3.956471 1.526532 0
M  V30 7 C 4.522610 -3.796337 1.298809 0
M  V30 8 N 4.942124 -3.319889 0.109806 0
M  V30 9 C 4.118596 -2.981365 -0.894388 0
M  V30 10 C 2.762776 -3.144817 -0.658731 0
M  V30 11 C -0.645251 -0.759334 2.657678 0
M  V30 12 C -1.194253 0.068728 1.706083 0
M  V30 13 C -1.794171 1.145021 2.318302 0
M  V30 14 C -2.473623 2.244120 1.591085 0
M  V30 15 O -3.358315 2.857215 2.272261 0
M  V30 16 C -2.066320 2.498882 0.211566 0
M  V30 17 C -0.665974 2.576786 0.118249 0
M  V30 18 C 0.018472 2.836106 -1.070866 0
M  V30 19 C -0.746723 3.022490 -2.206115 0
M  V30 20 C -2.122290 2.947161 -2.123260 0
M  V30 21 Cl -3.139810 3.174988 -3.532906 0
M  V30 22 C -2.786605 2.692523 -0.949117 0
M  V30 23 Cl -4.500134 2.566869 -0.705216 0
M  V30 24 C -1.601003 0.962008 3.674547 0
M  V30 25 N -0.911560 -0.185190 3.831749 0
M  V30 26 H -0.317410 -1.920354 0.335486 0
M  V30 27 H 0.394755 -3.999086 -0.377458 0
M  V30 28 H 0.523552 -4.548820 1.341109 0
M  V30 29 H 2.669016 -4.327365 2.425430 0
M  V30 30 H 5.164235 -4.076092 2.122611 0
M  V30 31 H 4.497801 -2.598902 -1.845384 0
M  V30 32 H 2.116324 -2.868463 -1.482105 0
M  V30 33 H -1.173452 -0.079966 0.624603 0
M  V30 34 H 0.024681 2.443815 0.965527 0
M  V30 35 H 1.093700 2.892589 -1.121249 0
M  V30 36 H -0.253651 3.230499 -3.159359 0
M  V30 37 H -1.995700 1.700112 4.359217 0
M  V30 38 H -0.636971 -0.547779 4.765510 0
M  V30 END ATOM
M  V30 BEGIN BOND
M  V30 1 2 1 2
M  V30 2 1 2 3
M  V30 3 1 3 4
M  V30 4 1 4 5
M  V30 5 2 5 6
M  V30 6 1 6 7
M  V30 7 2 7 8
M  V30 8 1 8 9
M  V30 9 2 9 10
M  V30 10 1 2 11
M  V30 11 2 11 12
M  V30 12 1 12 13
M  V30 13 1 13 14
M  V30 14 2 14 15
M  V30 15 1 14 16
M  V30 16 2 16 17
M  V30 17 1 17 18
M  V30 18 2 18 19
M  V30 19 1 19 20
M  V30 20 1 20 21
M  V30 21 2 20 22
M  V30 22 1 22 23
M  V30 23 2 13 24
M  V30 24 1 24 25
M  V30 25 1 10 5
M  V30 26 1 25 11
M  V30 27 1 22 16
M  V30 28 1 3 26
M  V30 29 1 4 27
M  V30 30 1 4 28
M  V30 31 1 6 29
M  V30 32 1 7 30
M  V30 33 1 9 31
M  V30 34 1 10 32
M  V30 35 1 12 33
M  V30 36 1 17 34
M  V30 37 1 18 35
M  V30 38 1 19 36
M  V30 39 1 24 37
M  V30 40 1 25 38
M  V30 END BOND
M  V30 END CTAB
M  END
>  <Dataset>  (789) 
ChEMBL_Kinases

>  <Ligand_Instance>  (789) 
nan

>  <PDB_ID>  (789) 
nan

>  <Standardized_SMILES>  (789) 
O=C(NCc1ccncc1)c1cc(C(=O)c2cccc(Cl)c2Cl)c[nH]1

>  <Name>  (789) 
nan

>  <Pocket>  (789) 
nan

>  <ATP_Site>  (789) 
nan

>  <Peripheral>  (789) 
nan

>  <Num_H_Atoms_ProtBoundConf>  (789) 
nan

>  <Num_Resolved_Atoms>  (789) 
nan

>  <Num_Not_Resolved_Atoms>  (789) 
nan

$$$$
CHEMBL4448179
     RDKit          3D

  0  0  0  0  0  0  0  0  0  0999 V3000
M  V30 BEGIN CTAB
M  V30 COUNTS 43 46 0 0 0
M  V30 BEGIN ATOM
M  V30 1 C 0.534125 -3.146557 -0.268564 0
M  V30 2 C 1.432515 -2.534595 0.768449 0
M  V30 3 C 2.269932 -3.531707 1.508929 0
M  V30 4 C 3.087160 -2.772086 2.535772 0
M  V30 5 C 2.166243 -2.225361 3.602697 0
M  V30 6 C 0.707038 -2.278430 3.135647 0
M  V30 7 N 0.625203 -1.821478 1.740002 0
M  V30 8 C -0.135038 -0.765386 1.161485 0
M  V30 9 C 0.560685 0.261706 0.514740 0
M  V30 10 C -0.115247 1.312531 -0.065587 0
M  V30 11 C 0.563595 2.408201 -0.751829 0
M  V30 12 C -0.207034 3.414526 -1.300341 0
M  V30 13 C 0.414443 4.478478 -1.964546 0
M  V30 14 N 1.747935 4.566706 -2.094854 0
M  V30 15 C 2.514927 3.584809 -1.560536 0
M  V30 16 C 1.931218 2.518556 -0.897190 0
M  V30 17 N -1.458800 1.368382 -0.019762 0
M  V30 18 C -2.181276 0.388927 0.600446 0
M  V30 19 C -3.555106 0.422439 0.661214 0
M  V30 20 N -4.203938 -0.565822 1.282292 0
M  V30 21 C -3.595720 -1.624224 1.871057 0
M  V30 22 C -2.209811 -1.665473 1.814144 0
M  V30 23 C -1.505944 -0.663520 1.181760 0
M  V30 24 H -0.208953 -3.838774 0.137931 0
M  V30 25 H 1.172585 -3.609972 -1.048709 0
M  V30 26 H 0.024368 -2.302051 -0.776560 0
M  V30 27 H 2.128907 -1.843974 0.252308 0
M  V30 28 H 1.626314 -4.275191 2.052286 0
M  V30 29 H 2.952938 -4.100837 0.845326 0
M  V30 30 H 3.903142 -3.386230 2.961976 0
M  V30 31 H 3.546095 -1.912253 1.996274 0
M  V30 32 H 2.242011 -2.792703 4.528422 0
M  V30 33 H 2.410895 -1.157670 3.836989 0
M  V30 34 H 0.138749 -1.602342 3.806941 0
M  V30 35 H 0.313414 -3.294979 3.267560 0
M  V30 36 H 1.617916 0.210512 0.482964 0
M  V30 37 H -1.289129 3.423385 -1.242071 0
M  V30 38 H -0.193166 5.282752 -2.403418 0
M  V30 39 H 3.606704 3.614687 -1.642236 0
M  V30 40 H 2.551267 1.744787 -0.477041 0
M  V30 41 H -4.094560 1.241860 0.209412 0
M  V30 42 H -4.144879 -2.420478 2.373016 0
M  V30 43 H -1.716756 -2.490533 2.271996 0
M  V30 END ATOM
M  V30 BEGIN BOND
M  V30 1 1 1 2
M  V30 2 1 2 3
M  V30 3 1 3 4
M  V30 4 1 4 5
M  V30 5 1 5 6
M  V30 6 1 6 7
M  V30 7 1 7 8
M  V30 8 2 8 9
M  V30 9 1 9 10
M  V30 10 1 10 11
M  V30 11 2 11 12
M  V30 12 1 12 13
M  V30 13 2 13 14
M  V30 14 1 14 15
M  V30 15 2 15 16
M  V30 16 2 10 17
M  V30 17 1 17 18
M  V30 18 2 18 19
M  V30 19 1 19 20
M  V30 20 2 20 21
M  V30 21 1 21 22
M  V30 22 2 22 23
M  V30 23 1 7 2
M  V30 24 1 23 8
M  V30 25 1 16 11
M  V30 26 1 23 18
M  V30 27 1 1 24
M  V30 28 1 1 25
M  V30 29 1 1 26
M  V30 30 1 2 27
M  V30 31 1 3 28
M  V30 32 1 3 29
M  V30 33 1 4 30
M  V30 34 1 4 31
M  V30 35 1 5 32
M  V30 36 1 5 33
M  V30 37 1 6 34
M  V30 38 1 6 35
M  V30 39 1 9 36
M  V30 40 1 12 37
M  V30 41 1 13 38
M  V30 42 1 15 39
M  V30 43 1 16 40
M  V30 44 1 19 41
M  V30 45 1 21 42
M  V30 46 1 22 43
M  V30 END BOND
M  V30 END CTAB
M  END
>  <Dataset>  (790) 
ChEMBL_Kinases

>  <Ligand_Instance>  (790) 
nan

>  <PDB_ID>  (790) 
nan

>  <Standardized_SMILES>  (790) 
CC1CCCCN1c1cc(-c2ccncc2)nc2cnccc12

>  <Name>  (790) 
nan

>  <Pocket>  (790) 
nan

>  <ATP_Site>  (790) 
nan

>  <Peripheral>  (790) 
nan

>  <Num_H_Atoms_ProtBoundConf>  (790) 
nan

>  <Num_Resolved_Atoms>  (790) 
nan

>  <Num_Not_Resolved_Atoms>  (790) 
nan

$$$$
CHEMBL4443683
     RDKit          3D

  0  0  0  0  0  0  0  0  0  0999 V3000
M  V30 BEGIN CTAB
M  V30 COUNTS 69 74 0 0 0
M  V30 BEGIN ATOM
M  V30 1 C -2.454700 2.535603 2.461248 0
M  V30 2 C -1.545384 1.580827 3.121811 0
M  V30 3 C -0.634468 0.930606 2.318004 0
M  V30 4 C 0.174108 0.043728 3.066858 0
M  V30 5 C 1.195782 -0.699528 2.331731 0
M  V30 6 C 2.547927 -1.039799 2.507960 0
M  V30 7 N 2.963126 -1.758446 1.452084 0
M  V30 8 N 1.918892 -1.893129 0.596829 0
M  V30 9 C 1.884772 -2.549060 -0.614702 0
M  V30 10 N 3.077430 -3.194907 -1.136982 0
M  V30 11 C 3.946266 -2.459436 -1.998398 0
M  V30 12 C 4.540175 -1.220366 -1.390403 0 CFG=1
M  V30 13 C 5.462591 -0.451242 -2.320428 0
M  V30 14 C 4.790237 0.823178 -1.886874 0 CFG=2
M  V30 15 O 5.599090 1.471543 -0.954352 0
M  V30 16 C 3.675474 -0.014857 -1.258314 0
M  V30 17 C 0.665092 -2.555131 -1.341733 0
M  V30 18 C -0.496180 -1.892843 -0.826103 0
M  V30 19 N -1.667540 -1.916779 -1.574810 0
M  V30 20 C -1.962170 -2.493157 -2.832297 0
M  V30 21 C -1.077565 -1.847094 -3.873943 0
M  V30 22 C -0.592771 -2.960244 -4.763917 0
M  V30 23 C -1.271111 -4.213178 -4.301087 0
M  V30 24 C -1.841826 -3.969451 -2.939587 0
M  V30 25 N 0.088353 -1.537583 0.163533 0
M  V30 26 C 0.827646 -1.241842 1.136076 0
M  V30 27 C 0.126029 -0.197901 4.409345 0
M  V30 28 C -0.823053 0.496427 5.171728 0
M  V30 29 C -1.622619 1.372093 4.438868 0
M  V30 30 C -2.550159 2.033480 5.385723 0
M  V30 31 O -3.173770 2.617447 6.244329 0
M  V30 32 N -3.851492 1.723279 4.756330 0
M  V30 33 C -5.222307 2.040547 5.131324 0
M  V30 34 C -6.362072 1.178449 4.655725 0
M  V30 35 C -6.175032 2.575247 4.128355 0
M  V30 36 H -3.172614 2.033511 1.779133 0
M  V30 37 H -2.895853 3.233264 3.177891 0
M  V30 38 H -1.823383 3.165608 1.765674 0
M  V30 39 H -0.574444 1.099329 1.268231 0
M  V30 40 H 3.015121 -0.681412 3.428010 0
M  V30 41 H 2.872886 -4.089085 -0.647580 0
M  V30 42 H 3.480539 -2.213073 -2.982065 0
M  V30 43 H 4.810425 -3.138174 -2.255636 0
M  V30 44 H 5.049419 -1.420036 -0.417336 0
M  V30 45 H 6.510031 -0.566766 -2.037034 0
M  V30 46 H 5.296041 -0.739091 -3.384749 0
M  V30 47 H 4.463210 1.478228 -2.718049 0
M  V30 48 H 5.255782 1.330097 -0.035702 0
M  V30 49 H 2.782092 0.068102 -1.910334 0
M  V30 50 H 3.523280 0.395797 -0.221274 0
M  V30 51 H 0.772522 -3.121005 -2.288010 0
M  V30 52 H -2.372827 -1.390733 -1.016665 0
M  V30 53 H -3.052083 -2.238277 -3.067161 0
M  V30 54 H -0.235990 -1.309003 -3.403941 0
M  V30 55 H -1.691368 -1.111445 -4.454487 0
M  V30 56 H -0.808414 -2.723614 -5.813379 0
M  V30 57 H 0.505729 -3.101816 -4.658270 0
M  V30 58 H -0.559277 -5.082096 -4.229449 0
M  V30 59 H -2.090380 -4.509592 -5.014327 0
M  V30 60 H -2.886011 -4.411428 -2.880298 0
M  V30 61 H -1.218635 -4.391710 -2.118680 0
M  V30 62 H 0.800452 -0.904845 4.872939 0
M  V30 63 H -0.823556 0.274141 6.223642 0
M  V30 64 H -3.995683 1.157007 3.827816 0
M  V30 65 H -5.347470 2.472785 6.136549 0
M  V30 66 H -6.055975 0.317502 4.029612 0
M  V30 67 H -7.200617 0.943830 5.333547 0
M  V30 68 H -6.956206 3.291012 4.476560 0
M  V30 69 H -5.926677 2.760732 3.075217 0
M  V30 END ATOM
M  V30 BEGIN BOND
M  V30 1 1 1 2
M  V30 2 2 2 3
M  V30 3 1 3 4
M  V30 4 1 4 5
M  V30 5 1 5 6
M  V30 6 2 6 7
M  V30 7 1 7 8
M  V30 8 1 8 9
M  V30 9 1 9 10
M  V30 10 1 10 11
M  V30 11 1 11 12
M  V30 12 1 12 13
M  V30 13 1 13 14
M  V30 14 1 14 15
M  V30 15 1 14 16
M  V30 16 2 9 17
M  V30 17 1 17 18
M  V30 18 1 18 19
M  V30 19 1 19 20
M  V30 20 1 20 21
M  V30 21 1 21 22
M  V30 22 1 22 23
M  V30 23 1 23 24
M  V30 24 2 18 25
M  V30 25 1 25 26
M  V30 26 2 4 27
M  V30 27 1 27 28
M  V30 28 2 28 29
M  V30 29 1 29 30
M  V30 30 2 30 31
M  V30 31 1 30 32
M  V30 32 1 32 33
M  V30 33 1 33 34
M  V30 34 1 34 35
M  V30 35 1 29 2
M  V30 36 1 35 33
M  V30 37 2 26 5
M  V30 38 1 26 8
M  V30 39 1 16 12
M  V30 40 1 24 20
M  V30 41 1 1 36
M  V30 42 1 1 37
M  V30 43 1 1 38
M  V30 44 1 3 39
M  V30 45 1 6 40
M  V30 46 1 10 41
M  V30 47 1 11 42
M  V30 48 1 11 43
M  V30 49 1 12 44 CFG=1
M  V30 50 1 13 45
M  V30 51 1 13 46
M  V30 52 1 14 47 CFG=3
M  V30 53 1 15 48
M  V30 54 1 16 49
M  V30 55 1 16 50
M  V30 56 1 17 51
M  V30 57 1 19 52
M  V30 58 1 20 53
M  V30 59 1 21 54
M  V30 60 1 21 55
M  V30 61 1 22 56
M  V30 62 1 22 57
M  V30 63 1 23 58
M  V30 64 1 23 59
M  V30 65 1 24 60
M  V30 66 1 24 61
M  V30 67 1 27 62
M  V30 68 1 28 63
M  V30 69 1 32 64
M  V30 70 1 33 65
M  V30 71 1 34 66
M  V30 72 1 34 67
M  V30 73 1 35 68
M  V30 74 1 35 69
M  V30 END BOND
M  V30 END CTAB
M  END
>  <Dataset>  (791) 
ChEMBL_Kinases

>  <Ligand_Instance>  (791) 
nan

>  <PDB_ID>  (791) 
nan

>  <Standardized_SMILES>  (791) 
Cc1cc(-c2cnn3c(NC[C@H]4C[C@H](O)C4)cc(NC4CCCC4)nc23)ccc1C(=O)NC1CC1

>  <Name>  (791) 
nan

>  <Pocket>  (791) 
nan

>  <ATP_Site>  (791) 
nan

>  <Peripheral>  (791) 
nan

>  <Num_H_Atoms_ProtBoundConf>  (791) 
nan

>  <Num_Resolved_Atoms>  (791) 
nan

>  <Num_Not_Resolved_Atoms>  (791) 
nan

$$$$
CHEMBL4443629
     RDKit          3D

  0  0  0  0  0  0  0  0  0  0999 V3000
M  V30 BEGIN CTAB
M  V30 COUNTS 38 41 0 0 0
M  V30 BEGIN ATOM
M  V30 1 O 3.986155 -5.168230 4.868982 0
M  V30 2 C 2.853009 -4.899764 4.397745 0
M  V30 3 O 1.711393 -5.291921 5.112863 0
M  V30 4 C 2.704340 -4.193897 3.131823 0
M  V30 5 C 3.869384 -3.831527 2.471320 0
M  V30 6 C 3.813206 -3.155766 1.260078 0
M  V30 7 C 2.580719 -2.863085 0.746672 0
M  V30 8 N 2.413716 -2.174495 -0.483367 0
M  V30 9 C 1.104531 -1.827148 -1.088414 0
M  V30 10 N 0.496901 -0.894147 -0.921024 0
M  V30 11 C -0.684638 -0.531279 -1.439957 0
M  V30 12 C -1.360292 0.721563 -1.125837 0
M  V30 13 C -0.874550 1.679073 -0.257940 0
M  V30 14 C -1.508460 2.867865 0.044161 0
M  V30 15 C -0.907070 3.740783 0.934939 0
M  V30 16 C -1.569266 4.939420 1.225178 0
M  V30 17 C -2.782187 5.197059 0.616305 0
M  V30 18 C -3.369322 4.316386 -0.270050 0
M  V30 19 C -2.723109 3.132082 -0.561891 0
M  V30 20 O -3.196236 2.225163 -1.392143 0
M  V30 21 C -2.569129 1.104295 -1.658509 0
M  V30 22 O -3.172568 0.365227 -2.471953 0
M  V30 23 C -1.247946 -1.453219 -2.324412 0
M  V30 24 S 0.019127 -2.789901 -2.319061 0
M  V30 25 C 1.430806 -3.244675 1.441496 0
M  V30 26 C 1.461034 -3.912677 2.638926 0
M  V30 27 H 1.758583 -5.602008 6.075125 0
M  V30 28 H 4.868829 -4.043875 2.843182 0
M  V30 29 H 4.670515 -2.837322 0.681380 0
M  V30 30 H 3.265001 -1.879016 -1.023336 0
M  V30 31 H 0.088851 1.488889 0.233728 0
M  V30 32 H 0.060063 3.504259 1.402406 0
M  V30 33 H -1.069634 5.596971 1.925381 0
M  V30 34 H -3.265388 6.134748 0.865285 0
M  V30 35 H -4.316214 4.516839 -0.745510 0
M  V30 36 H -2.079306 -1.569025 -2.905651 0
M  V30 37 H 0.464862 -2.998564 1.008923 0
M  V30 38 H 0.549007 -4.190216 3.145336 0
M  V30 END ATOM
M  V30 BEGIN BOND
M  V30 1 2 1 2
M  V30 2 1 2 3
M  V30 3 1 2 4
M  V30 4 2 4 5
M  V30 5 1 5 6
M  V30 6 2 6 7
M  V30 7 1 7 8
M  V30 8 1 8 9
M  V30 9 2 9 10
M  V30 10 1 10 11
M  V30 11 1 11 12
M  V30 12 2 12 13
M  V30 13 1 13 14
M  V30 14 2 14 15
M  V30 15 1 15 16
M  V30 16 2 16 17
M  V30 17 1 17 18
M  V30 18 2 18 19
M  V30 19 1 19 20
M  V30 20 1 20 21
M  V30 21 2 21 22
M  V30 22 2 11 23
M  V30 23 1 23 24
M  V30 24 1 7 25
M  V30 25 2 25 26
M  V30 26 1 26 4
M  V30 27 1 24 9
M  V30 28 1 21 12
M  V30 29 1 19 14
M  V30 30 1 3 27
M  V30 31 1 5 28
M  V30 32 1 6 29
M  V30 33 1 8 30
M  V30 34 1 13 31
M  V30 35 1 15 32
M  V30 36 1 16 33
M  V30 37 1 17 34
M  V30 38 1 18 35
M  V30 39 1 23 36
M  V30 40 1 25 37
M  V30 41 1 26 38
M  V30 END BOND
M  V30 END CTAB
M  END
>  <Dataset>  (792) 
ChEMBL_Kinases

>  <Ligand_Instance>  (792) 
nan

>  <PDB_ID>  (792) 
nan

>  <Standardized_SMILES>  (792) 
O=C(O)c1ccc(Nc2nc(-c3cc4ccccc4oc3=O)cs2)cc1

>  <Name>  (792) 
nan

>  <Pocket>  (792) 
nan

>  <ATP_Site>  (792) 
nan

>  <Peripheral>  (792) 
nan

>  <Num_H_Atoms_ProtBoundConf>  (792) 
nan

>  <Num_Resolved_Atoms>  (792) 
nan

>  <Num_Not_Resolved_Atoms>  (792) 
nan

$$$$
CHEMBL4443611
     RDKit          3D

  0  0  0  0  0  0  0  0  0  0999 V3000
M  V30 BEGIN CTAB
M  V30 COUNTS 50 53 0 0 0
M  V30 BEGIN ATOM
M  V30 1 C 1.793013 2.036854 4.434269 0
M  V30 2 C 1.386204 0.585793 4.249270 0 CFG=2
M  V30 3 O 0.996261 0.021546 5.477104 0
M  V30 4 C 2.580535 -0.154438 3.717871 0
M  V30 5 N 3.000345 0.416081 2.454042 0
M  V30 6 C 2.232379 0.492550 1.269083 0
M  V30 7 O 1.103892 -0.013034 1.445882 0
M  V30 8 C 2.715168 1.081813 0.035576 0
M  V30 9 C 3.963976 1.632805 -0.089076 0
M  V30 10 N 4.325154 2.159617 -1.263841 0
M  V30 11 C 3.528312 2.180772 -2.338976 0
M  V30 12 C 2.274252 1.624974 -2.206434 0
M  V30 13 C 1.824440 1.053486 -1.006527 0
M  V30 14 N 0.535631 0.562052 -1.137345 0
M  V30 15 C -0.315928 -0.565984 -1.075700 0
M  V30 16 C -1.414054 -0.792588 -0.303059 0
M  V30 17 C -2.112457 -1.972134 -0.385313 0
M  V30 18 C -3.283643 -2.185289 0.454848 0
M  V30 19 C -3.796521 -1.292366 1.369885 0
M  V30 20 C -4.905881 -1.548822 2.135320 0
M  V30 21 C -5.573227 -2.749720 2.015095 0
M  V30 22 F -6.666461 -3.053508 2.741023 0
M  V30 23 C -5.091110 -3.682539 1.103090 0
M  V30 24 C -3.975728 -3.384126 0.356021 0
M  V30 25 F -3.541588 -4.319090 -0.517933 0
M  V30 26 N -1.706308 -2.922401 -1.244240 0
M  V30 27 C -0.637505 -2.779167 -2.039364 0
M  V30 28 N -0.083875 -3.601404 -2.947874 0
M  V30 29 C 0.982643 -2.994404 -3.483866 0
M  V30 30 C 1.081627 -1.763662 -2.882782 0
M  V30 31 C 0.074736 -1.576876 -1.955701 0
M  V30 32 H 1.345359 2.697294 3.673437 0
M  V30 33 H 2.903303 2.168172 4.317509 0
M  V30 34 H 1.478127 2.337135 5.438203 0
M  V30 35 H 0.515364 0.549061 3.594040 0
M  V30 36 H 0.413987 -0.758211 5.343068 0
M  V30 37 H 2.281087 -1.218901 3.468446 0
M  V30 38 H 3.379968 -0.188420 4.453884 0
M  V30 39 H 3.991834 0.808376 2.451770 0
M  V30 40 H 4.656834 1.649494 0.737437 0
M  V30 41 H 3.902093 2.627668 -3.249639 0
M  V30 42 H 1.697054 1.691535 -3.143747 0
M  V30 43 H -0.195342 1.293617 -1.394827 0
M  V30 44 H -1.663407 0.026673 0.354755 0
M  V30 45 H -3.300474 -0.352715 1.485350 0
M  V30 46 H -5.247811 -0.795763 2.832871 0
M  V30 47 H -5.584648 -4.643547 0.973769 0
M  V30 48 H -0.446600 -4.557267 -3.180890 0
M  V30 49 H 1.633764 -3.400697 -4.241614 0
M  V30 50 H 1.846745 -1.071731 -3.124903 0
M  V30 END ATOM
M  V30 BEGIN BOND
M  V30 1 1 1 2
M  V30 2 1 2 3
M  V30 3 1 2 4
M  V30 4 1 4 5
M  V30 5 1 5 6
M  V30 6 2 6 7
M  V30 7 1 6 8
M  V30 8 2 8 9
M  V30 9 1 9 10
M  V30 10 2 10 11
M  V30 11 1 11 12
M  V30 12 2 12 13
M  V30 13 1 13 14
M  V30 14 1 14 15
M  V30 15 2 15 16
M  V30 16 1 16 17
M  V30 17 1 17 18
M  V30 18 2 18 19
M  V30 19 1 19 20
M  V30 20 2 20 21
M  V30 21 1 21 22
M  V30 22 1 21 23
M  V30 23 2 23 24
M  V30 24 1 24 25
M  V30 25 2 17 26
M  V30 26 1 26 27
M  V30 27 1 27 28
M  V30 28 1 28 29
M  V30 29 2 29 30
M  V30 30 1 30 31
M  V30 31 1 13 8
M  V30 32 1 31 15
M  V30 33 1 24 18
M  V30 34 2 31 27
M  V30 35 1 1 32
M  V30 36 1 1 33
M  V30 37 1 1 34
M  V30 38 1 2 35 CFG=3
M  V30 39 1 3 36
M  V30 40 1 4 37
M  V30 41 1 4 38
M  V30 42 1 5 39
M  V30 43 1 9 40
M  V30 44 1 11 41
M  V30 45 1 12 42
M  V30 46 1 14 43
M  V30 47 1 16 44
M  V30 48 1 19 45
M  V30 49 1 20 46
M  V30 50 1 23 47
M  V30 51 1 28 48
M  V30 52 1 29 49
M  V30 53 1 30 50
M  V30 END BOND
M  V30 END CTAB
M  END
>  <Dataset>  (793) 
ChEMBL_Kinases

>  <Ligand_Instance>  (793) 
nan

>  <PDB_ID>  (793) 
nan

>  <Standardized_SMILES>  (793) 
C[C@H](O)CNC(=O)c1cnccc1Nc1cc(-c2ccc(F)cc2F)nc2[nH]ccc12

>  <Name>  (793) 
nan

>  <Pocket>  (793) 
nan

>  <ATP_Site>  (793) 
nan

>  <Peripheral>  (793) 
nan

>  <Num_H_Atoms_ProtBoundConf>  (793) 
nan

>  <Num_Resolved_Atoms>  (793) 
nan

>  <Num_Not_Resolved_Atoms>  (793) 
nan

$$$$
CHEMBL4443603
     RDKit          3D

  0  0  0  0  0  0  0  0  0  0999 V3000
M  V30 BEGIN CTAB
M  V30 COUNTS 62 67 0 0 0
M  V30 BEGIN ATOM
M  V30 1 C 2.928820 -4.122161 -0.512917 0
M  V30 2 N 3.461945 -3.111306 -1.409087 0
M  V30 3 C 4.531556 -3.459512 -2.322411 0
M  V30 4 C 5.221634 -2.284984 -2.918467 0
M  V30 5 O 4.912139 -1.043875 -2.295151 0
M  V30 6 C 3.659563 -0.744677 -1.802944 0
M  V30 7 C 2.894951 -1.816663 -1.338086 0
M  V30 8 C 1.644539 -1.535933 -0.844453 0
M  V30 9 N 1.138772 -0.272613 -0.795524 0
M  V30 10 N 1.853922 0.738055 -1.231493 0
M  V30 11 C 1.596831 2.059634 -1.297697 0
M  V30 12 C 0.398507 2.795533 -0.890764 0
M  V30 13 C 0.402684 4.180571 -1.094212 0
M  V30 14 C -0.704147 4.899699 -0.730133 0
M  V30 15 C -1.774441 4.227081 -0.178865 0
M  V30 16 C -1.786686 2.874851 0.023318 0
M  V30 17 C -2.943918 2.217466 0.611648 0
M  V30 18 C -4.047336 2.946784 0.970113 0
M  V30 19 C -5.137738 2.341426 1.523448 0
M  V30 20 C -5.164992 0.984672 1.738887 0
M  V30 21 C -4.071305 0.177699 1.396538 0
M  V30 22 N -4.093619 -1.225354 1.606144 0
M  V30 23 C -3.108887 -2.230343 1.369973 0
M  V30 24 C -1.870540 -2.126964 2.221624 0
M  V30 25 C -0.988217 -3.306530 1.782365 0
M  V30 26 C 0.275279 -3.384259 2.569283 0
M  V30 27 N 0.099550 -2.923879 3.932325 0
M  V30 28 C -1.241390 -3.273263 4.349848 0
M  V30 29 C -2.251947 -2.360262 3.680757 0
M  V30 30 C -2.997746 0.859934 0.838396 0
M  V30 31 N -0.681464 2.202918 -0.346867 0
M  V30 32 N 2.715009 2.614372 -1.845844 0
M  V30 33 N 3.598946 1.664377 -2.094957 0
M  V30 34 C 3.082501 0.504752 -1.722039 0
M  V30 35 H 2.265959 -4.844552 -1.039174 0
M  V30 36 H 3.791827 -4.686599 -0.051727 0
M  V30 37 H 2.423363 -3.658655 0.358957 0
M  V30 38 H 4.079097 -4.081064 -3.131569 0
M  V30 39 H 5.259164 -4.122536 -1.816419 0
M  V30 40 H 6.316165 -2.464933 -2.897357 0
M  V30 41 H 4.988700 -2.231509 -4.023233 0
M  V30 42 H 1.081847 -2.382752 -0.495386 0
M  V30 43 H 1.277262 4.677444 -1.536970 0
M  V30 44 H -0.663189 5.966667 -0.902910 0
M  V30 45 H -2.577014 4.890818 0.064713 0
M  V30 46 H -4.160219 4.004915 0.859034 0
M  V30 47 H -6.032213 2.874770 1.822525 0
M  V30 48 H -6.033096 0.510649 2.178233 0
M  V30 49 H -4.998892 -1.575975 2.006474 0
M  V30 50 H -3.531889 -3.239841 1.559163 0
M  V30 51 H -2.723528 -2.174554 0.302764 0
M  V30 52 H -1.270561 -1.232393 2.088146 0
M  V30 53 H -1.615934 -4.225659 1.969952 0
M  V30 54 H -0.777922 -3.264960 0.709007 0
M  V30 55 H 0.617579 -4.455306 2.667778 0
M  V30 56 H 1.094002 -2.765285 2.145228 0
M  V30 57 H 0.220268 -1.900943 3.999988 0
M  V30 58 H -1.416845 -4.325744 4.043306 0
M  V30 59 H -1.311123 -3.228357 5.451160 0
M  V30 60 H -2.313046 -1.384934 4.186464 0
M  V30 61 H -3.223162 -2.892879 3.683158 0
M  V30 62 H -2.120560 0.324682 0.539648 0
M  V30 END ATOM
M  V30 BEGIN BOND
M  V30 1 1 1 2
M  V30 2 1 2 3
M  V30 3 1 3 4
M  V30 4 1 4 5
M  V30 5 1 5 6
M  V30 6 2 6 7
M  V30 7 1 7 8
M  V30 8 2 8 9
M  V30 9 1 9 10
M  V30 10 1 10 11
M  V30 11 1 11 12
M  V30 12 2 12 13
M  V30 13 1 13 14
M  V30 14 2 14 15
M  V30 15 1 15 16
M  V30 16 1 16 17
M  V30 17 2 17 18
M  V30 18 1 18 19
M  V30 19 2 19 20
M  V30 20 1 20 21
M  V30 21 1 21 22
M  V30 22 1 22 23
M  V30 23 1 23 24
M  V30 24 1 24 25
M  V30 25 1 25 26
M  V30 26 1 26 27
M  V30 27 1 27 28
M  V30 28 1 28 29
M  V30 29 2 21 30
M  V30 30 2 16 31
M  V30 31 2 11 32
M  V30 32 1 32 33
M  V30 33 2 33 34
M  V30 34 1 7 2
M  V30 35 1 34 10
M  V30 36 1 34 6
M  V30 37 1 31 12
M  V30 38 1 30 17
M  V30 39 1 29 24
M  V30 40 1 1 35
M  V30 41 1 1 36
M  V30 42 1 1 37
M  V30 43 1 3 38
M  V30 44 1 3 39
M  V30 45 1 4 40
M  V30 46 1 4 41
M  V30 47 1 8 42
M  V30 48 1 13 43
M  V30 49 1 14 44
M  V30 50 1 15 45
M  V30 51 1 18 46
M  V30 52 1 19 47
M  V30 53 1 20 48
M  V30 54 1 22 49
M  V30 55 1 23 50
M  V30 56 1 23 51
M  V30 57 1 24 52
M  V30 58 1 25 53
M  V30 59 1 25 54
M  V30 60 1 26 55
M  V30 61 1 26 56
M  V30 62 1 27 57
M  V30 63 1 28 58
M  V30 64 1 28 59
M  V30 65 1 29 60
M  V30 66 1 29 61
M  V30 67 1 30 62
M  V30 END BOND
M  V30 END CTAB
M  END
>  <Dataset>  (794) 
ChEMBL_Kinases

>  <Ligand_Instance>  (794) 
nan

>  <PDB_ID>  (794) 
nan

>  <Standardized_SMILES>  (794) 
CN1CCOc2c1cnn1c(-c3cccc(-c4cccc(NCC5CCNCC5)c4)n3)nnc21

>  <Name>  (794) 
nan

>  <Pocket>  (794) 
nan

>  <ATP_Site>  (794) 
nan

>  <Peripheral>  (794) 
nan

>  <Num_H_Atoms_ProtBoundConf>  (794) 
nan

>  <Num_Resolved_Atoms>  (794) 
nan

>  <Num_Not_Resolved_Atoms>  (794) 
nan

$$$$
CHEMBL4751342
     RDKit          3D

  0  0  0  0  0  0  0  0  0  0999 V3000
M  V30 BEGIN CTAB
M  V30 COUNTS 41 43 0 0 0
M  V30 BEGIN ATOM
M  V30 1 N 1.195822 -5.105376 5.827296 0
M  V30 2 C 1.332834 -4.770060 4.726080 0
M  V30 3 C 1.506932 -4.346296 3.364298 0
M  V30 4 C 0.463052 -3.659650 2.765664 0
M  V30 5 N 0.596037 -3.246690 1.481707 0
M  V30 6 C 1.709084 -3.476003 0.753201 0
M  V30 7 N 1.819853 -3.025511 -0.610108 0
M  V30 8 C 0.666105 -2.337369 -1.077667 0
M  V30 9 C 0.492100 -0.985659 -0.990348 0
M  V30 10 C -0.602674 -0.268232 -1.423488 0
M  V30 11 N -0.731662 1.137478 -1.325548 0
M  V30 12 C 0.138886 2.146416 -0.770209 0
M  V30 13 C 0.221629 2.037602 0.712705 0
M  V30 14 C 1.087661 3.136511 1.322180 0
M  V30 15 N 1.440123 2.675300 2.652365 0
M  V30 16 C 0.503528 1.721717 3.157825 0
M  V30 17 C -0.897707 1.859309 2.666628 0
M  V30 18 O -1.024197 2.191646 1.328067 0
M  V30 19 C -1.592445 -1.055491 -1.996901 0
M  V30 20 C -2.781967 -0.416602 -2.485234 0
M  V30 21 N -3.740758 0.115782 -2.896152 0
M  V30 22 C -1.456390 -2.418517 -2.104046 0
M  V30 23 N -0.354045 -3.041383 -1.654938 0
M  V30 24 C 2.738253 -4.161249 1.365976 0
M  V30 25 N 2.637597 -4.590719 2.655740 0
M  V30 26 H -0.431728 -3.469767 3.335859 0
M  V30 27 H 2.689229 -3.229922 -1.114432 0
M  V30 28 H 1.318313 -0.491804 -0.543171 0
M  V30 29 H -1.636388 1.522056 -1.734413 0
M  V30 30 H 1.163199 1.997751 -1.222909 0
M  V30 31 H -0.163590 3.154576 -1.097724 0
M  V30 32 H 0.599850 1.061620 1.048046 0
M  V30 33 H 1.953107 3.404232 0.702441 0
M  V30 34 H 0.452162 4.050291 1.482234 0
M  V30 35 H 2.369932 2.209223 2.564405 0
M  V30 36 H 0.860758 0.656466 3.067421 0
M  V30 37 H 0.479541 1.881040 4.276610 0
M  V30 38 H -1.471631 2.524242 3.334315 0
M  V30 39 H -1.367552 0.839370 2.760765 0
M  V30 40 H -2.272846 -2.960279 -2.563487 0
M  V30 41 H 3.642832 -4.362104 0.814028 0
M  V30 END ATOM
M  V30 BEGIN BOND
M  V30 1 3 1 2
M  V30 2 1 2 3
M  V30 3 2 3 4
M  V30 4 1 4 5
M  V30 5 2 5 6
M  V30 6 1 6 7
M  V30 7 1 7 8
M  V30 8 2 8 9
M  V30 9 1 9 10
M  V30 10 1 10 11
M  V30 11 1 11 12
M  V30 12 1 12 13
M  V30 13 1 13 14
M  V30 14 1 14 15
M  V30 15 1 15 16
M  V30 16 1 16 17
M  V30 17 1 17 18
M  V30 18 2 10 19
M  V30 19 1 19 20
M  V30 20 3 20 21
M  V30 21 1 19 22
M  V30 22 2 22 23
M  V30 23 1 6 24
M  V30 24 2 24 25
M  V30 25 1 25 3
M  V30 26 1 23 8
M  V30 27 1 18 13
M  V30 28 1 4 26
M  V30 29 1 7 27
M  V30 30 1 9 28
M  V30 31 1 11 29
M  V30 32 1 12 30
M  V30 33 1 12 31
M  V30 34 1 13 32
M  V30 35 1 14 33
M  V30 36 1 14 34
M  V30 37 1 15 35
M  V30 38 1 16 36
M  V30 39 1 16 37
M  V30 40 1 17 38
M  V30 41 1 17 39
M  V30 42 1 22 40
M  V30 43 1 24 41
M  V30 END BOND
M  V30 END CTAB
M  END
>  <Dataset>  (795) 
ChEMBL_Kinases

>  <Ligand_Instance>  (795) 
nan

>  <PDB_ID>  (795) 
nan

>  <Standardized_SMILES>  (795) 
N#Cc1cnc(Nc2cc(NCC3CNCCO3)c(C#N)cn2)cn1

>  <Name>  (795) 
nan

>  <Pocket>  (795) 
nan

>  <ATP_Site>  (795) 
nan

>  <Peripheral>  (795) 
nan

>  <Num_H_Atoms_ProtBoundConf>  (795) 
nan

>  <Num_Resolved_Atoms>  (795) 
nan

>  <Num_Not_Resolved_Atoms>  (795) 
nan

$$$$
CHEMBL4443488
     RDKit          3D

  0  0  0  0  0  0  0  0  0  0999 V3000
M  V30 BEGIN CTAB
M  V30 COUNTS 48 51 0 0 0
M  V30 BEGIN ATOM
M  V30 1 C 4.673312 -5.757420 -0.135805 0
M  V30 2 N 4.409754 -5.084409 -1.389328 0
M  V30 3 N 4.926295 -5.520528 -2.555664 0
M  V30 4 C 4.490694 -4.695171 -3.531761 0
M  V30 5 C 3.704443 -3.768494 -2.879962 0
M  V30 6 Cl 3.072347 -2.625799 -4.068586 0
M  V30 7 C 3.651536 -4.011098 -1.527397 0
M  V30 8 C 2.874389 -3.138364 -0.710246 0
M  V30 9 C 2.145611 -2.053360 -1.141615 0
M  V30 10 C 1.503679 -1.393911 -0.112745 0
M  V30 11 C 0.650588 -0.216618 -0.170880 0
M  V30 12 O 0.365296 0.405851 -1.223547 0
M  V30 13 N 0.104723 0.261564 1.045079 0
M  V30 14 C -0.750307 1.344148 1.447454 0
M  V30 15 C -0.145127 2.112624 2.569716 0
M  V30 16 N 0.124654 1.253280 3.696754 0
M  V30 17 C -0.949696 0.402274 4.084419 0
M  V30 18 C -2.232372 0.639197 3.374465 0
M  V30 19 C -2.131462 0.851672 1.913766 0
M  V30 20 C -3.203943 1.690775 1.337407 0
M  V30 21 C -3.550434 2.923120 1.846059 0
M  V30 22 C -4.545361 3.771948 1.350414 0
M  V30 23 C -5.229157 3.300574 0.242260 0
M  V30 24 Cl -6.489578 4.376865 -0.389713 0
M  V30 25 C -4.957844 2.080036 -0.341988 0
M  V30 26 C -3.956101 1.323789 0.229051 0
M  V30 27 O 1.836910 -2.068638 0.935373 0
M  V30 28 C 2.619158 -3.071526 0.629837 0
M  V30 29 Cl 3.142252 -4.059299 1.946579 0
M  V30 30 H 5.305877 -5.197133 0.555004 0
M  V30 31 H 3.767283 -6.221946 0.289005 0
M  V30 32 H 5.317078 -6.677353 -0.374787 0
M  V30 33 H 4.870869 -4.992193 -4.494651 0
M  V30 34 H 1.980939 -1.618086 -2.141858 0
M  V30 35 H 0.339082 -0.263002 1.941312 0
M  V30 36 H -0.940709 1.999384 0.558557 0
M  V30 37 H -0.674913 3.032566 2.808826 0
M  V30 38 H 0.868305 2.458509 2.196920 0
M  V30 39 H 0.523390 1.844132 4.470858 0
M  V30 40 H -1.115722 0.592735 5.179340 0
M  V30 41 H -0.736752 -0.688609 4.037096 0
M  V30 42 H -2.734166 1.494730 3.912530 0
M  V30 43 H -2.916434 -0.223319 3.598084 0
M  V30 44 H -2.225267 -0.135782 1.393977 0
M  V30 45 H -3.032085 3.322127 2.720837 0
M  V30 46 H -4.746471 4.726371 1.818183 0
M  V30 47 H -5.512789 1.749651 -1.202174 0
M  V30 48 H -3.747747 0.356921 -0.241728 0
M  V30 END ATOM
M  V30 BEGIN BOND
M  V30 1 1 1 2
M  V30 2 1 2 3
M  V30 3 2 3 4
M  V30 4 1 4 5
M  V30 5 1 5 6
M  V30 6 2 5 7
M  V30 7 1 7 8
M  V30 8 1 8 9
M  V30 9 2 9 10
M  V30 10 1 10 11
M  V30 11 2 11 12
M  V30 12 1 11 13
M  V30 13 1 13 14
M  V30 14 1 14 15
M  V30 15 1 15 16
M  V30 16 1 16 17
M  V30 17 1 17 18
M  V30 18 1 18 19
M  V30 19 1 19 20
M  V30 20 2 20 21
M  V30 21 1 21 22
M  V30 22 2 22 23
M  V30 23 1 23 24
M  V30 24 1 23 25
M  V30 25 2 25 26
M  V30 26 1 10 27
M  V30 27 1 27 28
M  V30 28 1 28 29
M  V30 29 1 7 2
M  V30 30 2 28 8
M  V30 31 1 19 14
M  V30 32 1 26 20
M  V30 33 1 1 30
M  V30 34 1 1 31
M  V30 35 1 1 32
M  V30 36 1 4 33
M  V30 37 1 9 34
M  V30 38 1 13 35
M  V30 39 1 14 36
M  V30 40 1 15 37
M  V30 41 1 15 38
M  V30 42 1 16 39
M  V30 43 1 17 40
M  V30 44 1 17 41
M  V30 45 1 18 42
M  V30 46 1 18 43
M  V30 47 1 19 44
M  V30 48 1 21 45
M  V30 49 1 22 46
M  V30 50 1 25 47
M  V30 51 1 26 48
M  V30 END BOND
M  V30 END CTAB
M  END
>  <Dataset>  (796) 
ChEMBL_Kinases

>  <Ligand_Instance>  (796) 
nan

>  <PDB_ID>  (796) 
nan

>  <Standardized_SMILES>  (796) 
Cn1ncc(Cl)c1-c1cc(C(=O)NC2CNCCC2c2ccc(Cl)cc2)oc1Cl

>  <Name>  (796) 
nan

>  <Pocket>  (796) 
nan

>  <ATP_Site>  (796) 
nan

>  <Peripheral>  (796) 
nan

>  <Num_H_Atoms_ProtBoundConf>  (796) 
nan

>  <Num_Resolved_Atoms>  (796) 
nan

>  <Num_Not_Resolved_Atoms>  (796) 
nan

$$$$
CHEMBL4751362
     RDKit          3D

  0  0  0  0  0  0  0  0  0  0999 V3000
M  V30 BEGIN CTAB
M  V30 COUNTS 43 47 0 0 0
M  V30 BEGIN ATOM
M  V30 1 C -0.069749 -7.356828 1.737627 0
M  V30 2 C 1.027553 -6.559942 1.091916 0
M  V30 3 C 0.961249 -5.617800 0.090143 0
M  V30 4 C 2.252242 -5.143113 -0.183506 0
M  V30 5 N 2.322558 -4.162906 -1.202818 0
M  V30 6 C 1.921947 -2.839446 -0.789877 0
M  V30 7 N 1.612901 -2.452091 0.375364 0
M  V30 8 C 1.250436 -1.132703 0.539402 0
M  V30 9 O 0.943472 -0.705398 1.692542 0
M  V30 10 C 1.244179 -0.293783 -0.646335 0
M  V30 11 C 0.874128 0.953785 -0.876071 0
M  V30 12 C 0.332667 1.736372 0.244858 0
M  V30 13 C 0.935361 2.838541 0.795433 0
M  V30 14 C 2.165082 3.195680 0.262050 0
M  V30 15 C 2.782798 4.313515 0.818870 0
M  V30 16 C 2.211260 5.034447 1.845834 0
M  V30 17 C 0.986041 4.669813 2.368703 0
M  V30 18 C 0.374615 3.567867 1.821878 0
M  V30 19 C -0.844762 3.179414 2.320859 0
M  V30 20 C -1.459381 2.077102 1.775061 0
M  V30 21 C -2.709469 1.730344 2.294971 0
M  V30 22 C -3.414270 0.643694 1.787780 0
M  V30 23 C -2.895563 -0.124767 0.751524 0
M  V30 24 C -1.670097 0.254913 0.279105 0
M  V30 25 C -0.910991 1.325482 0.737424 0
M  V30 26 S 1.854022 -1.425432 -1.923369 0
M  V30 27 N 3.025342 -5.842261 0.688035 0
M  V30 28 O 2.289198 -6.638948 1.397422 0
M  V30 29 H 0.351109 -8.040991 2.521677 0
M  V30 30 H -0.830515 -6.658141 2.165436 0
M  V30 31 H -0.571331 -7.984432 0.980544 0
M  V30 32 H -0.036999 -5.392038 -0.320918 0
M  V30 33 H 2.631383 -4.299244 -2.185379 0
M  V30 34 H 0.993387 1.331565 -1.892901 0
M  V30 35 H 2.672537 2.665769 -0.556735 0
M  V30 36 H 3.759459 4.618927 0.415004 0
M  V30 37 H 2.689236 5.903059 2.280686 0
M  V30 38 H 0.503256 5.209715 3.172521 0
M  V30 39 H -1.322162 3.737471 3.145053 0
M  V30 40 H -3.230141 2.245628 3.109525 0
M  V30 41 H -4.386297 0.347770 2.172311 0
M  V30 42 H -3.386838 -0.978318 0.312324 0
M  V30 43 H -1.253885 -0.311669 -0.525182 0
M  V30 END ATOM
M  V30 BEGIN BOND
M  V30 1 1 1 2
M  V30 2 2 2 3
M  V30 3 1 3 4
M  V30 4 1 4 5
M  V30 5 1 5 6
M  V30 6 2 6 7
M  V30 7 1 7 8
M  V30 8 2 8 9
M  V30 9 1 8 10
M  V30 10 2 10 11
M  V30 11 1 11 12
M  V30 12 1 12 13
M  V30 13 2 13 14
M  V30 14 1 14 15
M  V30 15 2 15 16
M  V30 16 1 16 17
M  V30 17 2 17 18
M  V30 18 1 18 19
M  V30 19 2 19 20
M  V30 20 1 20 21
M  V30 21 2 21 22
M  V30 22 1 22 23
M  V30 23 2 23 24
M  V30 24 1 24 25
M  V30 25 1 10 26
M  V30 26 2 4 27
M  V30 27 1 27 28
M  V30 28 1 28 2
M  V30 29 1 26 6
M  V30 30 2 25 12
M  V30 31 1 18 13
M  V30 32 1 25 20
M  V30 33 1 1 29
M  V30 34 1 1 30
M  V30 35 1 1 31
M  V30 36 1 3 32
M  V30 37 1 5 33
M  V30 38 1 11 34
M  V30 39 1 14 35
M  V30 40 1 15 36
M  V30 41 1 16 37
M  V30 42 1 17 38
M  V30 43 1 19 39
M  V30 44 1 21 40
M  V30 45 1 22 41
M  V30 46 1 23 42
M  V30 47 1 24 43
M  V30 END BOND
M  V30 END CTAB
M  END
>  <Dataset>  (797) 
ChEMBL_Kinases

>  <Ligand_Instance>  (797) 
nan

>  <PDB_ID>  (797) 
nan

>  <Standardized_SMILES>  (797) 
Cc1cc(NC2=NC(=O)/C(=C\c3c4ccccc4cc4ccccc34)S2)no1

>  <Name>  (797) 
nan

>  <Pocket>  (797) 
nan

>  <ATP_Site>  (797) 
nan

>  <Peripheral>  (797) 
nan

>  <Num_H_Atoms_ProtBoundConf>  (797) 
nan

>  <Num_Resolved_Atoms>  (797) 
nan

>  <Num_Not_Resolved_Atoms>  (797) 
nan

$$$$
CHEMBL4443438
     RDKit          3D

  0  0  0  0  0  0  0  0  0  0999 V3000
M  V30 BEGIN CTAB
M  V30 COUNTS 54 57 0 0 0
M  V30 BEGIN ATOM
M  V30 1 O 1.322441 -2.157614 -0.083326 0
M  V30 2 C 1.437317 -0.936881 0.329765 0
M  V30 3 N 2.706853 -0.476164 0.581162 0
M  V30 4 C 3.711095 -1.502300 0.298470 0
M  V30 5 C 4.063999 -1.364270 -1.038573 0
M  V30 6 C 5.039700 -2.310799 -1.305773 0
M  V30 7 N 5.552039 -3.199536 -0.438656 0
M  V30 8 N 5.107331 -3.202026 0.799235 0
M  V30 9 C 4.146712 -2.339564 1.246034 0
M  V30 10 C 0.044472 -1.093550 0.166468 0
M  V30 11 C -0.014104 0.356618 0.531212 0
M  V30 12 C -1.103649 1.266284 0.664482 0
M  V30 13 N -1.264960 2.656309 0.958084 0
M  V30 14 C -2.476310 3.250893 1.463343 0
M  V30 15 C -2.299888 3.934519 2.817605 0
M  V30 16 C -0.835792 4.221526 3.084589 0
M  V30 17 O -0.740412 5.274523 3.978176 0
M  V30 18 C -0.152125 4.693919 1.809387 0
M  V30 19 C -0.204964 3.639010 0.731204 0
M  V30 20 C -2.381143 0.729136 0.416331 0
M  V30 21 C -2.482102 -0.596353 0.072248 0
M  V30 22 C -1.280784 -1.239709 0.011954 0
M  V30 23 O -0.957504 -2.618088 -0.310137 0
M  V30 24 C -2.001699 -3.497046 -0.645186 0
M  V30 25 C -1.541475 -4.879596 -0.863573 0
M  V30 26 C -0.986154 -5.487217 -1.998401 0
M  V30 27 C -0.612923 -6.823402 -2.062269 0
M  V30 28 C -0.817304 -7.590192 -0.894443 0
M  V30 29 C -1.366337 -7.149052 0.344127 0
M  V30 30 C -1.631127 -5.795387 0.083097 0
M  V30 31 H 2.430492 0.473230 0.895000 0
M  V30 32 H 3.698567 -0.681025 -1.780290 0
M  V30 33 H 5.480974 -2.397635 -2.314698 0
M  V30 34 H 3.770219 -2.318046 2.253487 0
M  V30 35 H 0.684895 1.228322 0.813017 0
M  V30 36 H -3.354282 2.596901 1.481954 0
M  V30 37 H -2.713970 4.084077 0.740921 0
M  V30 38 H -2.704010 3.261563 3.571328 0
M  V30 39 H -2.832121 4.903899 2.833091 0
M  V30 40 H -0.332316 3.352456 3.539929 0
M  V30 41 H 0.130216 5.187860 4.443720 0
M  V30 42 H -0.674032 5.632624 1.497751 0
M  V30 43 H 0.882996 4.957179 2.088497 0
M  V30 44 H 0.801686 3.171502 0.636609 0
M  V30 45 H -0.333734 4.171473 -0.250364 0
M  V30 46 H -3.417652 1.012269 0.390865 0
M  V30 47 H -3.203341 -1.359620 -0.179819 0
M  V30 48 H -2.767144 -3.528249 0.150270 0
M  V30 49 H -2.520841 -3.091179 -1.548504 0
M  V30 50 H -0.860253 -4.834112 -2.856111 0
M  V30 51 H -0.191200 -7.271211 -2.945124 0
M  V30 52 H -0.499391 -8.631613 -1.019006 0
M  V30 53 H -1.491070 -7.785578 1.170202 0
M  V30 54 H -2.074930 -5.422531 1.049342 0
M  V30 END ATOM
M  V30 BEGIN BOND
M  V30 1 2 1 2
M  V30 2 1 2 3
M  V30 3 1 3 4
M  V30 4 2 4 5
M  V30 5 1 5 6
M  V30 6 2 6 7
M  V30 7 1 7 8
M  V30 8 2 8 9
M  V30 9 1 2 10
M  V30 10 2 10 11
M  V30 11 1 11 12
M  V30 12 1 12 13
M  V30 13 1 13 14
M  V30 14 1 14 15
M  V30 15 1 15 16
M  V30 16 1 16 17
M  V30 17 1 16 18
M  V30 18 1 18 19
M  V30 19 2 12 20
M  V30 20 1 20 21
M  V30 21 2 21 22
M  V30 22 1 22 23
M  V30 23 1 23 24
M  V30 24 1 24 25
M  V30 25 2 25 26
M  V30 26 1 26 27
M  V30 27 2 27 28
M  V30 28 1 28 29
M  V30 29 2 29 30
M  V30 30 1 9 4
M  V30 31 1 22 10
M  V30 32 1 30 25
M  V30 33 1 19 13
M  V30 34 1 3 31
M  V30 35 1 5 32
M  V30 36 1 6 33
M  V30 37 1 9 34
M  V30 38 1 11 35
M  V30 39 1 14 36
M  V30 40 1 14 37
M  V30 41 1 15 38
M  V30 42 1 15 39
M  V30 43 1 16 40
M  V30 44 1 17 41
M  V30 45 1 18 42
M  V30 46 1 18 43
M  V30 47 1 19 44
M  V30 48 1 19 45
M  V30 49 1 20 46
M  V30 50 1 21 47
M  V30 51 1 24 48
M  V30 52 1 24 49
M  V30 53 1 26 50
M  V30 54 1 27 51
M  V30 55 1 28 52
M  V30 56 1 29 53
M  V30 57 1 30 54
M  V30 END BOND
M  V30 END CTAB
M  END
>  <Dataset>  (798) 
ChEMBL_Kinases

>  <Ligand_Instance>  (798) 
nan

>  <PDB_ID>  (798) 
nan

>  <Standardized_SMILES>  (798) 
O=C(Nc1ccnnc1)c1cc(N2CCC(O)CC2)ccc1OCc1ccccc1

>  <Name>  (798) 
nan

>  <Pocket>  (798) 
nan

>  <ATP_Site>  (798) 
nan

>  <Peripheral>  (798) 
nan

>  <Num_H_Atoms_ProtBoundConf>  (798) 
nan

>  <Num_Resolved_Atoms>  (798) 
nan

>  <Num_Not_Resolved_Atoms>  (798) 
nan

$$$$
CHEMBL4443352
     RDKit          3D

  0  0  0  0  0  0  0  0  0  0999 V3000
M  V30 BEGIN CTAB
M  V30 COUNTS 58 62 0 0 0
M  V30 BEGIN ATOM
M  V30 1 C 4.430307 -4.552479 3.666328 0
M  V30 2 O 5.027188 -3.741018 2.642773 0
M  V30 3 C 4.225113 -2.929932 1.833206 0
M  V30 4 C 2.843299 -2.829714 1.927613 0
M  V30 5 C 2.215068 -1.973550 1.040139 0
M  V30 6 C 2.928083 -1.243109 0.094148 0
M  V30 7 C 2.023590 -0.422407 -0.697354 0
M  V30 8 N 1.218514 0.565055 -0.219243 0
M  V30 9 N 0.518122 1.115575 -1.202570 0
M  V30 10 C -0.350588 2.166884 -0.734652 0
M  V30 11 C -0.146186 3.503690 -1.065944 0
M  V30 12 C -1.028480 4.453055 -0.571187 0
M  V30 13 C -2.084867 4.086368 0.230653 0
M  V30 14 C -2.321928 2.778681 0.581129 0
M  V30 15 N -3.433185 2.500521 1.412357 0
M  V30 16 C -3.894674 1.264427 1.907159 0
M  V30 17 O -3.282597 0.215945 1.607487 0
M  V30 18 N -5.020311 1.070921 2.740997 0
M  V30 19 C -5.133899 -0.348722 3.012989 0
M  V30 20 C -5.895515 -1.096248 2.141711 0
M  V30 21 C -5.969082 -2.439591 2.442960 0
M  V30 22 C -5.334253 -3.013779 3.532232 0
M  V30 23 C -4.584086 -2.209258 4.369817 0
M  V30 24 C -4.470026 -0.840175 4.119128 0
M  V30 25 C -1.421583 1.878602 0.066437 0
M  V30 26 C 0.859875 0.490108 -2.342792 0
M  V30 27 C 1.798758 -0.469944 -2.031613 0
M  V30 28 C 2.365334 -1.312998 -3.071320 0
M  V30 29 C 3.650038 -1.392332 -3.566530 0
M  V30 30 C 3.970214 -2.275343 -4.567523 0
M  V30 31 N 3.080103 -3.104918 -5.123720 0
M  V30 32 C 1.812337 -3.039268 -4.647742 0
M  V30 33 C 1.408380 -2.169829 -3.633473 0
M  V30 34 C 4.297637 -1.371207 0.033538 0
M  V30 35 C 4.975790 -2.211354 0.894499 0
M  V30 36 Cl 6.702998 -2.313140 0.749854 0
M  V30 37 H 3.545465 -5.091833 3.334616 0
M  V30 38 H 4.113352 -3.864260 4.490361 0
M  V30 39 H 5.198175 -5.287924 4.013032 0
M  V30 40 H 2.358378 -3.426575 2.686272 0
M  V30 41 H 1.133128 -1.969671 1.200013 0
M  V30 42 H 0.688357 3.774472 -1.696931 0
M  V30 43 H -0.915690 5.501310 -0.796157 0
M  V30 44 H -2.758591 4.873207 0.600146 0
M  V30 45 H -4.039711 3.278924 1.740998 0
M  V30 46 H -5.567038 1.931221 3.017989 0
M  V30 47 H -6.380829 -0.624525 1.299061 0
M  V30 48 H -6.547293 -3.085927 1.805211 0
M  V30 49 H -5.420824 -4.090445 3.733749 0
M  V30 50 H -4.067172 -2.616314 5.238042 0
M  V30 51 H -3.895725 -0.160549 4.741261 0
M  V30 52 H -1.545473 0.841701 0.298513 0
M  V30 53 H 0.352170 0.851990 -3.224420 0
M  V30 54 H 4.317890 -0.698059 -3.080179 0
M  V30 55 H 5.003139 -2.278444 -4.905384 0
M  V30 56 H 1.105108 -3.714133 -5.105663 0
M  V30 57 H 0.348030 -2.215533 -3.338048 0
M  V30 58 H 4.740272 -0.756005 -0.736710 0
M  V30 END ATOM
M  V30 BEGIN BOND
M  V30 1 1 1 2
M  V30 2 1 2 3
M  V30 3 2 3 4
M  V30 4 1 4 5
M  V30 5 2 5 6
M  V30 6 1 6 7
M  V30 7 2 7 8
M  V30 8 1 8 9
M  V30 9 1 9 10
M  V30 10 2 10 11
M  V30 11 1 11 12
M  V30 12 2 12 13
M  V30 13 1 13 14
M  V30 14 1 14 15
M  V30 15 1 15 16
M  V30 16 2 16 17
M  V30 17 1 16 18
M  V30 18 1 18 19
M  V30 19 2 19 20
M  V30 20 1 20 21
M  V30 21 2 21 22
M  V30 22 1 22 23
M  V30 23 2 23 24
M  V30 24 2 14 25
M  V30 25 1 9 26
M  V30 26 2 26 27
M  V30 27 1 27 28
M  V30 28 2 28 29
M  V30 29 1 29 30
M  V30 30 2 30 31
M  V30 31 1 31 32
M  V30 32 2 32 33
M  V30 33 1 6 34
M  V30 34 2 34 35
M  V30 35 1 35 36
M  V30 36 1 35 3
M  V30 37 1 27 7
M  V30 38 1 33 28
M  V30 39 1 25 10
M  V30 40 1 24 19
M  V30 41 1 1 37
M  V30 42 1 1 38
M  V30 43 1 1 39
M  V30 44 1 4 40
M  V30 45 1 5 41
M  V30 46 1 11 42
M  V30 47 1 12 43
M  V30 48 1 13 44
M  V30 49 1 15 45
M  V30 50 1 18 46
M  V30 51 1 20 47
M  V30 52 1 21 48
M  V30 53 1 22 49
M  V30 54 1 23 50
M  V30 55 1 24 51
M  V30 56 1 25 52
M  V30 57 1 26 53
M  V30 58 1 29 54
M  V30 59 1 30 55
M  V30 60 1 32 56
M  V30 61 1 33 57
M  V30 62 1 34 58
M  V30 END BOND
M  V30 END CTAB
M  END
>  <Dataset>  (799) 
ChEMBL_Kinases

>  <Ligand_Instance>  (799) 
nan

>  <PDB_ID>  (799) 
nan

>  <Standardized_SMILES>  (799) 
COc1ccc(-c2nn(-c3cccc(NC(=O)Nc4ccccc4)c3)cc2-c2ccncc2)cc1Cl

>  <Name>  (799) 
nan

>  <Pocket>  (799) 
nan

>  <ATP_Site>  (799) 
nan

>  <Peripheral>  (799) 
nan

>  <Num_H_Atoms_ProtBoundConf>  (799) 
nan

>  <Num_Resolved_Atoms>  (799) 
nan

>  <Num_Not_Resolved_Atoms>  (799) 
nan

$$$$
CHEMBL4751371
     RDKit          3D

  0  0  0  0  0  0  0  0  0  0999 V3000
M  V30 BEGIN CTAB
M  V30 COUNTS 40 42 0 0 0
M  V30 BEGIN ATOM
M  V30 1 C -2.317088 -3.817583 4.482841 0
M  V30 2 C -2.136284 -3.552582 3.316034 0
M  V30 3 C -1.896810 -3.226603 1.924326 0
M  V30 4 N -0.663998 -3.187999 1.390478 0
M  V30 5 C -0.419677 -2.889152 0.107108 0
M  V30 6 N 0.929834 -2.879352 -0.346074 0
M  V30 7 C 1.717140 -1.691908 -0.287650 0
M  V30 8 C 3.036026 -1.682270 -0.730724 0
M  V30 9 C 3.767474 -0.499514 -0.654679 0
M  V30 10 C 3.185959 0.651709 -0.143545 0
M  V30 11 C 1.881913 0.676249 0.303872 0
M  V30 12 C 1.306750 1.909011 0.835687 0
M  V30 13 C 0.004616 1.761372 1.522124 0
M  V30 14 C 1.081706 2.959562 -0.257811 0
M  V30 15 C 2.281721 2.542920 1.767028 0
M  V30 16 N 3.604199 3.043898 1.641758 0
M  V30 17 O 1.984972 2.737647 2.982973 0
M  V30 18 C 1.199478 -0.530344 0.204738 0
M  V30 19 N -1.489225 -2.611506 -0.687947 0
M  V30 20 C -2.746527 -2.634168 -0.211059 0
M  V30 21 N -3.944097 -2.395545 -0.809103 0
M  V30 22 C -4.919966 -2.550385 0.116060 0
M  V30 23 N -4.322559 -2.883128 1.278596 0
M  V30 24 C -3.001220 -2.946117 1.128463 0
M  V30 25 H -2.471308 -4.065403 5.506020 0
M  V30 26 H 1.323354 -3.758902 -0.719276 0
M  V30 27 H 3.490436 -2.583912 -1.130698 0
M  V30 28 H 4.803048 -0.535190 -1.014397 0
M  V30 29 H 3.842902 1.487198 -0.137660 0
M  V30 30 H -0.813315 1.863299 0.776101 0
M  V30 31 H -0.102987 0.907358 2.200770 0
M  V30 32 H -0.115432 2.662612 2.190190 0
M  V30 33 H 0.458543 2.577462 -1.068668 0
M  V30 34 H 0.496220 3.774267 0.247945 0
M  V30 35 H 2.026163 3.447389 -0.562553 0
M  V30 36 H 4.534750 2.610418 1.874520 0
M  V30 37 H 4.527048 2.579245 1.886786 0
M  V30 38 H 0.173007 -0.531539 0.551291 0
M  V30 39 H -4.108935 -2.137513 -1.802057 0
M  V30 40 H -5.984350 -2.449448 0.034020 0
M  V30 END ATOM
M  V30 BEGIN BOND
M  V30 1 3 1 2
M  V30 2 1 2 3
M  V30 3 2 3 4
M  V30 4 1 4 5
M  V30 5 1 5 6
M  V30 6 1 6 7
M  V30 7 2 7 8
M  V30 8 1 8 9
M  V30 9 2 9 10
M  V30 10 1 10 11
M  V30 11 1 11 12
M  V30 12 1 12 13
M  V30 13 1 12 14
M  V30 14 1 12 15
M  V30 15 1 15 16
M  V30 16 2 15 17
M  V30 17 2 11 18
M  V30 18 2 5 19
M  V30 19 1 19 20
M  V30 20 1 20 21
M  V30 21 1 21 22
M  V30 22 2 22 23
M  V30 23 1 23 24
M  V30 24 1 24 3
M  V30 25 1 18 7
M  V30 26 2 24 20
M  V30 27 1 1 25
M  V30 28 1 6 26
M  V30 29 1 8 27
M  V30 30 1 9 28
M  V30 31 1 10 29
M  V30 32 1 13 30
M  V30 33 1 13 31
M  V30 34 1 13 32
M  V30 35 1 14 33
M  V30 36 1 14 34
M  V30 37 1 14 35
M  V30 38 1 16 36
M  V30 39 1 16 37
M  V30 40 1 18 38
M  V30 41 1 21 39
M  V30 42 1 22 40
M  V30 END BOND
M  V30 END CTAB
M  END
>  <Dataset>  (800) 
ChEMBL_Kinases

>  <Ligand_Instance>  (800) 
nan

>  <PDB_ID>  (800) 
nan

>  <Standardized_SMILES>  (800) 
C#Cc1nc(Nc2cccc(C(C)(C)C(N)=O)c2)nc2[nH]cnc12

>  <Name>  (800) 
nan

>  <Pocket>  (800) 
nan

>  <ATP_Site>  (800) 
nan

>  <Peripheral>  (800) 
nan

>  <Num_H_Atoms_ProtBoundConf>  (800) 
nan

>  <Num_Resolved_Atoms>  (800) 
nan

>  <Num_Not_Resolved_Atoms>  (800) 
nan

$$$$
CHEMBL4443335
     RDKit          3D

  0  0  0  0  0  0  0  0  0  0999 V3000
M  V30 BEGIN CTAB
M  V30 COUNTS 36 39 0 0 0
M  V30 BEGIN ATOM
M  V30 1 C -0.243989 -3.120973 1.815620 0
M  V30 2 C -1.473515 -2.584806 1.117746 0
M  V30 3 N -1.755143 -1.199909 1.406277 0
M  V30 4 C -0.803339 -0.200891 1.068670 0
M  V30 5 N 0.335894 -0.572955 0.484555 0
M  V30 6 C 1.302574 0.288559 0.124624 0
M  V30 7 C 2.542609 -0.131899 -0.514590 0
M  V30 8 C 3.485083 0.816752 -0.848708 0
M  V30 9 C 4.688219 0.519652 -1.455106 0
M  V30 10 N 4.925690 -0.785345 -1.723448 0
M  V30 11 C 4.010582 -1.717779 -1.400395 0
M  V30 12 C 2.804638 -1.454991 -0.796768 0
M  V30 13 N 1.072789 1.581344 0.382884 0
M  V30 14 C -0.031264 2.070212 0.963762 0
M  V30 15 C -0.226882 3.412986 1.211531 0
M  V30 16 N -1.367973 3.806033 1.798935 0
M  V30 17 C -2.334547 2.914416 2.155295 0
M  V30 18 C -2.139573 1.573557 1.908055 0
M  V30 19 C -0.990090 1.138883 1.311865 0
M  V30 20 C -2.527300 -3.464558 0.613919 0
M  V30 21 C -1.527119 -3.018669 -0.357559 0
M  V30 22 H 0.659069 -2.798765 1.258394 0
M  V30 23 H -0.260245 -4.245074 1.777784 0
M  V30 24 H -0.162186 -2.793986 2.862626 0
M  V30 25 H -2.673525 -1.104165 1.851290 0
M  V30 26 H 3.332226 1.879446 -0.649429 0
M  V30 27 H 5.427538 1.251617 -1.718656 0
M  V30 28 H 4.246147 -2.762179 -1.636752 0
M  V30 29 H 2.110557 -2.229246 -0.560154 0
M  V30 30 H 0.546264 4.127284 0.926611 0
M  V30 31 H -3.247066 3.299688 2.633219 0
M  V30 32 H -2.902403 0.882249 2.190730 0
M  V30 33 H -2.556100 -4.557388 0.874915 0
M  V30 34 H -3.536438 -2.997873 0.515065 0
M  V30 35 H -1.697163 -2.184816 -1.069272 0
M  V30 36 H -0.820352 -3.763285 -0.728554 0
M  V30 END ATOM
M  V30 BEGIN BOND
M  V30 1 1 1 2
M  V30 2 1 2 3
M  V30 3 1 3 4
M  V30 4 2 4 5
M  V30 5 1 5 6
M  V30 6 1 6 7
M  V30 7 2 7 8
M  V30 8 1 8 9
M  V30 9 2 9 10
M  V30 10 1 10 11
M  V30 11 2 11 12
M  V30 12 2 6 13
M  V30 13 1 13 14
M  V30 14 2 14 15
M  V30 15 1 15 16
M  V30 16 2 16 17
M  V30 17 1 17 18
M  V30 18 2 18 19
M  V30 19 1 2 20
M  V30 20 1 20 21
M  V30 21 1 21 2
M  V30 22 1 19 4
M  V30 23 1 12 7
M  V30 24 1 19 14
M  V30 25 1 1 22
M  V30 26 1 1 23
M  V30 27 1 1 24
M  V30 28 1 3 25
M  V30 29 1 8 26
M  V30 30 1 9 27
M  V30 31 1 11 28
M  V30 32 1 12 29
M  V30 33 1 15 30
M  V30 34 1 17 31
M  V30 35 1 18 32
M  V30 36 1 20 33
M  V30 37 1 20 34
M  V30 38 1 21 35
M  V30 39 1 21 36
M  V30 END BOND
M  V30 END CTAB
M  END
>  <Dataset>  (801) 
ChEMBL_Kinases

>  <Ligand_Instance>  (801) 
nan

>  <PDB_ID>  (801) 
nan

>  <Standardized_SMILES>  (801) 
CC1(Nc2nc(-c3ccncc3)nc3cnccc23)CC1

>  <Name>  (801) 
nan

>  <Pocket>  (801) 
nan

>  <ATP_Site>  (801) 
nan

>  <Peripheral>  (801) 
nan

>  <Num_H_Atoms_ProtBoundConf>  (801) 
nan

>  <Num_Resolved_Atoms>  (801) 
nan

>  <Num_Not_Resolved_Atoms>  (801) 
nan

$$$$
CHEMBL4751303
     RDKit          3D

  0  0  0  0  0  0  0  0  0  0999 V3000
M  V30 BEGIN CTAB
M  V30 COUNTS 75 79 0 0 0
M  V30 BEGIN ATOM
M  V30 1 C 5.739225 -5.243463 0.621566 0
M  V30 2 N 7.054172 -4.815361 0.875093 0
M  V30 3 C 7.959358 -4.876225 -0.237764 0
M  V30 4 C 7.815672 -3.552496 -1.011727 0
M  V30 5 N 6.630974 -2.886218 -0.578172 0
M  V30 6 C 6.205944 -1.776204 -1.409613 0
M  V30 7 C 5.707924 -2.246313 -2.722740 0
M  V30 8 C 5.288552 -1.306312 -3.767440 0
M  V30 9 C 4.214603 -0.305497 -3.547568 0
M  V30 10 C 4.545834 0.781213 -2.592599 0
M  V30 11 O 3.512712 1.705823 -2.344735 0
M  V30 12 C 2.298368 1.496770 -1.770803 0
M  V30 13 C 1.532156 2.673879 -1.726983 0
M  V30 14 C 0.255878 2.642448 -1.166973 0
M  V30 15 C -0.328821 1.513939 -0.637725 0
M  V30 16 N -1.628151 1.481663 -0.061308 0
M  V30 17 C -2.211040 0.271172 0.468457 0
M  V30 18 O -2.008917 -0.944833 0.264836 0
M  V30 19 S -3.463352 0.866358 1.643340 0
M  V30 20 C -3.774778 2.385186 0.687588 0
M  V30 21 C -4.927504 2.982331 0.681078 0
M  V30 22 C -6.094354 2.505755 1.435710 0
M  V30 23 C -6.051175 1.998665 2.728572 0
M  V30 24 C -7.217090 1.564356 3.346946 0
M  V30 25 C -8.429763 1.622744 2.707403 0
M  V30 26 O -9.496167 1.149960 3.464310 0
M  V30 27 C -9.883441 -0.168634 3.503302 0
M  V30 28 C -9.171405 -1.128245 2.770580 0
M  V30 29 C -9.631945 -2.418885 2.871333 0
M  V30 30 C -10.709929 -2.843302 3.614274 0
M  V30 31 F -11.124721 -4.127740 3.683103 0
M  V30 32 C -11.367023 -1.851890 4.310960 0
M  V30 33 C -10.975177 -0.514324 4.271850 0
M  V30 34 C -8.488760 2.124749 1.421387 0
M  V30 35 C -7.338230 2.558998 0.796899 0
M  V30 36 C -2.482097 2.603628 0.065386 0
M  V30 37 O -2.335932 3.824297 -0.273761 0
M  V30 38 C 0.437629 0.371613 -0.689837 0
M  V30 39 C 1.697872 0.385743 -1.238551 0
M  V30 40 C 6.850190 -2.435877 0.794105 0
M  V30 41 C 7.191944 -3.624695 1.660665 0
M  V30 42 H 5.379442 -6.084944 1.233115 0
M  V30 43 H 5.073510 -4.351662 0.658489 0
M  V30 44 H 5.688330 -5.599340 -0.446892 0
M  V30 45 H 7.699781 -5.739528 -0.856866 0
M  V30 46 H 9.027144 -4.959857 0.046735 0
M  V30 47 H 8.676517 -2.877023 -0.741082 0
M  V30 48 H 7.905897 -3.721044 -2.085255 0
M  V30 49 H 6.960776 -1.003218 -1.398655 0
M  V30 50 H 5.312840 -1.381460 -0.789361 0
M  V30 51 H 6.546036 -2.882453 -3.180886 0
M  V30 52 H 4.914863 -3.068029 -2.554313 0
M  V30 53 H 6.240073 -0.746196 -4.087378 0
M  V30 54 H 5.031153 -1.891419 -4.729783 0
M  V30 55 H 3.247594 -0.827627 -3.306267 0
M  V30 56 H 4.017197 0.231091 -4.551919 0
M  V30 57 H 5.082404 0.493716 -1.707471 0
M  V30 58 H 5.327190 1.425882 -3.164716 0
M  V30 59 H 1.880657 3.638831 -2.113409 0
M  V30 60 H -0.289969 3.573497 -1.159988 0
M  V30 61 H -4.976486 3.873724 0.071252 0
M  V30 62 H -5.108538 1.957736 3.220018 0
M  V30 63 H -7.071895 1.183588 4.367586 0
M  V30 64 H -8.313186 -0.869549 2.164261 0
M  V30 65 H -9.062869 -3.160668 2.293021 0
M  V30 66 H -12.225340 -2.138528 4.912567 0
M  V30 67 H -11.536823 0.238853 4.849083 0
M  V30 68 H -9.471164 2.148118 0.963610 0
M  V30 69 H -7.401934 2.951975 -0.218257 0
M  V30 70 H 0.140827 -0.585662 -0.324396 0
M  V30 71 H 2.296125 -0.499792 -1.260385 0
M  V30 72 H 5.932935 -1.934120 1.169015 0
M  V30 73 H 7.720542 -1.723317 0.730471 0
M  V30 74 H 6.506994 -3.722881 2.525674 0
M  V30 75 H 8.206262 -3.474588 2.062789 0
M  V30 END ATOM
M  V30 BEGIN BOND
M  V30 1 1 1 2
M  V30 2 1 2 3
M  V30 3 1 3 4
M  V30 4 1 4 5
M  V30 5 1 5 6
M  V30 6 1 6 7
M  V30 7 1 7 8
M  V30 8 1 8 9
M  V30 9 1 9 10
M  V30 10 1 10 11
M  V30 11 1 11 12
M  V30 12 2 12 13
M  V30 13 1 13 14
M  V30 14 2 14 15
M  V30 15 1 15 16
M  V30 16 1 16 17
M  V30 17 2 17 18
M  V30 18 1 17 19
M  V30 19 1 19 20
M  V30 20 2 20 21
M  V30 21 1 21 22
M  V30 22 2 22 23
M  V30 23 1 23 24
M  V30 24 2 24 25
M  V30 25 1 25 26
M  V30 26 1 26 27
M  V30 27 2 27 28
M  V30 28 1 28 29
M  V30 29 2 29 30
M  V30 30 1 30 31
M  V30 31 1 30 32
M  V30 32 2 32 33
M  V30 33 1 25 34
M  V30 34 2 34 35
M  V30 35 1 20 36
M  V30 36 2 36 37
M  V30 37 1 15 38
M  V30 38 2 38 39
M  V30 39 1 5 40
M  V30 40 1 40 41
M  V30 41 1 41 2
M  V30 42 1 39 12
M  V30 43 1 36 16
M  V30 44 1 35 22
M  V30 45 1 33 27
M  V30 46 1 1 42
M  V30 47 1 1 43
M  V30 48 1 1 44
M  V30 49 1 3 45
M  V30 50 1 3 46
M  V30 51 1 4 47
M  V30 52 1 4 48
M  V30 53 1 6 49
M  V30 54 1 6 50
M  V30 55 1 7 51
M  V30 56 1 7 52
M  V30 57 1 8 53
M  V30 58 1 8 54
M  V30 59 1 9 55
M  V30 60 1 9 56
M  V30 61 1 10 57
M  V30 62 1 10 58
M  V30 63 1 13 59
M  V30 64 1 14 60
M  V30 65 1 21 61
M  V30 66 1 23 62
M  V30 67 1 24 63
M  V30 68 1 28 64
M  V30 69 1 29 65
M  V30 70 1 32 66
M  V30 71 1 33 67
M  V30 72 1 34 68
M  V30 73 1 35 69
M  V30 74 1 38 70
M  V30 75 1 39 71
M  V30 76 1 40 72
M  V30 77 1 40 73
M  V30 78 1 41 74
M  V30 79 1 41 75
M  V30 END BOND
M  V30 END CTAB
M  END
>  <Dataset>  (802) 
ChEMBL_Kinases

>  <Ligand_Instance>  (802) 
nan

>  <PDB_ID>  (802) 
nan

>  <Standardized_SMILES>  (802) 
CN1CCN(CCCCCOc2ccc(N3C(=O)S/C(=C\c4ccc(Oc5ccc(F)cc5)cc4)C3=O)cc2)CC1

>  <Name>  (802) 
nan

>  <Pocket>  (802) 
nan

>  <ATP_Site>  (802) 
nan

>  <Peripheral>  (802) 
nan

>  <Num_H_Atoms_ProtBoundConf>  (802) 
nan

>  <Num_Resolved_Atoms>  (802) 
nan

>  <Num_Not_Resolved_Atoms>  (802) 
nan

$$$$
CHEMBL4444859
     RDKit          3D

  0  0  0  0  0  0  0  0  0  0999 V3000
M  V30 BEGIN CTAB
M  V30 COUNTS 69 74 0 0 0
M  V30 BEGIN ATOM
M  V30 1 C -1.888279 -3.311447 2.605699 0
M  V30 2 C -1.409874 -1.991689 3.088509 0
M  V30 3 C -0.152726 -1.528388 2.668731 0
M  V30 4 C 0.288702 -0.284663 3.135954 0
M  V30 5 C 1.620517 0.130835 2.625324 0
M  V30 6 C 2.736048 0.616540 3.275985 0
M  V30 7 N 3.679692 0.823833 2.307967 0
M  V30 8 N 3.137149 0.474045 1.135935 0
M  V30 9 C 3.665409 0.504570 -0.105959 0
M  V30 10 N 5.029348 0.925473 -0.333340 0
M  V30 11 C 5.765036 1.190310 -1.543344 0
M  V30 12 C 5.439172 2.509958 -2.122139 0
M  V30 13 C 4.152447 3.005265 -2.587326 0
M  V30 14 C 4.557476 3.452004 -1.232990 0
M  V30 15 C 2.902545 0.096465 -1.178134 0
M  V30 16 C 1.603884 -0.349262 -1.051387 0
M  V30 17 N 0.794388 -0.760889 -2.170833 0
M  V30 18 C -0.577422 -1.204082 -1.904839 0 CFG=2
M  V30 19 C -0.617529 -2.446669 -1.077733 0
M  V30 20 C -1.348981 -3.584016 -1.743349 0
M  V30 21 C -0.938853 -3.722552 -3.192996 0
M  V30 22 C -1.106434 -2.482277 -4.001952 0
M  V30 23 C -1.312094 -1.243367 -3.198005 0 CFG=1
M  V30 24 O -2.649657 -0.939976 -2.938313 0
M  V30 25 N 1.148098 -0.353543 0.198811 0
M  V30 26 C 1.863123 0.034070 1.245171 0
M  V30 27 C -0.450853 0.515153 3.992924 0
M  V30 28 C -1.685319 0.050583 4.398013 0
M  V30 29 C -2.121822 -1.176288 3.936761 0
M  V30 30 C -3.471055 -1.600561 4.395655 0
M  V30 31 O -3.961584 -2.376836 5.258647 0
M  V30 32 N -4.549217 -0.958980 3.665940 0
M  V30 33 C -5.981376 -1.129488 3.842492 0
M  V30 34 C -6.776444 -1.019358 2.552349 0
M  V30 35 C -6.798882 0.123801 3.497982 0
M  V30 36 H -2.413325 -3.273787 1.644312 0
M  V30 37 H -0.961054 -3.957895 2.534498 0
M  V30 38 H -2.488491 -3.778555 3.432723 0
M  V30 39 H 0.461902 -2.117963 2.000086 0
M  V30 40 H 2.733249 0.761595 4.353157 0
M  V30 41 H 5.583329 1.066328 0.570571 0
M  V30 42 H 5.486621 0.332519 -2.236238 0
M  V30 43 H 6.854956 1.109774 -1.330894 0
M  V30 44 H 6.338086 3.041011 -2.562716 0
M  V30 45 H 4.139525 3.814136 -3.391081 0
M  V30 46 H 3.207053 2.448515 -2.628822 0
M  V30 47 H 4.103280 2.917870 -0.347193 0
M  V30 48 H 5.013808 4.412633 -1.004206 0
M  V30 49 H 3.284842 0.100539 -2.204111 0
M  V30 50 H 1.236664 -0.720801 -3.134546 0
M  V30 51 H -1.033167 -0.350584 -1.298574 0
M  V30 52 H -1.124615 -2.247767 -0.087043 0
M  V30 53 H 0.423728 -2.766902 -0.812661 0
M  V30 54 H -1.020042 -4.535521 -1.250769 0
M  V30 55 H -2.444221 -3.474506 -1.603451 0
M  V30 56 H 0.159553 -3.988117 -3.153312 0
M  V30 57 H -1.509770 -4.607133 -3.595522 0
M  V30 58 H -1.936553 -2.532390 -4.747244 0
M  V30 59 H -0.194124 -2.318737 -4.647996 0
M  V30 60 H -0.938257 -0.373493 -3.801818 0
M  V30 61 H -3.245477 -1.698540 -3.095091 0
M  V30 62 H -0.015792 1.458017 4.293019 0
M  V30 63 H -2.250005 0.684578 5.065586 0
M  V30 64 H -4.277588 -0.268142 2.895257 0
M  V30 65 H -6.380215 -1.821749 4.581361 0
M  V30 66 H -6.189754 -0.840782 1.605824 0
M  V30 67 H -7.686237 -1.607582 2.391952 0
M  V30 68 H -7.672515 0.298703 4.159258 0
M  V30 69 H -6.221189 1.040376 3.263801 0
M  V30 END ATOM
M  V30 BEGIN BOND
M  V30 1 1 1 2
M  V30 2 2 2 3
M  V30 3 1 3 4
M  V30 4 1 4 5
M  V30 5 1 5 6
M  V30 6 2 6 7
M  V30 7 1 7 8
M  V30 8 1 8 9
M  V30 9 1 9 10
M  V30 10 1 10 11
M  V30 11 1 11 12
M  V30 12 1 12 13
M  V30 13 1 13 14
M  V30 14 2 9 15
M  V30 15 1 15 16
M  V30 16 1 16 17
M  V30 17 1 17 18
M  V30 18 1 18 19
M  V30 19 1 19 20
M  V30 20 1 20 21
M  V30 21 1 21 22
M  V30 22 1 22 23
M  V30 23 1 23 24
M  V30 24 2 16 25
M  V30 25 1 25 26
M  V30 26 2 4 27
M  V30 27 1 27 28
M  V30 28 2 28 29
M  V30 29 1 29 30
M  V30 30 2 30 31
M  V30 31 1 30 32
M  V30 32 1 32 33
M  V30 33 1 33 34
M  V30 34 1 34 35
M  V30 35 1 29 2
M  V30 36 1 35 33
M  V30 37 2 26 5
M  V30 38 1 26 8
M  V30 39 1 14 12
M  V30 40 1 23 18
M  V30 41 1 1 36
M  V30 42 1 1 37
M  V30 43 1 1 38
M  V30 44 1 3 39
M  V30 45 1 6 40
M  V30 46 1 10 41
M  V30 47 1 11 42
M  V30 48 1 11 43
M  V30 49 1 12 44
M  V30 50 1 13 45
M  V30 51 1 13 46
M  V30 52 1 14 47
M  V30 53 1 14 48
M  V30 54 1 15 49
M  V30 55 1 17 50
M  V30 56 1 18 51 CFG=1
M  V30 57 1 19 52
M  V30 58 1 19 53
M  V30 59 1 20 54
M  V30 60 1 20 55
M  V30 61 1 21 56
M  V30 62 1 21 57
M  V30 63 1 22 58
M  V30 64 1 22 59
M  V30 65 1 23 60 CFG=3
M  V30 66 1 24 61
M  V30 67 1 27 62
M  V30 68 1 28 63
M  V30 69 1 32 64
M  V30 70 1 33 65
M  V30 71 1 34 66
M  V30 72 1 34 67
M  V30 73 1 35 68
M  V30 74 1 35 69
M  V30 END BOND
M  V30 END CTAB
M  END
>  <Dataset>  (803) 
ChEMBL_Kinases

>  <Ligand_Instance>  (803) 
nan

>  <PDB_ID>  (803) 
nan

>  <Standardized_SMILES>  (803) 
Cc1cc(-c2cnn3c(NCC4CC4)cc(N[C@@H]4CCCC[C@H]4O)nc23)ccc1C(=O)NC1CC1

>  <Name>  (803) 
nan

>  <Pocket>  (803) 
nan

>  <ATP_Site>  (803) 
nan

>  <Peripheral>  (803) 
nan

>  <Num_H_Atoms_ProtBoundConf>  (803) 
nan

>  <Num_Resolved_Atoms>  (803) 
nan

>  <Num_Not_Resolved_Atoms>  (803) 
nan

$$$$
CHEMBL4444841
     RDKit          3D

  0  0  0  0  0  0  0  0  0  0999 V3000
M  V30 BEGIN CTAB
M  V30 COUNTS 55 57 0 0 0
M  V30 BEGIN ATOM
M  V30 1 C -2.214175 -0.890029 1.120691 0
M  V30 2 C -0.756157 -1.376012 1.002592 0
M  V30 3 C -0.112748 -0.590139 -0.072539 0
M  V30 4 C -0.189116 -1.262493 2.376081 0
M  V30 5 N -0.239901 0.078429 2.854191 0
M  V30 6 C 0.541335 1.219403 2.533658 0
M  V30 7 N 1.574811 1.231730 1.683424 0
M  V30 8 C 2.347748 2.268476 1.372319 0
M  V30 9 C 3.456034 2.178556 0.428793 0
M  V30 10 C 3.788485 1.006787 -0.213653 0
M  V30 11 C 4.829116 0.868905 -1.116043 0
M  V30 12 N 5.570704 1.965551 -1.383842 0
M  V30 13 C 5.274452 3.126168 -0.774775 0
M  V30 14 C 4.224990 3.259836 0.133575 0
M  V30 15 N 2.086824 3.442704 1.959070 0
M  V30 16 C 1.062926 3.563962 2.843552 0
M  V30 17 C 0.792720 4.771348 3.447750 0
M  V30 18 N -0.209804 4.938728 4.328366 0
M  V30 19 C -0.975594 3.865349 4.621867 0
M  V30 20 C -0.702650 2.662215 4.016768 0
M  V30 21 C 0.310379 2.446215 3.112208 0
M  V30 22 N -0.922976 -2.801130 0.636781 0
M  V30 23 C -1.596860 -3.345634 -0.482052 0
M  V30 24 O -2.151623 -2.592040 -1.314449 0
M  V30 25 O -1.661107 -4.700424 -0.684808 0
M  V30 26 C -2.363525 -5.159943 -1.842862 0
M  V30 27 C -2.323507 -6.678957 -1.891007 0
M  V30 28 C -1.887232 -4.515654 -3.103872 0
M  V30 29 C -3.837070 -4.801129 -1.662855 0
M  V30 30 H -2.283859 0.000462 1.783324 0
M  V30 31 H -2.608199 -0.700121 0.099309 0
M  V30 32 H -2.847798 -1.705594 1.549949 0
M  V30 33 H 0.984384 -0.729947 -0.133839 0
M  V30 34 H -0.444446 0.465872 -0.000991 0
M  V30 35 H -0.596799 -0.928304 -1.044522 0
M  V30 36 H 0.846892 -1.697266 2.443197 0
M  V30 37 H -0.800093 -1.930931 3.025870 0
M  V30 38 H -0.996200 0.200843 3.558123 0
M  V30 39 H 3.231018 0.103993 -0.036678 0
M  V30 40 H 5.048179 -0.079600 -1.594752 0
M  V30 41 H 5.931305 3.942634 -1.060583 0
M  V30 42 H 4.048888 4.222108 0.581150 0
M  V30 43 H 1.423528 5.613282 3.192621 0
M  V30 44 H -1.765841 4.038460 5.328950 0
M  V30 45 H -1.372132 1.893334 4.325880 0
M  V30 46 H -0.485716 -3.517589 1.288668 0
M  V30 47 H -2.750682 -6.943534 -2.896163 0
M  V30 48 H -3.048096 -7.043492 -1.137279 0
M  V30 49 H -1.311306 -7.085578 -1.755140 0
M  V30 50 H -0.898572 -4.028034 -2.960372 0
M  V30 51 H -2.574876 -3.702800 -3.410858 0
M  V30 52 H -1.884959 -5.262445 -3.905809 0
M  V30 53 H -4.375234 -5.467590 -2.392656 0
M  V30 54 H -4.041945 -3.774071 -2.016048 0
M  V30 55 H -4.198838 -5.005806 -0.653033 0
M  V30 END ATOM
M  V30 BEGIN BOND
M  V30 1 1 1 2
M  V30 2 1 2 3
M  V30 3 1 2 4
M  V30 4 1 4 5
M  V30 5 1 5 6
M  V30 6 2 6 7
M  V30 7 1 7 8
M  V30 8 1 8 9
M  V30 9 2 9 10
M  V30 10 1 10 11
M  V30 11 2 11 12
M  V30 12 1 12 13
M  V30 13 2 13 14
M  V30 14 2 8 15
M  V30 15 1 15 16
M  V30 16 2 16 17
M  V30 17 1 17 18
M  V30 18 2 18 19
M  V30 19 1 19 20
M  V30 20 2 20 21
M  V30 21 1 2 22
M  V30 22 1 22 23
M  V30 23 2 23 24
M  V30 24 1 23 25
M  V30 25 1 25 26
M  V30 26 1 26 27
M  V30 27 1 26 28
M  V30 28 1 26 29
M  V30 29 1 21 6
M  V30 30 1 14 9
M  V30 31 1 21 16
M  V30 32 1 1 30
M  V30 33 1 1 31
M  V30 34 1 1 32
M  V30 35 1 3 33
M  V30 36 1 3 34
M  V30 37 1 3 35
M  V30 38 1 4 36
M  V30 39 1 4 37
M  V30 40 1 5 38
M  V30 41 1 10 39
M  V30 42 1 11 40
M  V30 43 1 13 41
M  V30 44 1 14 42
M  V30 45 1 17 43
M  V30 46 1 19 44
M  V30 47 1 20 45
M  V30 48 1 22 46
M  V30 49 1 27 47
M  V30 50 1 27 48
M  V30 51 1 27 49
M  V30 52 1 28 50
M  V30 53 1 28 51
M  V30 54 1 28 52
M  V30 55 1 29 53
M  V30 56 1 29 54
M  V30 57 1 29 55
M  V30 END BOND
M  V30 END CTAB
M  END
>  <Dataset>  (804) 
ChEMBL_Kinases

>  <Ligand_Instance>  (804) 
nan

>  <PDB_ID>  (804) 
nan

>  <Standardized_SMILES>  (804) 
CC(C)(CNc1nc(-c2ccncc2)nc2cnccc12)NC(=O)OC(C)(C)C

>  <Name>  (804) 
nan

>  <Pocket>  (804) 
nan

>  <ATP_Site>  (804) 
nan

>  <Peripheral>  (804) 
nan

>  <Num_H_Atoms_ProtBoundConf>  (804) 
nan

>  <Num_Resolved_Atoms>  (804) 
nan

>  <Num_Not_Resolved_Atoms>  (804) 
nan

$$$$
CHEMBL4444744
     RDKit          3D

  0  0  0  0  0  0  0  0  0  0999 V3000
M  V30 BEGIN CTAB
M  V30 COUNTS 56 60 0 0 0
M  V30 BEGIN ATOM
M  V30 1 C 6.576064 -2.506547 3.144900 0
M  V30 2 C 6.642843 -1.441595 2.106074 0
M  V30 3 C 7.806825 -0.773893 1.745787 0
M  V30 4 C 7.751582 0.205779 0.759397 0
M  V30 5 C 6.603044 0.561479 0.108106 0
M  V30 6 C 5.439179 -0.087336 0.449503 0
M  V30 7 C 4.117809 0.175236 -0.158915 0
M  V30 8 C 3.454589 1.244547 0.638568 0
M  V30 9 O 3.670722 1.971390 1.640392 0
M  V30 10 N 2.188916 1.472771 0.034009 0
M  V30 11 C 1.092156 2.340855 0.296873 0
M  V30 12 C 0.064125 1.958762 1.127040 0
M  V30 13 C -1.046821 2.753349 1.430179 0
M  V30 14 O -1.970832 2.173749 2.292464 0
M  V30 15 C -2.969440 1.410620 1.705772 0
M  V30 16 C -4.214782 1.800278 1.257407 0
M  V30 17 C -5.140863 0.961088 0.685322 0
M  V30 18 C -4.849529 -0.378749 0.526013 0
M  V30 19 N -5.614141 -1.301189 0.004530 0
M  V30 20 C -5.406164 -2.444650 -0.149393 0
M  V30 21 N -5.734686 -3.770506 -0.570747 0
M  V30 22 C -5.428538 -4.200518 -1.892272 0
M  V30 23 O -4.912019 -3.802152 -2.968723 0
M  V30 24 C -5.756773 -5.573176 -2.356537 0
M  V30 25 C -5.377257 -6.648590 -1.309707 0
M  V30 26 C -6.813275 -6.356833 -1.691374 0
M  V30 27 S -3.627797 -2.565015 0.582971 0
M  V30 28 C -3.573832 -0.745021 0.992241 0
M  V30 29 C -2.614243 0.086385 1.577030 0
M  V30 30 C -1.098773 4.004043 0.847555 0
M  V30 31 C -0.099274 4.444922 0.006451 0
M  V30 32 C 0.968773 3.610299 -0.250243 0
M  V30 33 F 1.956870 4.059636 -1.088850 0
M  V30 34 C 5.474863 -1.075239 1.439117 0
M  V30 35 H 5.646489 -2.398409 3.737567 0
M  V30 36 H 6.668484 -3.516865 2.699525 0
M  V30 37 H 7.441950 -2.382108 3.824818 0
M  V30 38 H 8.716808 -1.051826 2.258338 0
M  V30 39 H 8.670789 0.715621 0.491855 0
M  V30 40 H 6.550713 1.321400 -0.659633 0
M  V30 41 H 3.509729 -0.764197 -0.156309 0
M  V30 42 H 4.228479 0.532353 -1.217336 0
M  V30 43 H 1.704130 1.040270 -0.808453 0
M  V30 44 H 0.162893 0.967244 1.553834 0
M  V30 45 H -4.413844 2.874713 1.399483 0
M  V30 46 H -6.075591 1.456960 0.392040 0
M  V30 47 H -6.191019 -4.470707 0.018523 0
M  V30 48 H -5.466860 -5.786365 -3.404472 0
M  V30 49 H -5.043865 -6.323879 -0.317449 0
M  V30 50 H -4.913856 -7.570824 -1.675574 0
M  V30 51 H -7.459099 -5.768626 -1.004722 0
M  V30 52 H -7.308455 -7.173611 -2.237286 0
M  V30 53 H -1.742499 -0.464521 1.832703 0
M  V30 54 H -1.988393 4.562588 1.127843 0
M  V30 55 H -0.196099 5.430693 -0.416747 0
M  V30 56 H 4.563298 -1.599949 1.723355 0
M  V30 END ATOM
M  V30 BEGIN BOND
M  V30 1 1 1 2
M  V30 2 2 2 3
M  V30 3 1 3 4
M  V30 4 2 4 5
M  V30 5 1 5 6
M  V30 6 1 6 7
M  V30 7 1 7 8
M  V30 8 2 8 9
M  V30 9 1 8 10
M  V30 10 1 10 11
M  V30 11 2 11 12
M  V30 12 1 12 13
M  V30 13 1 13 14
M  V30 14 1 14 15
M  V30 15 2 15 16
M  V30 16 1 16 17
M  V30 17 2 17 18
M  V30 18 1 18 19
M  V30 19 2 19 20
M  V30 20 1 20 21
M  V30 21 1 21 22
M  V30 22 2 22 23
M  V30 23 1 22 24
M  V30 24 1 24 25
M  V30 25 1 25 26
M  V30 26 1 20 27
M  V30 27 1 27 28
M  V30 28 2 28 29
M  V30 29 2 13 30
M  V30 30 1 30 31
M  V30 31 2 31 32
M  V30 32 1 32 33
M  V30 33 2 6 34
M  V30 34 1 34 2
M  V30 35 1 32 11
M  V30 36 1 29 15
M  V30 37 1 28 18
M  V30 38 1 26 24
M  V30 39 1 1 35
M  V30 40 1 1 36
M  V30 41 1 1 37
M  V30 42 1 3 38
M  V30 43 1 4 39
M  V30 44 1 5 40
M  V30 45 1 7 41
M  V30 46 1 7 42
M  V30 47 1 10 43
M  V30 48 1 12 44
M  V30 49 1 16 45
M  V30 50 1 17 46
M  V30 51 1 21 47
M  V30 52 1 24 48
M  V30 53 1 25 49
M  V30 54 1 25 50
M  V30 55 1 26 51
M  V30 56 1 26 52
M  V30 57 1 29 53
M  V30 58 1 30 54
M  V30 59 1 31 55
M  V30 60 1 34 56
M  V30 END BOND
M  V30 END CTAB
M  END
>  <Dataset>  (805) 
ChEMBL_Kinases

>  <Ligand_Instance>  (805) 
nan

>  <PDB_ID>  (805) 
nan

>  <Standardized_SMILES>  (805) 
Cc1cccc(CC(=O)Nc2cc(Oc3ccc4nc(NC(=O)C5CC5)sc4c3)ccc2F)c1

>  <Name>  (805) 
nan

>  <Pocket>  (805) 
nan

>  <ATP_Site>  (805) 
nan

>  <Peripheral>  (805) 
nan

>  <Num_H_Atoms_ProtBoundConf>  (805) 
nan

>  <Num_Resolved_Atoms>  (805) 
nan

>  <Num_Not_Resolved_Atoms>  (805) 
nan

$$$$
CHEMBL4444700
     RDKit          3D

  0  0  0  0  0  0  0  0  0  0999 V3000
M  V30 BEGIN CTAB
M  V30 COUNTS 45 48 0 0 0
M  V30 BEGIN ATOM
M  V30 1 N -0.989987 -4.730284 1.047632 0
M  V30 2 C -0.068289 -3.700881 0.603196 0
M  V30 3 C -0.126561 -2.513590 1.570155 0
M  V30 4 C 0.806904 -1.479054 1.114052 0
M  V30 5 C 2.140352 -1.413682 1.530639 0
M  V30 6 C 3.047082 -0.460191 1.121678 0
M  V30 7 C 2.646254 0.517124 0.237056 0
M  V30 8 C 1.345143 0.522335 -0.222162 0
M  V30 9 C 0.898351 1.550986 -1.158152 0
M  V30 10 C 0.177432 1.073372 -2.246393 0
M  V30 11 C -0.290339 1.981644 -3.203027 0
M  V30 12 N -0.061931 3.305037 -3.099207 0
M  V30 13 C 0.629560 3.760472 -2.054574 0
M  V30 14 N 1.051007 4.980577 -1.608637 0
M  V30 15 N 1.724668 4.886616 -0.478444 0
M  V30 16 C 1.796186 3.593606 -0.096546 0
M  V30 17 C 1.114883 2.911638 -1.081241 0
M  V30 18 C 0.494186 -0.465202 0.232139 0
M  V30 19 C 0.090750 -2.991527 2.978999 0
M  V30 20 C -0.706678 -2.222245 3.979664 0
M  V30 21 C -0.842612 -0.799835 3.548430 0
M  V30 22 C -1.784924 -0.797887 2.351575 0
M  V30 23 C -1.546953 -1.999969 1.496428 0
M  V30 24 H -0.442293 -5.484610 1.529597 0
M  V30 25 H -1.424575 -5.183766 0.200308 0
M  V30 26 H -0.377037 -3.353219 -0.402307 0
M  V30 27 H 0.960791 -4.099349 0.542802 0
M  V30 28 H 2.544620 -2.129788 2.213716 0
M  V30 29 H 4.058805 -0.433268 1.455179 0
M  V30 30 H 3.343725 1.259196 -0.086967 0
M  V30 31 H -0.080619 0.042039 -2.459018 0
M  V30 32 H -0.857732 1.693154 -4.077561 0
M  V30 33 H 0.869738 5.886547 -2.092601 0
M  V30 34 H 2.273005 3.212191 0.770263 0
M  V30 35 H -0.503366 -0.399036 -0.174353 0
M  V30 36 H -0.278987 -4.060702 3.033778 0
M  V30 37 H 1.133188 -3.040494 3.301254 0
M  V30 38 H -0.299450 -2.344137 4.999490 0
M  V30 39 H -1.741279 -2.650098 4.033698 0
M  V30 40 H 0.103330 -0.334289 3.273749 0
M  V30 41 H -1.314820 -0.155353 4.336217 0
M  V30 42 H -2.827387 -0.851479 2.761404 0
M  V30 43 H -1.733003 0.131621 1.787419 0
M  V30 44 H -1.868250 -1.741421 0.451230 0
M  V30 45 H -2.254057 -2.845802 1.759588 0
M  V30 END ATOM
M  V30 BEGIN BOND
M  V30 1 1 1 2
M  V30 2 1 2 3
M  V30 3 1 3 4
M  V30 4 2 4 5
M  V30 5 1 5 6
M  V30 6 2 6 7
M  V30 7 1 7 8
M  V30 8 1 8 9
M  V30 9 2 9 10
M  V30 10 1 10 11
M  V30 11 2 11 12
M  V30 12 1 12 13
M  V30 13 1 13 14
M  V30 14 1 14 15
M  V30 15 2 15 16
M  V30 16 1 16 17
M  V30 17 2 8 18
M  V30 18 1 3 19
M  V30 19 1 19 20
M  V30 20 1 20 21
M  V30 21 1 21 22
M  V30 22 1 22 23
M  V30 23 1 23 3
M  V30 24 1 18 4
M  V30 25 1 17 9
M  V30 26 2 17 13
M  V30 27 1 1 24
M  V30 28 1 1 25
M  V30 29 1 2 26
M  V30 30 1 2 27
M  V30 31 1 5 28
M  V30 32 1 6 29
M  V30 33 1 7 30
M  V30 34 1 10 31
M  V30 35 1 11 32
M  V30 36 1 14 33
M  V30 37 1 16 34
M  V30 38 1 18 35
M  V30 39 1 19 36
M  V30 40 1 19 37
M  V30 41 1 20 38
M  V30 42 1 20 39
M  V30 43 1 21 40
M  V30 44 1 21 41
M  V30 45 1 22 42
M  V30 46 1 22 43
M  V30 47 1 23 44
M  V30 48 1 23 45
M  V30 END BOND
M  V30 END CTAB
M  END
>  <Dataset>  (806) 
ChEMBL_Kinases

>  <Ligand_Instance>  (806) 
nan

>  <PDB_ID>  (806) 
nan

>  <Standardized_SMILES>  (806) 
NCC1(c2cccc(-c3ccnc4[nH]ncc34)c2)CCCCC1

>  <Name>  (806) 
nan

>  <Pocket>  (806) 
nan

>  <ATP_Site>  (806) 
nan

>  <Peripheral>  (806) 
nan

>  <Num_H_Atoms_ProtBoundConf>  (806) 
nan

>  <Num_Resolved_Atoms>  (806) 
nan

>  <Num_Not_Resolved_Atoms>  (806) 
nan

$$$$
CHEMBL4444613
     RDKit          3D

  0  0  0  0  0  0  0  0  0  0999 V3000
M  V30 BEGIN CTAB
M  V30 COUNTS 55 57 0 0 0
M  V30 BEGIN ATOM
M  V30 1 C -0.895596 -2.576319 1.168248 0
M  V30 2 N 0.431010 -2.575752 1.863735 0
M  V30 3 C 1.001712 -3.078482 0.690303 0
M  V30 4 N 2.049226 -2.230022 1.143617 0
M  V30 5 C 3.236614 -2.085516 0.435631 0
M  V30 6 N 4.264903 -1.102704 0.839005 0
M  V30 7 C 3.546619 0.036718 0.223424 0
M  V30 8 C 3.768278 0.812585 -0.944932 0
M  V30 9 N 2.946902 1.888491 -1.240846 0
M  V30 10 C 1.969267 2.122523 -0.384831 0
M  V30 11 C 1.250153 3.294995 -0.828931 0
M  V30 12 N 0.650473 4.273560 -1.186905 0
M  V30 13 C 1.537436 1.597521 0.760073 0
M  V30 14 O 0.570316 1.956312 1.498758 0
M  V30 15 C -0.424889 2.338872 2.243090 0 CFG=2
M  V30 16 C -0.006185 2.826502 3.645762 0
M  V30 17 C -1.599011 1.434772 2.440648 0
M  V30 18 N -2.466482 1.274248 1.335380 0
M  V30 19 C -3.256733 2.512037 1.161940 0
M  V30 20 C -3.372582 0.197289 1.500828 0
M  V30 21 C 2.422336 0.505330 1.021900 0
M  V30 22 N 3.593990 -2.696295 -0.734325 0
M  V30 23 C 2.634731 -3.543517 -1.226419 0
M  V30 24 C 1.551590 -3.554682 -0.419858 0
M  V30 25 C 0.333993 -4.343637 -0.813413 0
M  V30 26 C -0.455078 -5.447039 -0.609077 0
M  V30 27 N -1.579424 -5.465825 -1.429187 0
M  V30 28 N -1.560799 -4.383740 -2.172647 0
M  V30 29 C -2.521030 -3.893654 -3.159014 0
M  V30 30 C -0.455076 -3.735136 -1.822796 0
M  V30 31 H -0.853483 -1.956190 0.188242 0
M  V30 32 H -1.392108 -3.483763 1.124823 0
M  V30 33 H -1.443374 -1.771938 1.815904 0
M  V30 34 H 0.490354 -2.242237 2.834759 0
M  V30 35 H 4.912817 -0.395234 1.073986 0
M  V30 36 H 4.583660 0.362575 -1.441056 0
M  V30 37 H -0.940269 3.302787 1.828640 0
M  V30 38 H 0.437433 3.855108 3.549571 0
M  V30 39 H 0.665315 2.148147 4.143299 0
M  V30 40 H -0.895421 2.931091 4.240282 0
M  V30 41 H -1.272346 0.470720 2.855938 0
M  V30 42 H -2.157114 1.894874 3.345234 0
M  V30 43 H -2.961518 3.285643 1.857211 0
M  V30 44 H -3.326064 2.848282 0.154163 0
M  V30 45 H -4.316664 2.239903 1.446676 0
M  V30 46 H -3.212816 -0.358514 2.493356 0
M  V30 47 H -4.462609 0.477946 1.483326 0
M  V30 48 H -3.228212 -0.581895 0.706860 0
M  V30 49 H 2.198394 -0.022497 1.948126 0
M  V30 50 H 2.531188 -4.127577 -2.092378 0
M  V30 51 H -0.038819 -6.057615 0.154579 0
M  V30 52 H -2.839874 -4.726217 -3.828219 0
M  V30 53 H -3.436932 -3.515930 -2.672617 0
M  V30 54 H -2.064097 -3.085369 -3.754957 0
M  V30 55 H -0.199025 -2.792469 -2.347661 0
M  V30 END ATOM
M  V30 BEGIN BOND
M  V30 1 1 1 2
M  V30 2 1 2 3
M  V30 3 2 3 4
M  V30 4 1 4 5
M  V30 5 1 5 6
M  V30 6 1 6 7
M  V30 7 2 7 8
M  V30 8 1 8 9
M  V30 9 2 9 10
M  V30 10 1 10 11
M  V30 11 3 11 12
M  V30 12 1 10 13
M  V30 13 1 13 14
M  V30 14 1 14 15
M  V30 15 1 15 16
M  V30 16 1 15 17
M  V30 17 1 17 18
M  V30 18 1 18 19
M  V30 19 1 18 20
M  V30 20 2 13 21
M  V30 21 2 5 22
M  V30 22 1 22 23
M  V30 23 2 23 24
M  V30 24 1 24 25
M  V30 25 1 25 26
M  V30 26 2 26 27
M  V30 27 1 27 28
M  V30 28 1 28 29
M  V30 29 1 28 30
M  V30 30 1 24 3
M  V30 31 2 30 25
M  V30 32 1 21 7
M  V30 33 1 1 31
M  V30 34 1 1 32
M  V30 35 1 1 33
M  V30 36 1 2 34
M  V30 37 1 6 35
M  V30 38 1 8 36
M  V30 39 1 15 37 CFG=3
M  V30 40 1 16 38
M  V30 41 1 16 39
M  V30 42 1 16 40
M  V30 43 1 17 41
M  V30 44 1 17 42
M  V30 45 1 19 43
M  V30 46 1 19 44
M  V30 47 1 19 45
M  V30 48 1 20 46
M  V30 49 1 20 47
M  V30 50 1 20 48
M  V30 51 1 21 49
M  V30 52 1 23 50
M  V30 53 1 26 51
M  V30 54 1 29 52
M  V30 55 1 29 53
M  V30 56 1 29 54
M  V30 57 1 30 55
M  V30 END BOND
M  V30 END CTAB
M  END
>  <Dataset>  (807) 
ChEMBL_Kinases

>  <Ligand_Instance>  (807) 
nan

>  <PDB_ID>  (807) 
nan

>  <Standardized_SMILES>  (807) 
CNc1nc(Nc2cnc(C#N)c(O[C@H](C)CN(C)C)c2)ncc1-c1cnn(C)c1

>  <Name>  (807) 
nan

>  <Pocket>  (807) 
nan

>  <ATP_Site>  (807) 
nan

>  <Peripheral>  (807) 
nan

>  <Num_H_Atoms_ProtBoundConf>  (807) 
nan

>  <Num_Resolved_Atoms>  (807) 
nan

>  <Num_Not_Resolved_Atoms>  (807) 
nan

$$$$
CHEMBL4444592
     RDKit          3D

  0  0  0  0  0  0  0  0  0  0999 V3000
M  V30 BEGIN CTAB
M  V30 COUNTS 50 54 0 0 0
M  V30 BEGIN ATOM
M  V30 1 C 4.487151 -2.916698 5.347129 0
M  V30 2 C 3.895736 -2.742819 3.994261 0
M  V30 3 C 2.640603 -3.255215 3.745984 0
M  V30 4 N 2.066511 -3.120618 2.536640 0
M  V30 5 C 2.691071 -2.484755 1.528520 0
M  V30 6 C 2.091168 -2.303916 0.152150 0
M  V30 7 C 1.354891 -1.048231 0.044111 0
M  V30 8 N 2.313363 -0.065097 0.177223 0
M  V30 9 C 1.713529 1.138454 0.112235 0
M  V30 10 C 2.296875 2.382454 0.207308 0
M  V30 11 N 1.463067 3.425806 0.121897 0
M  V30 12 C 0.142060 3.255687 -0.044937 0
M  V30 13 C -0.627282 4.390832 -0.099333 0
M  V30 14 C -1.990624 4.258213 -0.246701 0
M  V30 15 C -2.539661 2.990919 -0.334391 0
M  V30 16 C -3.965572 2.913894 -0.486146 0
M  V30 17 N -5.107612 2.841507 -0.621451 0
M  V30 18 C -1.687336 1.910817 -0.270435 0
M  V30 19 C -0.328687 1.969578 -0.127234 0
M  V30 20 C 0.386329 0.793548 -0.061864 0
M  V30 21 N 0.120336 -0.539791 -0.112555 0
M  V30 22 C -1.101812 -1.130545 -0.303420 0
M  V30 23 C -1.726992 -1.255336 -1.673281 0
M  V30 24 N -2.794740 -2.269732 -1.498781 0
M  V30 25 C -4.085512 -1.643050 -1.279523 0
M  V30 26 C -2.494273 -3.051013 -0.334303 0
M  V30 27 C -1.012868 -2.667285 -0.070164 0
M  V30 28 F -0.425341 -3.301297 -1.145869 0
M  V30 29 F -0.679817 -3.051903 1.138401 0
M  V30 30 C 3.967714 -1.960133 1.770809 0
M  V30 31 N 4.551736 -2.096468 2.999416 0
M  V30 32 H 3.684181 -2.705199 6.082873 0
M  V30 33 H 4.692091 -4.021175 5.434771 0
M  V30 34 H 5.412012 -2.354667 5.484106 0
M  V30 35 H 2.101420 -3.780324 4.545216 0
M  V30 36 H 2.997737 -2.331112 -0.539655 0
M  V30 37 H 1.618476 -3.248440 -0.052391 0
M  V30 38 H 3.365211 2.461223 0.341873 0
M  V30 39 H -0.167989 5.366827 -0.027640 0
M  V30 40 H -2.582550 5.160958 -0.288049 0
M  V30 41 H -2.236903 1.018900 -0.326414 0
M  V30 42 H -1.908604 -0.885312 0.439632 0
M  V30 43 H -2.281626 -0.405447 -2.057785 0
M  V30 44 H -0.986296 -1.705188 -2.374836 0
M  V30 45 H -4.872525 -1.990523 -1.977880 0
M  V30 46 H -3.928759 -0.544990 -1.434254 0
M  V30 47 H -4.402957 -1.739053 -0.214094 0
M  V30 48 H -2.625429 -4.104247 -0.548977 0
M  V30 49 H -3.102806 -2.764572 0.532400 0
M  V30 50 H 4.512829 -1.436904 0.984675 0
M  V30 END ATOM
M  V30 BEGIN BOND
M  V30 1 1 1 2
M  V30 2 2 2 3
M  V30 3 1 3 4
M  V30 4 2 4 5
M  V30 5 1 5 6
M  V30 6 1 6 7
M  V30 7 2 7 8
M  V30 8 1 8 9
M  V30 9 2 9 10
M  V30 10 1 10 11
M  V30 11 2 11 12
M  V30 12 1 12 13
M  V30 13 2 13 14
M  V30 14 1 14 15
M  V30 15 1 15 16
M  V30 16 3 16 17
M  V30 17 2 15 18
M  V30 18 1 18 19
M  V30 19 2 19 20
M  V30 20 1 20 21
M  V30 21 1 21 22
M  V30 22 1 22 23
M  V30 23 1 23 24
M  V30 24 1 24 25
M  V30 25 1 24 26
M  V30 26 1 26 27
M  V30 27 1 27 28
M  V30 28 1 27 29
M  V30 29 1 5 30
M  V30 30 2 30 31
M  V30 31 1 31 2
M  V30 32 1 21 7
M  V30 33 1 27 22
M  V30 34 1 20 9
M  V30 35 1 19 12
M  V30 36 1 1 32
M  V30 37 1 1 33
M  V30 38 1 1 34
M  V30 39 1 3 35
M  V30 40 1 6 36
M  V30 41 1 6 37
M  V30 42 1 10 38
M  V30 43 1 13 39
M  V30 44 1 14 40
M  V30 45 1 18 41
M  V30 46 1 22 42
M  V30 47 1 23 43
M  V30 48 1 23 44
M  V30 49 1 25 45
M  V30 50 1 25 46
M  V30 51 1 25 47
M  V30 52 1 26 48
M  V30 53 1 26 49
M  V30 54 1 30 50
M  V30 END BOND
M  V30 END CTAB
M  END
>  <Dataset>  (808) 
ChEMBL_Kinases

>  <Ligand_Instance>  (808) 
nan

>  <PDB_ID>  (808) 
nan

>  <Standardized_SMILES>  (808) 
Cc1cnc(Cc2nc3cnc4ccc(C#N)cc4c3n2C2CN(C)CC2(F)F)cn1

>  <Name>  (808) 
nan

>  <Pocket>  (808) 
nan

>  <ATP_Site>  (808) 
nan

>  <Peripheral>  (808) 
nan

>  <Num_H_Atoms_ProtBoundConf>  (808) 
nan

>  <Num_Resolved_Atoms>  (808) 
nan

>  <Num_Not_Resolved_Atoms>  (808) 
nan

$$$$
CHEMBL4444555
     RDKit          3D

  0  0  0  0  0  0  0  0  0  0999 V3000
M  V30 BEGIN CTAB
M  V30 COUNTS 50 52 0 0 0
M  V30 BEGIN ATOM
M  V30 1 C 0.997788 -6.271618 1.154515 0
M  V30 2 C 1.110346 -4.806534 0.912135 0
M  V30 3 C 2.161757 -4.152550 1.538101 0
M  V30 4 C 2.301181 -2.777415 1.335372 0
M  V30 5 C 1.396209 -2.124540 0.526964 0
M  V30 6 N 1.592579 -0.724071 0.360376 0
M  V30 7 N 2.300627 -0.093045 -0.577227 0
M  V30 8 C 2.239424 1.239799 -0.390393 0
M  V30 9 C 2.888363 2.313744 -1.211925 0
M  V30 10 C 4.248420 2.599096 -0.652586 0
M  V30 11 C 3.024842 1.892409 -2.659770 0
M  V30 12 C 2.037327 3.567922 -1.208451 0
M  V30 13 C 1.459220 1.505523 0.716041 0
M  V30 14 C 1.073714 0.242107 1.156393 0
M  V30 15 N 0.236553 -0.025081 2.301487 0
M  V30 16 C -1.176554 -0.078224 2.014653 0
M  V30 17 O -1.629643 0.099866 0.834023 0
M  V30 18 N -2.221628 -0.326915 2.970747 0
M  V30 19 C -3.564526 -0.331951 2.444432 0
M  V30 20 C -4.438597 0.724245 2.322402 0
M  V30 21 C -5.684899 0.481046 1.784293 0
M  V30 22 C -6.070977 -0.773317 1.372172 0
M  V30 23 Cl -7.677018 -0.982674 0.700404 0
M  V30 24 C -5.182973 -1.824968 1.500597 0
M  V30 25 C -3.926288 -1.614737 2.035904 0
M  V30 26 C 0.367174 -2.826603 -0.071931 0
M  V30 27 C 0.187795 -4.185966 0.098000 0
M  V30 28 H 1.910957 -6.694823 1.592507 0
M  V30 29 H 0.079305 -6.430518 1.754054 0
M  V30 30 H 0.763102 -6.734509 0.152383 0
M  V30 31 H 2.863957 -4.704627 2.175465 0
M  V30 32 H 3.128730 -2.290809 1.834302 0
M  V30 33 H 4.244826 2.842515 0.408929 0
M  V30 34 H 4.668342 3.451734 -1.253815 0
M  V30 35 H 4.921434 1.739247 -0.922210 0
M  V30 36 H 4.012246 2.203230 -3.094435 0
M  V30 37 H 2.916253 0.770439 -2.723882 0
M  V30 38 H 2.206083 2.307144 -3.293779 0
M  V30 39 H 0.962353 3.325068 -1.305163 0
M  V30 40 H 2.234548 4.216555 -0.331157 0
M  V30 41 H 2.294265 4.149979 -2.137381 0
M  V30 42 H 1.181392 2.430195 1.173330 0
M  V30 43 H 0.488935 -0.185969 3.303278 0
M  V30 44 H -1.885201 -0.480412 3.966072 0
M  V30 45 H -4.033442 1.657704 2.675186 0
M  V30 46 H -6.338670 1.344183 1.708247 0
M  V30 47 H -5.512523 -2.807643 1.167139 0
M  V30 48 H -3.315365 -2.507012 2.089128 0
M  V30 49 H -0.325209 -2.255403 -0.706332 0
M  V30 50 H -0.615014 -4.733253 -0.369330 0
M  V30 END ATOM
M  V30 BEGIN BOND
M  V30 1 1 1 2
M  V30 2 2 2 3
M  V30 3 1 3 4
M  V30 4 2 4 5
M  V30 5 1 5 6
M  V30 6 1 6 7
M  V30 7 2 7 8
M  V30 8 1 8 9
M  V30 9 1 9 10
M  V30 10 1 9 11
M  V30 11 1 9 12
M  V30 12 1 8 13
M  V30 13 2 13 14
M  V30 14 1 14 15
M  V30 15 1 15 16
M  V30 16 2 16 17
M  V30 17 1 16 18
M  V30 18 1 18 19
M  V30 19 2 19 20
M  V30 20 1 20 21
M  V30 21 2 21 22
M  V30 22 1 22 23
M  V30 23 1 22 24
M  V30 24 2 24 25
M  V30 25 1 5 26
M  V30 26 2 26 27
M  V30 27 1 27 2
M  V30 28 1 14 6
M  V30 29 1 25 19
M  V30 30 1 1 28
M  V30 31 1 1 29
M  V30 32 1 1 30
M  V30 33 1 3 31
M  V30 34 1 4 32
M  V30 35 1 10 33
M  V30 36 1 10 34
M  V30 37 1 10 35
M  V30 38 1 11 36
M  V30 39 1 11 37
M  V30 40 1 11 38
M  V30 41 1 12 39
M  V30 42 1 12 40
M  V30 43 1 12 41
M  V30 44 1 13 42
M  V30 45 1 15 43
M  V30 46 1 18 44
M  V30 47 1 20 45
M  V30 48 1 21 46
M  V30 49 1 24 47
M  V30 50 1 25 48
M  V30 51 1 26 49
M  V30 52 1 27 50
M  V30 END BOND
M  V30 END CTAB
M  END
>  <Dataset>  (809) 
ChEMBL_Kinases

>  <Ligand_Instance>  (809) 
nan

>  <PDB_ID>  (809) 
nan

>  <Standardized_SMILES>  (809) 
Cc1ccc(-n2nc(C(C)(C)C)cc2NC(=O)Nc2ccc(Cl)cc2)cc1

>  <Name>  (809) 
nan

>  <Pocket>  (809) 
nan

>  <ATP_Site>  (809) 
nan

>  <Peripheral>  (809) 
nan

>  <Num_H_Atoms_ProtBoundConf>  (809) 
nan

>  <Num_Resolved_Atoms>  (809) 
nan

>  <Num_Not_Resolved_Atoms>  (809) 
nan

$$$$
CHEMBL4444552
     RDKit          3D

  0  0  0  0  0  0  0  0  0  0999 V3000
M  V30 BEGIN CTAB
M  V30 COUNTS 38 40 0 0 0
M  V30 BEGIN ATOM
M  V30 1 C -1.773278 -3.397000 1.825265 0
M  V30 2 C -0.742427 -2.533075 2.559624 0 CFG=1
M  V30 3 N -0.069116 -1.692645 1.674809 0
M  V30 4 C 0.499268 -0.763953 0.746103 0
M  V30 5 N -0.091511 0.256082 0.104898 0
M  V30 6 C 0.454063 1.114620 -0.735804 0
M  V30 7 C -0.339928 2.171956 -1.348072 0
M  V30 8 C -1.680792 2.276532 -1.045244 0
M  V30 9 C -2.349109 3.302195 -1.668722 0
M  V30 10 N -1.731848 4.136005 -2.509708 0
M  V30 11 C -0.427728 4.030494 -2.801231 0
M  V30 12 C 0.328993 3.013992 -2.210479 0
M  V30 13 N 1.747561 0.925827 -0.959039 0
M  V30 14 C 2.460048 -0.046153 -0.391789 0
M  V30 15 C 3.786851 -0.064804 -0.766889 0
M  V30 16 N 4.569905 -1.042550 -0.223672 0
M  V30 17 C 4.047529 -1.940690 0.639887 0
M  V30 18 C 2.713591 -1.847028 0.957886 0
M  V30 19 C 1.836603 -0.908367 0.474052 0
M  V30 20 C -1.442172 -1.890044 3.714589 0
M  V30 21 O -1.315356 -0.618396 3.717684 0
M  V30 22 O -2.091904 -1.293266 4.786959 0
M  V30 23 C 0.203751 -3.537238 3.254585 0
M  V30 24 F 1.180868 -2.878371 3.965669 0
M  V30 25 F -0.594644 -4.146949 4.237212 0
M  V30 26 F 0.646064 -4.487432 2.394704 0
M  V30 27 H -1.288308 -4.037064 1.064237 0
M  V30 28 H -2.302691 -4.001493 2.561517 0
M  V30 29 H -2.447261 -2.701108 1.269521 0
M  V30 30 H -1.033648 -1.285793 1.615577 0
M  V30 31 H -2.162226 1.591082 -0.361468 0
M  V30 32 H -3.413136 3.394908 -1.436185 0
M  V30 33 H 0.118894 4.692259 -3.485109 0
M  V30 34 H 1.403581 2.864785 -2.401256 0
M  V30 35 H 4.222466 0.640853 -1.452907 0
M  V30 36 H 4.644718 -2.726257 1.085480 0
M  V30 37 H 2.311745 -2.569901 1.637234 0
M  V30 38 H -2.404696 -1.823144 5.592262 0
M  V30 END ATOM
M  V30 BEGIN BOND
M  V30 1 1 1 2
M  V30 2 1 2 3 CFG=3
M  V30 3 1 3 4
M  V30 4 2 4 5
M  V30 5 1 5 6
M  V30 6 1 6 7
M  V30 7 2 7 8
M  V30 8 1 8 9
M  V30 9 2 9 10
M  V30 10 1 10 11
M  V30 11 2 11 12
M  V30 12 2 6 13
M  V30 13 1 13 14
M  V30 14 2 14 15
M  V30 15 1 15 16
M  V30 16 2 16 17
M  V30 17 1 17 18
M  V30 18 2 18 19
M  V30 19 1 2 20
M  V30 20 2 20 21
M  V30 21 1 20 22
M  V30 22 1 2 23
M  V30 23 1 23 24
M  V30 24 1 23 25
M  V30 25 1 23 26
M  V30 26 1 19 4
M  V30 27 1 12 7
M  V30 28 1 19 14
M  V30 29 1 1 27
M  V30 30 1 1 28
M  V30 31 1 1 29
M  V30 32 1 3 30
M  V30 33 1 8 31
M  V30 34 1 9 32
M  V30 35 1 11 33
M  V30 36 1 12 34
M  V30 37 1 15 35
M  V30 38 1 17 36
M  V30 39 1 18 37
M  V30 40 1 22 38
M  V30 END BOND
M  V30 END CTAB
M  END
>  <Dataset>  (810) 
ChEMBL_Kinases

>  <Ligand_Instance>  (810) 
nan

>  <PDB_ID>  (810) 
nan

>  <Standardized_SMILES>  (810) 
C[C@@](Nc1nc(-c2ccncc2)nc2cnccc12)(C(=O)O)C(F)(F)F

>  <Name>  (810) 
nan

>  <Pocket>  (810) 
nan

>  <ATP_Site>  (810) 
nan

>  <Peripheral>  (810) 
nan

>  <Num_H_Atoms_ProtBoundConf>  (810) 
nan

>  <Num_Resolved_Atoms>  (810) 
nan

>  <Num_Not_Resolved_Atoms>  (810) 
nan

$$$$
CHEMBL4444537
     RDKit          3D

  0  0  0  0  0  0  0  0  0  0999 V3000
M  V30 BEGIN CTAB
M  V30 COUNTS 40 43 0 0 0
M  V30 BEGIN ATOM
M  V30 1 C -2.422962 -1.754215 2.011542 0
M  V30 2 N -1.137108 -1.053325 1.880094 0
M  V30 3 C -0.750413 -0.196253 0.801727 0
M  V30 4 N 0.338041 -0.552218 0.095077 0
M  V30 5 C 0.816914 0.170043 -0.955090 0
M  V30 6 C 2.006772 -0.300907 -1.658736 0
M  V30 7 C 2.253204 -0.121494 -3.025127 0
M  V30 8 N 3.442013 -0.689557 -3.298262 0
M  V30 9 N 3.962787 -1.214467 -2.201176 0
M  V30 10 C 5.207476 -1.930934 -1.950755 0
M  V30 11 C 3.099385 -0.989818 -1.174543 0
M  V30 12 N 0.173636 1.304405 -1.314679 0
M  V30 13 C -0.934077 1.714701 -0.635927 0
M  V30 14 C -1.615725 2.873083 -0.980246 0
M  V30 15 N -2.705231 3.231198 -0.274427 0
M  V30 16 C -3.149361 2.489037 0.760366 0
M  V30 17 C -2.515624 1.319694 1.158191 0
M  V30 18 C -1.402064 0.964111 0.428006 0
M  V30 19 C -0.409838 -1.456998 3.091791 0
M  V30 20 C -0.159483 -2.931825 3.273027 0
M  V30 21 C 0.783376 -0.555520 3.415914 0
M  V30 22 C -0.450158 -0.563001 4.273104 0
M  V30 23 H -3.108741 -1.529626 1.165509 0
M  V30 24 H -2.258297 -2.866272 1.963214 0
M  V30 25 H -2.960147 -1.487012 2.934971 0
M  V30 26 H 1.635235 0.375177 -3.770692 0
M  V30 27 H 5.618442 -2.295796 -2.931398 0
M  V30 28 H 5.917206 -1.335036 -1.373944 0
M  V30 29 H 4.952212 -2.826434 -1.311615 0
M  V30 30 H 3.120416 -1.241012 -0.116584 0
M  V30 31 H -1.261799 3.480092 -1.817967 0
M  V30 32 H -4.017324 2.810254 1.292451 0
M  V30 33 H -2.870689 0.718295 1.992264 0
M  V30 34 H -0.165980 -3.431762 2.279772 0
M  V30 35 H 0.828161 -3.160915 3.721993 0
M  V30 36 H -0.961274 -3.421542 3.873416 0
M  V30 37 H 1.710770 -1.012895 3.816490 0
M  V30 38 H 0.973188 0.335596 2.785368 0
M  V30 39 H -0.314382 -1.056775 5.270123 0
M  V30 40 H -1.065082 0.341476 4.212584 0
M  V30 END ATOM
M  V30 BEGIN BOND
M  V30 1 1 1 2
M  V30 2 1 2 3
M  V30 3 2 3 4
M  V30 4 1 4 5
M  V30 5 1 5 6
M  V30 6 1 6 7
M  V30 7 2 7 8
M  V30 8 1 8 9
M  V30 9 1 9 10
M  V30 10 1 9 11
M  V30 11 2 5 12
M  V30 12 1 12 13
M  V30 13 2 13 14
M  V30 14 1 14 15
M  V30 15 2 15 16
M  V30 16 1 16 17
M  V30 17 2 17 18
M  V30 18 1 2 19
M  V30 19 1 19 20
M  V30 20 1 19 21
M  V30 21 1 21 22
M  V30 22 1 18 3
M  V30 23 1 22 19
M  V30 24 2 11 6
M  V30 25 1 18 13
M  V30 26 1 1 23
M  V30 27 1 1 24
M  V30 28 1 1 25
M  V30 29 1 7 26
M  V30 30 1 10 27
M  V30 31 1 10 28
M  V30 32 1 10 29
M  V30 33 1 11 30
M  V30 34 1 14 31
M  V30 35 1 16 32
M  V30 36 1 17 33
M  V30 37 1 20 34
M  V30 38 1 20 35
M  V30 39 1 20 36
M  V30 40 1 21 37
M  V30 41 1 21 38
M  V30 42 1 22 39
M  V30 43 1 22 40
M  V30 END BOND
M  V30 END CTAB
M  END
>  <Dataset>  (811) 
ChEMBL_Kinases

>  <Ligand_Instance>  (811) 
nan

>  <PDB_ID>  (811) 
nan

>  <Standardized_SMILES>  (811) 
CN(c1nc(-c2cnn(C)c2)nc2cnccc12)C1(C)CC1

>  <Name>  (811) 
nan

>  <Pocket>  (811) 
nan

>  <ATP_Site>  (811) 
nan

>  <Peripheral>  (811) 
nan

>  <Num_H_Atoms_ProtBoundConf>  (811) 
nan

>  <Num_Resolved_Atoms>  (811) 
nan

>  <Num_Not_Resolved_Atoms>  (811) 
nan

$$$$
CHEMBL4444533
     RDKit          3D

  0  0  0  0  0  0  0  0  0  0999 V3000
M  V30 BEGIN CTAB
M  V30 COUNTS 40 42 0 0 0
M  V30 BEGIN ATOM
M  V30 1 C 0.085695 -6.333172 -0.389784 0
M  V30 2 N -0.619932 -5.320902 0.393916 0
M  V30 3 C -1.768687 -5.694432 1.199085 0
M  V30 4 C -0.207767 -3.959432 0.390833 0
M  V30 5 C -0.873442 -3.002021 1.130645 0
M  V30 6 C -0.433356 -1.692405 1.093840 0
M  V30 7 C 0.649741 -1.265788 0.352086 0
M  V30 8 C 1.067009 0.130197 0.351425 0
M  V30 9 C 2.152021 0.532326 -0.390814 0
M  V30 10 C 2.458147 1.872786 -0.313694 0
M  V30 11 N 3.501033 2.353647 -1.005012 0
M  V30 12 C 3.821771 3.665861 -0.945716 0
M  V30 13 C 3.108859 4.566657 -0.186000 0
M  V30 14 N 2.068402 4.069431 0.499622 0
M  V30 15 C 1.727986 2.749911 0.453782 0
M  V30 16 C 0.630698 2.301963 1.194665 0
M  V30 17 N -0.117058 3.205049 1.993870 0
M  V30 18 C -1.275533 2.941730 2.819118 0
M  V30 19 C -2.442938 2.514538 1.998174 0
M  V30 20 F -2.752809 3.527659 1.097347 0
M  V30 21 F -2.208075 1.361784 1.302993 0
M  V30 22 F -3.572842 2.268397 2.771594 0
M  V30 23 N 0.359253 0.992370 1.098026 0
M  V30 24 C 1.267484 -2.270850 -0.361569 0
M  V30 25 N 0.849921 -3.551527 -0.335487 0
M  V30 26 H 1.169978 -6.134996 -0.240668 0
M  V30 27 H -0.115531 -6.239951 -1.467615 0
M  V30 28 H -0.112401 -7.338329 -0.003114 0
M  V30 29 H -1.532020 -5.331829 2.238621 0
M  V30 30 H -2.700477 -5.188519 0.910884 0
M  V30 31 H -1.879624 -6.790338 1.277794 0
M  V30 32 H -1.716082 -3.346447 1.704756 0
M  V30 33 H -1.014360 -1.015441 1.704095 0
M  V30 34 H 2.745852 -0.116220 -0.999885 0
M  V30 35 H 4.659868 4.011077 -1.510898 0
M  V30 36 H 3.336908 5.619309 -0.115896 0
M  V30 37 H 0.214661 4.217118 1.989269 0
M  V30 38 H -1.498113 3.783172 3.476780 0
M  V30 39 H -0.949978 2.096744 3.497397 0
M  V30 40 H 2.119216 -2.037570 -0.968638 0
M  V30 END ATOM
M  V30 BEGIN BOND
M  V30 1 1 1 2
M  V30 2 1 2 3
M  V30 3 1 2 4
M  V30 4 2 4 5
M  V30 5 1 5 6
M  V30 6 2 6 7
M  V30 7 1 7 8
M  V30 8 2 8 9
M  V30 9 1 9 10
M  V30 10 2 10 11
M  V30 11 1 11 12
M  V30 12 2 12 13
M  V30 13 1 13 14
M  V30 14 2 14 15
M  V30 15 1 15 16
M  V30 16 1 16 17
M  V30 17 1 17 18
M  V30 18 1 18 19
M  V30 19 1 19 20
M  V30 20 1 19 21
M  V30 21 1 19 22
M  V30 22 2 16 23
M  V30 23 1 7 24
M  V30 24 2 24 25
M  V30 25 1 25 4
M  V30 26 1 23 8
M  V30 27 1 15 10
M  V30 28 1 1 26
M  V30 29 1 1 27
M  V30 30 1 1 28
M  V30 31 1 3 29
M  V30 32 1 3 30
M  V30 33 1 3 31
M  V30 34 1 5 32
M  V30 35 1 6 33
M  V30 36 1 9 34
M  V30 37 1 12 35
M  V30 38 1 13 36
M  V30 39 1 17 37
M  V30 40 1 18 38
M  V30 41 1 18 39
M  V30 42 1 24 40
M  V30 END BOND
M  V30 END CTAB
M  END
>  <Dataset>  (812) 
ChEMBL_Kinases

>  <Ligand_Instance>  (812) 
nan

>  <PDB_ID>  (812) 
nan

>  <Standardized_SMILES>  (812) 
CN(C)c1ccc(-c2cc3nccnc3c(NCC(F)(F)F)n2)cn1

>  <Name>  (812) 
nan

>  <Pocket>  (812) 
nan

>  <ATP_Site>  (812) 
nan

>  <Peripheral>  (812) 
nan

>  <Num_H_Atoms_ProtBoundConf>  (812) 
nan

>  <Num_Resolved_Atoms>  (812) 
nan

>  <Num_Not_Resolved_Atoms>  (812) 
nan

$$$$
CHEMBL4444527
     RDKit          3D

  0  0  0  0  0  0  0  0  0  0999 V3000
M  V30 BEGIN CTAB
M  V30 COUNTS 47 50 0 0 0
M  V30 BEGIN ATOM
M  V30 1 C -0.257159 -7.200634 -1.860755 0
M  V30 2 O -0.906415 -6.306685 -0.946989 0
M  V30 3 C -0.487771 -4.968358 -0.985876 0
M  V30 4 C 0.499169 -4.604309 -1.879438 0
M  V30 5 C 0.885889 -3.272308 -1.887772 0
M  V30 6 C 0.335464 -2.297339 -1.050779 0
M  V30 7 C 0.856470 -0.941885 -1.190104 0
M  V30 8 C 1.275048 -0.570199 -2.471177 0
M  V30 9 N 1.777784 0.677596 -2.703966 0
M  V30 10 C 1.891369 1.591559 -1.726658 0
M  V30 11 N 2.328068 2.863872 -1.621880 0
M  V30 12 C 2.194167 3.285890 -0.330277 0
M  V30 13 C 1.651745 2.244892 0.417955 0
M  V30 14 N 1.410579 2.431304 1.807855 0
M  V30 15 C 0.164599 2.928702 2.259419 0
M  V30 16 O -0.705882 3.193153 1.390280 0
M  V30 17 C -0.164782 3.150546 3.665612 0
M  V30 18 C -1.421067 3.636169 3.968611 0
M  V30 19 C -1.718695 3.842868 5.302197 0
M  V30 20 C -0.817081 3.582180 6.292694 0
M  V30 21 C 0.428066 3.101821 6.004996 0
M  V30 22 C 0.744586 2.887843 4.668766 0
M  V30 23 C 1.473181 1.203886 -0.473407 0
M  V30 24 C 0.955125 -0.035495 -0.157930 0
M  V30 25 C -0.647176 -2.715603 -0.177190 0
M  V30 26 C -1.054678 -4.033432 -0.143895 0
M  V30 27 O -2.025167 -4.467118 0.712630 0
M  V30 28 C -2.741737 -3.729306 1.649775 0
M  V30 29 H -0.567912 -8.236916 -1.691351 0
M  V30 30 H -0.415612 -6.871893 -2.907750 0
M  V30 31 H 0.845973 -7.161154 -1.677137 0
M  V30 32 H 0.958927 -5.318523 -2.549833 0
M  V30 33 H 1.658624 -3.022687 -2.597142 0
M  V30 34 H 1.255056 -1.171530 -3.362356 0
M  V30 35 H 2.704513 3.413546 -2.422303 0
M  V30 36 H 2.491820 4.286127 -0.041669 0
M  V30 37 H 2.153477 2.201684 2.503022 0
M  V30 38 H -2.136805 3.842688 3.182941 0
M  V30 39 H -2.722392 4.227346 5.502618 0
M  V30 40 H -1.085989 3.758671 7.339712 0
M  V30 41 H 1.141126 2.896711 6.801004 0
M  V30 42 H 1.723318 2.512300 4.467751 0
M  V30 43 H 0.630893 -0.328074 0.826184 0
M  V30 44 H -1.068950 -1.960007 0.466100 0
M  V30 45 H -3.827980 -4.036199 1.698827 0
M  V30 46 H -2.314881 -3.800499 2.674714 0
M  V30 47 H -2.756818 -2.655473 1.375568 0
M  V30 END ATOM
M  V30 BEGIN BOND
M  V30 1 1 1 2
M  V30 2 1 2 3
M  V30 3 2 3 4
M  V30 4 1 4 5
M  V30 5 2 5 6
M  V30 6 1 6 7
M  V30 7 2 7 8
M  V30 8 1 8 9
M  V30 9 2 9 10
M  V30 10 1 10 11
M  V30 11 1 11 12
M  V30 12 2 12 13
M  V30 13 1 13 14
M  V30 14 1 14 15
M  V30 15 2 15 16
M  V30 16 1 15 17
M  V30 17 2 17 18
M  V30 18 1 18 19
M  V30 19 2 19 20
M  V30 20 1 20 21
M  V30 21 2 21 22
M  V30 22 1 13 23
M  V30 23 2 23 24
M  V30 24 1 6 25
M  V30 25 2 25 26
M  V30 26 1 26 27
M  V30 27 1 27 28
M  V30 28 1 26 3
M  V30 29 1 24 7
M  V30 30 1 23 10
M  V30 31 1 22 17
M  V30 32 1 1 29
M  V30 33 1 1 30
M  V30 34 1 1 31
M  V30 35 1 4 32
M  V30 36 1 5 33
M  V30 37 1 8 34
M  V30 38 1 11 35
M  V30 39 1 12 36
M  V30 40 1 14 37
M  V30 41 1 18 38
M  V30 42 1 19 39
M  V30 43 1 20 40
M  V30 44 1 21 41
M  V30 45 1 22 42
M  V30 46 1 24 43
M  V30 47 1 25 44
M  V30 48 1 28 45
M  V30 49 1 28 46
M  V30 50 1 28 47
M  V30 END BOND
M  V30 END CTAB
M  END
>  <Dataset>  (813) 
ChEMBL_Kinases

>  <Ligand_Instance>  (813) 
nan

>  <PDB_ID>  (813) 
nan

>  <Standardized_SMILES>  (813) 
COc1ccc(-c2cnc3[nH]cc(NC(=O)c4ccccc4)c3c2)cc1OC

>  <Name>  (813) 
nan

>  <Pocket>  (813) 
nan

>  <ATP_Site>  (813) 
nan

>  <Peripheral>  (813) 
nan

>  <Num_H_Atoms_ProtBoundConf>  (813) 
nan

>  <Num_Resolved_Atoms>  (813) 
nan

>  <Num_Not_Resolved_Atoms>  (813) 
nan

$$$$
CHEMBL4444109
     RDKit          3D

  0  0  0  0  0  0  0  0  0  0999 V3000
M  V30 BEGIN CTAB
M  V30 COUNTS 40 42 0 0 0
M  V30 BEGIN ATOM
M  V30 1 C -1.478056 -4.229529 2.670631 0
M  V30 2 C -0.368506 -4.269066 1.675883 0
M  V30 3 N 0.250238 -5.384029 1.242769 0
M  V30 4 N 1.194467 -5.049429 0.355227 0
M  V30 5 C 1.175484 -3.697608 0.221881 0
M  V30 6 C 0.195547 -3.178664 1.046590 0
M  V30 7 C -0.220974 -1.797973 1.268056 0
M  V30 8 C 0.372640 -0.737320 0.615649 0
M  V30 9 C 0.043879 0.592556 0.763806 0
M  V30 10 N 0.668702 1.649818 0.082990 0
M  V30 11 C 1.763183 1.451561 -0.879595 0
M  V30 12 C 1.313762 0.574748 -2.023395 0
M  V30 13 C 2.227437 2.779064 -1.465478 0
M  V30 14 C 2.954174 0.766062 -0.221593 0
M  V30 15 C -0.981768 0.781281 1.666278 0
M  V30 16 C -1.447547 2.046884 1.944948 0
M  V30 17 C -2.465889 2.329400 2.830423 0
M  V30 18 N -3.053248 1.279294 3.476010 0
M  V30 19 C -2.625416 0.024659 3.230291 0
M  V30 20 C -1.615713 -0.233075 2.349841 0
M  V30 21 N -1.223829 -1.495644 2.137382 0
M  V30 22 H -1.174139 -3.626843 3.552454 0
M  V30 23 H -2.388573 -3.746802 2.210075 0
M  V30 24 H -1.687805 -5.238882 3.040306 0
M  V30 25 H 1.816089 -5.745511 -0.127096 0
M  V30 26 H 1.810371 -3.109126 -0.415354 0
M  V30 27 H 1.160154 -1.035804 -0.060731 0
M  V30 28 H 0.411238 2.630326 0.204732 0
M  V30 29 H 0.263023 0.241509 -1.864500 0
M  V30 30 H 2.012190 -0.284359 -2.163954 0
M  V30 31 H 1.344870 1.169329 -2.957495 0
M  V30 32 H 1.643611 3.074337 -2.360948 0
M  V30 33 H 3.295267 2.717068 -1.759857 0
M  V30 34 H 2.193575 3.559246 -0.655312 0
M  V30 35 H 3.255867 -0.146054 -0.775615 0
M  V30 36 H 3.845889 1.449663 -0.289307 0
M  V30 37 H 2.734679 0.517182 0.833479 0
M  V30 38 H -1.044956 2.933119 1.483937 0
M  V30 39 H -2.826353 3.324078 3.044409 0
M  V30 40 H -3.140084 -0.733911 3.778011 0
M  V30 END ATOM
M  V30 BEGIN BOND
M  V30 1 1 1 2
M  V30 2 2 2 3
M  V30 3 1 3 4
M  V30 4 1 4 5
M  V30 5 2 5 6
M  V30 6 1 6 7
M  V30 7 2 7 8
M  V30 8 1 8 9
M  V30 9 1 9 10
M  V30 10 1 10 11
M  V30 11 1 11 12
M  V30 12 1 11 13
M  V30 13 1 11 14
M  V30 14 2 9 15
M  V30 15 1 15 16
M  V30 16 2 16 17
M  V30 17 1 17 18
M  V30 18 2 18 19
M  V30 19 1 19 20
M  V30 20 2 20 21
M  V30 21 1 6 2
M  V30 22 1 21 7
M  V30 23 1 20 15
M  V30 24 1 1 22
M  V30 25 1 1 23
M  V30 26 1 1 24
M  V30 27 1 4 25
M  V30 28 1 5 26
M  V30 29 1 8 27
M  V30 30 1 10 28
M  V30 31 1 12 29
M  V30 32 1 12 30
M  V30 33 1 12 31
M  V30 34 1 13 32
M  V30 35 1 13 33
M  V30 36 1 13 34
M  V30 37 1 14 35
M  V30 38 1 14 36
M  V30 39 1 14 37
M  V30 40 1 16 38
M  V30 41 1 17 39
M  V30 42 1 19 40
M  V30 END BOND
M  V30 END CTAB
M  END
>  <Dataset>  (814) 
ChEMBL_Kinases

>  <Ligand_Instance>  (814) 
nan

>  <PDB_ID>  (814) 
nan

>  <Standardized_SMILES>  (814) 
Cc1n[nH]cc1-c1cc(NC(C)(C)C)c2ccncc2n1

>  <Name>  (814) 
nan

>  <Pocket>  (814) 
nan

>  <ATP_Site>  (814) 
nan

>  <Peripheral>  (814) 
nan

>  <Num_H_Atoms_ProtBoundConf>  (814) 
nan

>  <Num_Resolved_Atoms>  (814) 
nan

>  <Num_Not_Resolved_Atoms>  (814) 
nan

$$$$
CHEMBL4444451
     RDKit          3D

  0  0  0  0  0  0  0  0  0  0999 V3000
M  V30 BEGIN CTAB
M  V30 COUNTS 51 55 0 0 0
M  V30 BEGIN ATOM
M  V30 1 C 2.393883 -2.395977 4.588361 0
M  V30 2 C 3.311055 -2.560280 3.443901 0
M  V30 3 N 4.295265 -3.095029 3.068327 0
M  V30 4 N 4.824368 -2.972285 1.892828 0
M  V30 5 C 4.433290 -2.321859 1.002593 0
M  V30 6 N 4.670275 -1.926183 -0.325804 0
M  V30 7 C 3.846826 -1.037907 -1.068491 0
M  V30 8 N 4.171701 -0.715869 -2.329925 0
M  V30 9 C 3.417137 0.122030 -3.064075 0
M  V30 10 C 2.264051 0.681065 -2.519276 0
M  V30 11 C 1.980303 0.322745 -1.239439 0
M  V30 12 C 0.809144 0.807201 -0.482121 0
M  V30 13 S 0.149289 2.436004 0.201782 0
M  V30 14 C -1.388083 1.580556 0.922424 0
M  V30 15 C -2.389663 2.422910 1.659507 0
M  V30 16 C -2.714067 1.847615 3.003665 0
M  V30 17 C -3.242098 0.463158 2.848356 0
M  V30 18 N -4.381103 0.341781 1.996777 0
M  V30 19 C -4.247607 1.013770 0.734974 0
M  V30 20 C -3.653517 2.376999 0.828681 0
M  V30 21 N -1.221596 0.471910 0.618530 0
M  V30 22 C -0.213749 -0.048766 -0.056933 0
M  V30 23 C -0.241885 -1.507578 -0.315625 0
M  V30 24 C -0.287726 -1.808316 -1.678289 0
M  V30 25 C -0.321171 -3.090337 -2.164802 0
M  V30 26 C -0.306887 -4.106035 -1.209867 0
M  V30 27 F -0.339648 -5.411327 -1.624744 0
M  V30 28 C -0.261584 -3.823886 0.137630 0
M  V30 29 C -0.228510 -2.529101 0.605250 0
M  V30 30 N 2.744712 -0.521876 -0.505146 0
M  V30 31 S 2.895704 -1.600524 1.858975 0
M  V30 32 H 2.208885 -3.348042 5.109025 0
M  V30 33 H 1.379475 -2.038921 4.267909 0
M  V30 34 H 2.786671 -1.582876 5.226580 0
M  V30 35 H 5.526608 -2.372693 -0.682862 0
M  V30 36 H 3.669134 0.389065 -4.082108 0
M  V30 37 H 1.596070 1.365043 -3.035771 0
M  V30 38 H -2.038511 3.472878 1.685337 0
M  V30 39 H -3.471920 2.497953 3.463119 0
M  V30 40 H -1.778948 1.787227 3.596123 0
M  V30 41 H -3.579302 0.118456 3.869955 0
M  V30 42 H -2.457999 -0.254944 2.547322 0
M  V30 43 H -4.493714 -0.687412 1.787025 0
M  V30 44 H -3.750630 0.377296 -0.045099 0
M  V30 45 H -5.303475 1.145959 0.354302 0
M  V30 46 H -4.392755 3.103716 1.220420 0
M  V30 47 H -3.320330 2.648130 -0.213573 0
M  V30 48 H -0.300113 -1.046066 -2.467569 0
M  V30 49 H -0.356234 -3.326238 -3.219145 0
M  V30 50 H -0.250257 -4.600050 0.885828 0
M  V30 51 H -0.193061 -2.189796 1.629817 0
M  V30 END ATOM
M  V30 BEGIN BOND
M  V30 1 1 1 2
M  V30 2 2 2 3
M  V30 3 1 3 4
M  V30 4 2 4 5
M  V30 5 1 5 6
M  V30 6 1 6 7
M  V30 7 2 7 8
M  V30 8 1 8 9
M  V30 9 2 9 10
M  V30 10 1 10 11
M  V30 11 1 11 12
M  V30 12 1 12 13
M  V30 13 1 13 14
M  V30 14 1 14 15
M  V30 15 1 15 16
M  V30 16 1 16 17
M  V30 17 1 17 18
M  V30 18 1 18 19
M  V30 19 1 19 20
M  V30 20 2 14 21
M  V30 21 1 21 22
M  V30 22 1 22 23
M  V30 23 2 23 24
M  V30 24 1 24 25
M  V30 25 2 25 26
M  V30 26 1 26 27
M  V30 27 1 26 28
M  V30 28 2 28 29
M  V30 29 2 11 30
M  V30 30 1 5 31
M  V30 31 1 31 2
M  V30 32 1 30 7
M  V30 33 2 22 12
M  V30 34 1 29 23
M  V30 35 1 20 15
M  V30 36 1 1 32
M  V30 37 1 1 33
M  V30 38 1 1 34
M  V30 39 1 6 35
M  V30 40 1 9 36
M  V30 41 1 10 37
M  V30 42 1 15 38
M  V30 43 1 16 39
M  V30 44 1 16 40
M  V30 45 1 17 41
M  V30 46 1 17 42
M  V30 47 1 18 43
M  V30 48 1 19 44
M  V30 49 1 19 45
M  V30 50 1 20 46
M  V30 51 1 20 47
M  V30 52 1 24 48
M  V30 53 1 25 49
M  V30 54 1 28 50
M  V30 55 1 29 51
M  V30 END BOND
M  V30 END CTAB
M  END
>  <Dataset>  (815) 
ChEMBL_Kinases

>  <Ligand_Instance>  (815) 
nan

>  <PDB_ID>  (815) 
nan

>  <Standardized_SMILES>  (815) 
Cc1nnc(Nc2nccc(-c3sc(C4CCNCC4)nc3-c3ccc(F)cc3)n2)s1

>  <Name>  (815) 
nan

>  <Pocket>  (815) 
nan

>  <ATP_Site>  (815) 
nan

>  <Peripheral>  (815) 
nan

>  <Num_H_Atoms_ProtBoundConf>  (815) 
nan

>  <Num_Resolved_Atoms>  (815) 
nan

>  <Num_Not_Resolved_Atoms>  (815) 
nan

$$$$
CHEMBL4444449
     RDKit          3D

  0  0  0  0  0  0  0  0  0  0999 V3000
M  V30 BEGIN CTAB
M  V30 COUNTS 60 63 0 0 0
M  V30 BEGIN ATOM
M  V30 1 C 7.523783 -2.808027 2.535286 0
M  V30 2 N 7.316192 -1.439937 2.979996 0
M  V30 3 C 8.307620 -0.762895 3.811868 0
M  V30 4 C 6.139411 -0.716270 2.617382 0
M  V30 5 C 5.923591 0.594874 3.036559 0
M  V30 6 C 4.764318 1.290304 2.671418 0
M  V30 7 C 3.824986 0.654318 1.881119 0
M  V30 8 C 2.639439 1.428896 1.535513 0
M  V30 9 O 2.532648 2.583896 1.961010 0
M  V30 10 N 1.628796 0.883404 0.733570 0
M  V30 11 C 0.399379 1.328276 0.225018 0
M  V30 12 C -0.797788 1.170623 0.898297 0
M  V30 13 C -1.992145 1.616732 0.371188 0
M  V30 14 C -2.046394 2.242420 -0.855853 0
M  V30 15 C -3.208524 2.778618 -1.583633 0
M  V30 16 N -3.826948 1.829433 -2.488862 0
M  V30 17 C -4.679718 0.748911 -2.095022 0
M  V30 18 O -4.878915 0.657202 -0.858988 0
M  V30 19 C -5.214914 -0.119813 -3.204346 0
M  V30 20 O -6.027606 -1.137630 -2.712592 0
M  V30 21 C -5.646383 -2.141304 -1.836568 0
M  V30 22 C -6.669226 -3.019572 -1.509178 0
M  V30 23 C -6.501681 -4.089284 -0.653638 0
M  V30 24 C -5.248069 -4.313231 -0.080589 0
M  V30 25 C -5.041199 -5.372842 0.780241 0
M  V30 26 O -5.959909 -6.170831 1.081388 0
M  V30 27 C -3.762913 -5.536002 1.315610 0
M  V30 28 C -2.793322 -4.618984 0.941995 0
M  V30 29 O -3.045283 -3.632455 0.121426 0
M  V30 30 C -4.235042 -3.428570 -0.416073 0
M  V30 31 C -4.420259 -2.364634 -1.273247 0
M  V30 32 C -0.847382 2.412939 -1.554840 0
M  V30 33 C 0.359147 1.957588 -1.012992 0
M  V30 34 C 4.042297 -0.643657 1.468219 0
M  V30 35 C 5.195486 -1.350726 1.825052 0
M  V30 36 H 6.651784 -3.459639 2.794564 0
M  V30 37 H 7.710842 -2.819765 1.451538 0
M  V30 38 H 8.401035 -3.226162 3.058904 0
M  V30 39 H 8.626215 0.175143 3.274501 0
M  V30 40 H 9.164207 -1.451682 3.959096 0
M  V30 41 H 7.927077 -0.434994 4.776913 0
M  V30 42 H 6.673179 1.099869 3.666188 0
M  V30 43 H 4.686630 2.320198 3.052355 0
M  V30 44 H 1.650966 -0.083349 0.338993 0
M  V30 45 H -0.827170 0.692101 1.857947 0
M  V30 46 H -2.930429 1.518705 0.853433 0
M  V30 47 H -2.986427 3.707639 -2.126819 0
M  V30 48 H -3.998039 3.037678 -0.846425 0
M  V30 49 H -3.621732 1.957426 -3.525792 0
M  V30 50 H -4.395882 -0.485030 -3.828739 0
M  V30 51 H -5.836862 0.529968 -3.848527 0
M  V30 52 H -7.681000 -2.933911 -1.900647 0
M  V30 53 H -7.282027 -4.785303 -0.384283 0
M  V30 54 H -3.516451 -6.341049 1.998401 0
M  V30 55 H -1.772292 -4.658819 1.302028 0
M  V30 56 H -3.646779 -1.672027 -1.547642 0
M  V30 57 H -0.724334 2.888697 -2.537210 0
M  V30 58 H 1.309765 2.083501 -1.548603 0
M  V30 59 H 3.307002 -1.139240 0.850221 0
M  V30 60 H 5.313923 -2.376685 1.468741 0
M  V30 END ATOM
M  V30 BEGIN BOND
M  V30 1 1 1 2
M  V30 2 1 2 3
M  V30 3 1 2 4
M  V30 4 2 4 5
M  V30 5 1 5 6
M  V30 6 2 6 7
M  V30 7 1 7 8
M  V30 8 2 8 9
M  V30 9 1 8 10
M  V30 10 1 10 11
M  V30 11 2 11 12
M  V30 12 1 12 13
M  V30 13 2 13 14
M  V30 14 1 14 15
M  V30 15 1 15 16
M  V30 16 1 16 17
M  V30 17 2 17 18
M  V30 18 1 17 19
M  V30 19 1 19 20
M  V30 20 1 20 21
M  V30 21 2 21 22
M  V30 22 1 22 23
M  V30 23 2 23 24
M  V30 24 1 24 25
M  V30 25 2 25 26
M  V30 26 1 25 27
M  V30 27 2 27 28
M  V30 28 1 28 29
M  V30 29 1 29 30
M  V30 30 2 30 31
M  V30 31 1 14 32
M  V30 32 2 32 33
M  V30 33 1 7 34
M  V30 34 2 34 35
M  V30 35 1 35 4
M  V30 36 1 33 11
M  V30 37 1 31 21
M  V30 38 1 30 24
M  V30 39 1 1 36
M  V30 40 1 1 37
M  V30 41 1 1 38
M  V30 42 1 3 39
M  V30 43 1 3 40
M  V30 44 1 3 41
M  V30 45 1 5 42
M  V30 46 1 6 43
M  V30 47 1 10 44
M  V30 48 1 12 45
M  V30 49 1 13 46
M  V30 50 1 15 47
M  V30 51 1 15 48
M  V30 52 1 16 49
M  V30 53 1 19 50
M  V30 54 1 19 51
M  V30 55 1 22 52
M  V30 56 1 23 53
M  V30 57 1 27 54
M  V30 58 1 28 55
M  V30 59 1 31 56
M  V30 60 1 32 57
M  V30 61 1 33 58
M  V30 62 1 34 59
M  V30 63 1 35 60
M  V30 END BOND
M  V30 END CTAB
M  END
>  <Dataset>  (816) 
ChEMBL_Kinases

>  <Ligand_Instance>  (816) 
nan

>  <PDB_ID>  (816) 
nan

>  <Standardized_SMILES>  (816) 
CN(C)c1ccc(C(=O)Nc2ccc(CNC(=O)COc3ccc4c(=O)ccoc4c3)cc2)cc1

>  <Name>  (816) 
nan

>  <Pocket>  (816) 
nan

>  <ATP_Site>  (816) 
nan

>  <Peripheral>  (816) 
nan

>  <Num_H_Atoms_ProtBoundConf>  (816) 
nan

>  <Num_Resolved_Atoms>  (816) 
nan

>  <Num_Not_Resolved_Atoms>  (816) 
nan

$$$$
CHEMBL4444441
     RDKit          3D

  0  0  0  0  0  0  0  0  0  0999 V3000
M  V30 BEGIN CTAB
M  V30 COUNTS 48 51 0 0 0
M  V30 BEGIN ATOM
M  V30 1 C 3.034968 -6.289903 1.394605 0
M  V30 2 N 3.803372 -5.586002 0.389749 0
M  V30 3 N 4.790183 -6.149155 -0.326456 0
M  V30 4 C 5.296477 -5.230059 -1.166094 0
M  V30 5 C 4.597072 -4.060726 -0.959540 0
M  V30 6 Br 4.976931 -2.485869 -1.935529 0
M  V30 7 C 3.676679 -4.313502 0.012549 0
M  V30 8 C 2.715207 -3.327939 0.539840 0
M  V30 9 C 1.706120 -3.278959 1.475879 0
M  V30 10 C 1.072111 -2.076952 1.608776 0
M  V30 11 C 1.404083 -1.028470 0.887055 0
M  V30 12 C 0.922457 0.353094 0.805913 0
M  V30 13 O 1.479958 1.120344 -0.019989 0
M  V30 14 N -0.141371 0.678726 1.686263 0
M  V30 15 C -0.694808 1.994639 1.698603 0 CFG=2
M  V30 16 C -0.650527 2.651032 3.059497 0
M  V30 17 N -1.962898 2.982954 3.557955 0
M  V30 18 C -2.693204 3.860892 2.680769 0
M  V30 19 C -2.678390 3.339505 1.269084 0
M  V30 20 C -2.156938 1.913244 1.301882 0 CFG=1
M  V30 21 C -2.376492 1.223972 0.016840 0
M  V30 22 C -1.874338 1.697817 -1.178130 0
M  V30 23 C -2.070141 1.062765 -2.400481 0
M  V30 24 C -2.806931 -0.104467 -2.416783 0
M  V30 25 C -3.338851 -0.635599 -1.260457 0
M  V30 26 F -4.066448 -1.769537 -1.206303 0
M  V30 27 C -3.113662 0.040721 -0.057275 0
M  V30 28 S 2.733990 -1.628847 -0.138336 0
M  V30 29 H 3.424541 -7.333828 1.533759 0
M  V30 30 H 1.938425 -6.321317 1.155296 0
M  V30 31 H 3.115707 -5.840232 2.405540 0
M  V30 32 H 6.103908 -5.418095 -1.858707 0
M  V30 33 H 1.482206 -4.172439 2.034860 0
M  V30 34 H 0.265446 -1.933110 2.316368 0
M  V30 35 H -0.548472 -0.022735 2.344245 0
M  V30 36 H -0.227097 2.687363 0.986173 0
M  V30 37 H -0.185233 1.961177 3.795157 0
M  V30 38 H -0.069240 3.615396 3.039253 0
M  V30 39 H -2.495636 2.206852 3.961257 0
M  V30 40 H -2.190671 4.866222 2.774115 0
M  V30 41 H -3.723338 3.936326 3.067908 0
M  V30 42 H -1.889205 3.931723 0.735043 0
M  V30 43 H -3.652328 3.404436 0.763913 0
M  V30 44 H -2.665379 1.324313 2.102446 0
M  V30 45 H -1.304596 2.596143 -1.181542 0
M  V30 46 H -1.669953 1.446199 -3.331027 0
M  V30 47 H -3.014140 -0.675541 -3.331763 0
M  V30 48 H -3.535529 -0.379788 0.862547 0
M  V30 END ATOM
M  V30 BEGIN BOND
M  V30 1 1 1 2
M  V30 2 1 2 3
M  V30 3 2 3 4
M  V30 4 1 4 5
M  V30 5 1 5 6
M  V30 6 2 5 7
M  V30 7 1 7 8
M  V30 8 2 8 9
M  V30 9 1 9 10
M  V30 10 2 10 11
M  V30 11 1 11 12
M  V30 12 2 12 13
M  V30 13 1 12 14
M  V30 14 1 14 15
M  V30 15 1 15 16
M  V30 16 1 16 17
M  V30 17 1 17 18
M  V30 18 1 18 19
M  V30 19 1 19 20
M  V30 20 1 20 21
M  V30 21 2 21 22
M  V30 22 1 22 23
M  V30 23 2 23 24
M  V30 24 1 24 25
M  V30 25 1 25 26
M  V30 26 2 25 27
M  V30 27 1 11 28
M  V30 28 1 7 2
M  V30 29 1 28 8
M  V30 30 1 20 15
M  V30 31 1 27 21
M  V30 32 1 1 29
M  V30 33 1 1 30
M  V30 34 1 1 31
M  V30 35 1 4 32
M  V30 36 1 9 33
M  V30 37 1 10 34
M  V30 38 1 14 35
M  V30 39 1 15 36 CFG=3
M  V30 40 1 16 37
M  V30 41 1 16 38
M  V30 42 1 17 39
M  V30 43 1 18 40
M  V30 44 1 18 41
M  V30 45 1 19 42
M  V30 46 1 19 43
M  V30 47 1 20 44 CFG=1
M  V30 48 1 22 45
M  V30 49 1 23 46
M  V30 50 1 24 47
M  V30 51 1 27 48
M  V30 END BOND
M  V30 END CTAB
M  END
>  <Dataset>  (817) 
ChEMBL_Kinases

>  <Ligand_Instance>  (817) 
nan

>  <PDB_ID>  (817) 
nan

>  <Standardized_SMILES>  (817) 
Cn1ncc(Br)c1-c1ccc(C(=O)N[C@@H]2CNCC[C@H]2c2cccc(F)c2)s1

>  <Name>  (817) 
nan

>  <Pocket>  (817) 
nan

>  <ATP_Site>  (817) 
nan

>  <Peripheral>  (817) 
nan

>  <Num_H_Atoms_ProtBoundConf>  (817) 
nan

>  <Num_Resolved_Atoms>  (817) 
nan

>  <Num_Not_Resolved_Atoms>  (817) 
nan

$$$$
CHEMBL4444424
     RDKit          3D

  0  0  0  0  0  0  0  0  0  0999 V3000
M  V30 BEGIN CTAB
M  V30 COUNTS 42 45 0 0 0
M  V30 BEGIN ATOM
M  V30 1 C 2.358850 -2.970150 4.484403 0
M  V30 2 C 2.320877 -2.456664 3.091514 0
M  V30 3 N 3.031499 -2.938064 2.101698 0
M  V30 4 C 2.785276 -2.262072 0.932919 0
M  V30 5 C 3.398328 -2.635641 -0.314435 0
M  V30 6 C 4.484489 -1.773097 -0.862346 0
M  V30 7 C 3.942640 -2.045499 -2.259751 0
M  V30 8 C 2.733282 -2.721266 -1.607985 0
M  V30 9 C 1.860400 -1.308871 1.264364 0
M  V30 10 C 1.173386 -0.306836 0.514224 0
M  V30 11 C 1.382841 0.284783 -0.699214 0
M  V30 12 C 0.629045 1.196894 -1.388924 0
M  V30 13 N -0.524673 1.602458 -0.795197 0
M  V30 14 C -0.838976 1.102153 0.384287 0
M  V30 15 N -2.056696 1.563140 0.948236 0
M  V30 16 C -3.171362 0.772102 0.587048 0
M  V30 17 O -3.282308 -0.253260 -0.133643 0
M  V30 18 C -4.539971 1.097125 1.081232 0
M  V30 19 C -4.747394 1.709660 2.413622 0
M  V30 20 C -4.900286 2.535125 1.177469 0
M  V30 21 C -0.043320 0.200420 1.010392 0
M  V30 22 N 1.597356 -1.458846 2.596342 0
M  V30 23 H 1.504450 -3.626481 4.740451 0
M  V30 24 H 2.260208 -2.095419 5.182536 0
M  V30 25 H 3.340866 -3.430564 4.728757 0
M  V30 26 H 3.862722 -3.705956 -0.156808 0
M  V30 27 H 5.506881 -2.225464 -0.701664 0
M  V30 28 H 4.410302 -0.733490 -0.507290 0
M  V30 29 H 3.709974 -1.081736 -2.774182 0
M  V30 30 H 4.620132 -2.710591 -2.814232 0
M  V30 31 H 2.673338 -3.748999 -2.089482 0
M  V30 32 H 1.826029 -2.205159 -1.869199 0
M  V30 33 H 2.291774 0.015065 -1.189417 0
M  V30 34 H 0.945467 1.564310 -2.349010 0
M  V30 35 H -2.239473 2.378969 1.572951 0
M  V30 36 H -5.337510 0.402557 0.729681 0
M  V30 37 H -5.698227 1.484459 2.945648 0
M  V30 38 H -3.889064 1.899766 3.083554 0
M  V30 39 H -4.110377 3.284770 0.935239 0
M  V30 40 H -5.900154 2.850814 0.811609 0
M  V30 41 H -0.445932 -0.121276 1.988433 0
M  V30 42 H 0.940205 -0.921716 3.237882 0
M  V30 END ATOM
M  V30 BEGIN BOND
M  V30 1 1 1 2
M  V30 2 2 2 3
M  V30 3 1 3 4
M  V30 4 1 4 5
M  V30 5 1 5 6
M  V30 6 1 6 7
M  V30 7 1 7 8
M  V30 8 2 4 9
M  V30 9 1 9 10
M  V30 10 2 10 11
M  V30 11 1 11 12
M  V30 12 2 12 13
M  V30 13 1 13 14
M  V30 14 1 14 15
M  V30 15 1 15 16
M  V30 16 2 16 17
M  V30 17 1 16 18
M  V30 18 1 18 19
M  V30 19 1 19 20
M  V30 20 2 14 21
M  V30 21 1 9 22
M  V30 22 1 22 2
M  V30 23 1 8 5
M  V30 24 1 21 10
M  V30 25 1 20 18
M  V30 26 1 1 23
M  V30 27 1 1 24
M  V30 28 1 1 25
M  V30 29 1 5 26
M  V30 30 1 6 27
M  V30 31 1 6 28
M  V30 32 1 7 29
M  V30 33 1 7 30
M  V30 34 1 8 31
M  V30 35 1 8 32
M  V30 36 1 11 33
M  V30 37 1 12 34
M  V30 38 1 15 35
M  V30 39 1 18 36
M  V30 40 1 19 37
M  V30 41 1 19 38
M  V30 42 1 20 39
M  V30 43 1 20 40
M  V30 44 1 21 41
M  V30 45 1 22 42
M  V30 END BOND
M  V30 END CTAB
M  END
>  <Dataset>  (818) 
ChEMBL_Kinases

>  <Ligand_Instance>  (818) 
nan

>  <PDB_ID>  (818) 
nan

>  <Standardized_SMILES>  (818) 
Cc1nc(C2CCC2)c(-c2ccnc(NC(=O)C3CC3)c2)[nH]1

>  <Name>  (818) 
nan

>  <Pocket>  (818) 
nan

>  <ATP_Site>  (818) 
nan

>  <Peripheral>  (818) 
nan

>  <Num_H_Atoms_ProtBoundConf>  (818) 
nan

>  <Num_Resolved_Atoms>  (818) 
nan

>  <Num_Not_Resolved_Atoms>  (818) 
nan

$$$$
CHEMBL4444364
     RDKit          3D

  0  0  0  0  0  0  0  0  0  0999 V3000
M  V30 BEGIN CTAB
M  V30 COUNTS 58 63 0 0 0
M  V30 BEGIN ATOM
M  V30 1 C 3.442624 -1.302684 4.194145 0
M  V30 2 C 2.363519 -0.897004 3.558289 0
M  V30 3 C 2.384024 0.329266 2.776491 0
M  V30 4 C 3.561999 1.043969 2.725889 0
M  V30 5 N 3.585591 2.178811 2.002940 0
M  V30 6 C 4.730093 3.013587 1.863764 0
M  V30 7 C 5.572612 2.812282 0.775987 0
M  V30 8 Cl 5.170472 1.531540 -0.365727 0
M  V30 9 C 6.696815 3.538785 0.525182 0
M  V30 10 C 6.986258 4.533702 1.435169 0
M  V30 11 C 6.206612 4.805066 2.544332 0
M  V30 12 C 5.067180 4.026941 2.748312 0
M  V30 13 Cl 3.972379 4.232391 4.093370 0
M  V30 14 C 2.512999 2.659396 1.319907 0
M  V30 15 O 2.505267 3.702158 0.645158 0
M  V30 16 C 1.321952 1.962835 1.354274 0
M  V30 17 C 0.196973 2.412820 0.672513 0
M  V30 18 N -0.943689 1.677567 0.749261 0
M  V30 19 C -0.982953 0.532187 1.473875 0
M  V30 20 N -2.253490 -0.101304 1.438815 0
M  V30 21 C -2.499809 -1.075696 0.433914 0
M  V30 22 C -1.530345 -1.432183 -0.465469 0
M  V30 23 C -1.834865 -2.396226 -1.431624 0
M  V30 24 C -3.057504 -3.014048 -1.536003 0
M  V30 25 C -3.982137 -2.605174 -0.598320 0
M  V30 26 C -3.747348 -1.665240 0.374720 0
M  V30 27 C -5.329447 -3.268806 -0.693351 0
M  V30 28 N -5.208246 -4.651648 -1.025834 0
M  V30 29 C -4.861510 -5.514295 0.062356 0
M  V30 30 C -4.471792 -4.964763 -2.199192 0
M  V30 31 C -3.366415 -4.024161 -2.554499 0
M  V30 32 C -2.409697 -4.389323 -3.613518 0
M  V30 33 C -3.507617 -3.425899 -3.979383 0
M  V30 34 N 0.123295 0.108448 2.132132 0
M  V30 35 C 1.278558 0.789520 2.095277 0
M  V30 36 H 4.454558 -0.956473 4.323178 0
M  V30 37 H 3.553869 -2.174359 4.793248 0
M  V30 38 H 1.517795 -1.551630 3.685634 0
M  V30 39 H 4.475879 0.760952 3.226283 0
M  V30 40 H 7.341274 3.364293 -0.331868 0
M  V30 41 H 7.843759 5.173129 1.346723 0
M  V30 42 H 6.417005 5.580583 3.268294 0
M  V30 43 H 0.228602 3.328290 0.093742 0
M  V30 44 H -2.956885 0.159265 2.135703 0
M  V30 45 H -0.562435 -0.963447 -0.406011 0
M  V30 46 H -1.034807 -2.627496 -2.100105 0
M  V30 47 H -4.548150 -1.419557 1.060883 0
M  V30 48 H -5.950284 -2.765282 -1.463598 0
M  V30 49 H -5.793166 -3.186131 0.299244 0
M  V30 50 H -5.104273 -6.570274 -0.242618 0
M  V30 51 H -3.758090 -5.492134 0.194732 0
M  V30 52 H -5.386869 -5.256375 0.995255 0
M  V30 53 H -5.213934 -5.094031 -3.034953 0
M  V30 54 H -4.014305 -5.983930 -2.094550 0
M  V30 55 H -1.404103 -3.927312 -3.615002 0
M  V30 56 H -2.448499 -5.411670 -4.037395 0
M  V30 57 H -4.316514 -3.821360 -4.625057 0
M  V30 58 H -3.288178 -2.365717 -4.117649 0
M  V30 END ATOM
M  V30 BEGIN BOND
M  V30 1 2 1 2
M  V30 2 1 2 3
M  V30 3 2 3 4
M  V30 4 1 4 5
M  V30 5 1 5 6
M  V30 6 2 6 7
M  V30 7 1 7 8
M  V30 8 1 7 9
M  V30 9 2 9 10
M  V30 10 1 10 11
M  V30 11 2 11 12
M  V30 12 1 12 13
M  V30 13 1 5 14
M  V30 14 2 14 15
M  V30 15 1 14 16
M  V30 16 2 16 17
M  V30 17 1 17 18
M  V30 18 2 18 19
M  V30 19 1 19 20
M  V30 20 1 20 21
M  V30 21 2 21 22
M  V30 22 1 22 23
M  V30 23 2 23 24
M  V30 24 1 24 25
M  V30 25 2 25 26
M  V30 26 1 25 27
M  V30 27 1 27 28
M  V30 28 1 28 29
M  V30 29 1 28 30
M  V30 30 1 30 31
M  V30 31 1 31 32
M  V30 32 1 32 33
M  V30 33 1 19 34
M  V30 34 2 34 35
M  V30 35 1 35 3
M  V30 36 1 12 6
M  V30 37 1 35 16
M  V30 38 1 26 21
M  V30 39 1 33 31
M  V30 40 1 31 24
M  V30 41 1 1 36
M  V30 42 1 1 37
M  V30 43 1 2 38
M  V30 44 1 4 39
M  V30 45 1 9 40
M  V30 46 1 10 41
M  V30 47 1 11 42
M  V30 48 1 17 43
M  V30 49 1 20 44
M  V30 50 1 22 45
M  V30 51 1 23 46
M  V30 52 1 26 47
M  V30 53 1 27 48
M  V30 54 1 27 49
M  V30 55 1 29 50
M  V30 56 1 29 51
M  V30 57 1 29 52
M  V30 58 1 30 53
M  V30 59 1 30 54
M  V30 60 1 32 55
M  V30 61 1 32 56
M  V30 62 1 33 57
M  V30 63 1 33 58
M  V30 END BOND
M  V30 END CTAB
M  END
>  <Dataset>  (819) 
ChEMBL_Kinases

>  <Ligand_Instance>  (819) 
nan

>  <PDB_ID>  (819) 
nan

>  <Standardized_SMILES>  (819) 
C=Cc1cn(-c2c(Cl)cccc2Cl)c(=O)c2cnc(Nc3ccc4c(c3)CN(C)CC43CC3)nc12

>  <Name>  (819) 
nan

>  <Pocket>  (819) 
nan

>  <ATP_Site>  (819) 
nan

>  <Peripheral>  (819) 
nan

>  <Num_H_Atoms_ProtBoundConf>  (819) 
nan

>  <Num_Resolved_Atoms>  (819) 
nan

>  <Num_Not_Resolved_Atoms>  (819) 
nan

$$$$
CHEMBL4444340
     RDKit          3D

  0  0  0  0  0  0  0  0  0  0999 V3000
M  V30 BEGIN CTAB
M  V30 COUNTS 43 46 0 0 0
M  V30 BEGIN ATOM
M  V30 1 C 0.384268 -7.391023 1.468497 0
M  V30 2 N -0.215118 -6.105270 1.155237 0
M  V30 3 C -1.666777 -5.875135 1.129801 0
M  V30 4 C -1.802744 -4.462041 0.609068 0
M  V30 5 C -0.536018 -3.821275 1.114495 0
M  V30 6 O -0.586923 -3.600765 2.472227 0
M  V30 7 C -0.179409 -2.624640 0.350094 0
M  V30 8 C 0.135381 -1.634738 -0.274839 0
M  V30 9 C 0.532143 -0.467566 -1.022293 0
M  V30 10 C 0.962430 0.648542 -0.306818 0
M  V30 11 C 1.356637 1.801925 -0.985403 0
M  V30 12 N 1.786406 2.905855 -0.160386 0
M  V30 13 C 2.807871 3.755040 -0.377311 0
M  V30 14 C 2.889907 4.674839 0.650365 0
M  V30 15 C 1.851922 4.349425 1.530428 0
M  V30 16 C 1.489504 4.964242 2.731670 0
M  V30 17 C 0.409641 4.452013 3.434114 0
M  V30 18 C -0.224073 3.364448 2.880555 0
M  V30 19 N -1.342248 2.749643 3.504326 0
M  V30 20 N 0.141544 2.786795 1.720973 0
M  V30 21 C 1.197936 3.258766 0.998059 0
M  V30 22 C 1.311496 1.812983 -2.366928 0
M  V30 23 C 0.878431 0.684408 -3.033349 0
M  V30 24 N 0.496291 -0.432971 -2.382660 0
M  V30 25 C 0.463968 -4.876451 0.827325 0
M  V30 26 O 1.646809 -4.892229 0.403456 0
M  V30 27 H 1.331044 -7.485182 0.892443 0
M  V30 28 H 0.590506 -7.494570 2.566582 0
M  V30 29 H -0.264227 -8.216751 1.138369 0
M  V30 30 H -2.087743 -6.617736 0.444408 0
M  V30 31 H -2.122078 -5.985793 2.128723 0
M  V30 32 H -2.718617 -3.951539 0.966992 0
M  V30 33 H -1.793857 -4.419044 -0.496472 0
M  V30 34 H -0.095377 -2.780997 2.699144 0
M  V30 35 H 0.983583 0.599184 0.791259 0
M  V30 36 H 3.468700 3.702931 -1.255809 0
M  V30 37 H 3.628149 5.487535 0.737753 0
M  V30 38 H 2.017803 5.817813 3.127993 0
M  V30 39 H 0.052608 4.853599 4.367035 0
M  V30 40 H -1.367116 1.755410 3.855398 0
M  V30 41 H -2.327544 2.851832 3.832535 0
M  V30 42 H 1.628713 2.735249 -2.852916 0
M  V30 43 H 0.861141 0.743861 -4.125344 0
M  V30 END ATOM
M  V30 BEGIN BOND
M  V30 1 1 1 2
M  V30 2 1 2 3
M  V30 3 1 3 4
M  V30 4 1 4 5
M  V30 5 1 5 6
M  V30 6 1 5 7
M  V30 7 3 7 8
M  V30 8 1 8 9
M  V30 9 2 9 10
M  V30 10 1 10 11
M  V30 11 1 11 12
M  V30 12 1 12 13
M  V30 13 2 13 14
M  V30 14 1 14 15
M  V30 15 2 15 16
M  V30 16 1 16 17
M  V30 17 2 17 18
M  V30 18 1 18 19
M  V30 19 1 18 20
M  V30 20 2 20 21
M  V30 21 2 11 22
M  V30 22 1 22 23
M  V30 23 2 23 24
M  V30 24 1 5 25
M  V30 25 2 25 26
M  V30 26 1 25 2
M  V30 27 1 24 9
M  V30 28 1 21 12
M  V30 29 1 21 15
M  V30 30 1 1 27
M  V30 31 1 1 28
M  V30 32 1 1 29
M  V30 33 1 3 30
M  V30 34 1 3 31
M  V30 35 1 4 32
M  V30 36 1 4 33
M  V30 37 1 6 34
M  V30 38 1 10 35
M  V30 39 1 13 36
M  V30 40 1 14 37
M  V30 41 1 16 38
M  V30 42 1 17 39
M  V30 43 1 19 40
M  V30 44 1 19 41
M  V30 45 1 22 42
M  V30 46 1 23 43
M  V30 END BOND
M  V30 END CTAB
M  END
>  <Dataset>  (820) 
ChEMBL_Kinases

>  <Ligand_Instance>  (820) 
nan

>  <PDB_ID>  (820) 
nan

>  <Standardized_SMILES>  (820) 
CN1CCC(O)(C#Cc2cc(-n3ccc4ccc(N)nc43)ccn2)C1=O

>  <Name>  (820) 
nan

>  <Pocket>  (820) 
nan

>  <ATP_Site>  (820) 
nan

>  <Peripheral>  (820) 
nan

>  <Num_H_Atoms_ProtBoundConf>  (820) 
nan

>  <Num_Resolved_Atoms>  (820) 
nan

>  <Num_Not_Resolved_Atoms>  (820) 
nan

$$$$
CHEMBL4444307
     RDKit          3D

  0  0  0  0  0  0  0  0  0  0999 V3000
M  V30 BEGIN CTAB
M  V30 COUNTS 43 45 0 0 0
M  V30 BEGIN ATOM
M  V30 1 C -1.563951 -5.764152 2.779626 0
M  V30 2 O -0.285990 -5.696009 2.188950 0
M  V30 3 C 0.068465 -4.551826 1.471225 0
M  V30 4 C -0.701872 -3.425100 1.245799 0
M  V30 5 C -0.152990 -2.390060 0.500597 0
M  V30 6 C 1.121818 -2.460403 -0.010444 0
M  V30 7 N 1.598527 -1.344955 -0.741074 0
M  V30 8 C 1.085902 -0.099557 -1.192890 0
M  V30 9 N 0.979109 0.157022 -2.532381 0
M  V30 10 C 0.484485 1.333818 -2.956850 0
M  V30 11 C 0.092633 2.262952 -2.019917 0
M  V30 12 C 0.187743 2.034320 -0.663005 0
M  V30 13 C -0.252671 3.061545 0.269676 0
M  V30 14 S -0.871417 4.610883 -0.317616 0
M  V30 15 C -1.185089 5.245612 1.406355 0
M  V30 16 O -1.669527 6.401785 1.698554 0
M  V30 17 N -0.773807 4.184651 2.229229 0
M  V30 18 C -0.936380 4.475337 3.640745 0
M  V30 19 C -0.312774 3.108114 1.607336 0
M  V30 20 C 0.109801 1.959861 2.494134 0
M  V30 21 N 0.684188 0.854128 -0.332283 0
M  V30 22 C 1.921766 -3.567847 0.192244 0
M  V30 23 O 3.176827 -3.508623 -0.375582 0
M  V30 24 C 4.164610 -4.488741 -0.318021 0
M  V30 25 C 1.357240 -4.580637 0.933181 0
M  V30 26 H -1.741929 -6.805411 3.171527 0
M  V30 27 H -2.396119 -5.504461 2.116133 0
M  V30 28 H -1.544194 -5.064228 3.647277 0
M  V30 29 H -1.667867 -3.497007 1.695576 0
M  V30 30 H -0.817571 -1.560106 0.376120 0
M  V30 31 H 2.602919 -1.334153 -1.095190 0
M  V30 32 H 0.407138 1.520982 -4.029091 0
M  V30 33 H -0.292362 3.180524 -2.446024 0
M  V30 34 H -0.475398 3.666688 4.241147 0
M  V30 35 H -1.979892 4.663707 3.917186 0
M  V30 36 H -0.378620 5.394488 3.912562 0
M  V30 37 H 0.056415 1.010778 1.928062 0
M  V30 38 H -0.610566 1.813707 3.339934 0
M  V30 39 H 1.135928 2.069424 2.871263 0
M  V30 40 H 3.829566 -5.326128 0.294281 0
M  V30 41 H 5.147921 -4.058871 0.005795 0
M  V30 42 H 4.384174 -4.919378 -1.340992 0
M  V30 43 H 1.988777 -5.442056 1.085637 0
M  V30 END ATOM
M  V30 BEGIN BOND
M  V30 1 1 1 2
M  V30 2 1 2 3
M  V30 3 2 3 4
M  V30 4 1 4 5
M  V30 5 2 5 6
M  V30 6 1 6 7
M  V30 7 1 7 8
M  V30 8 2 8 9
M  V30 9 1 9 10
M  V30 10 2 10 11
M  V30 11 1 11 12
M  V30 12 1 12 13
M  V30 13 1 13 14
M  V30 14 1 14 15
M  V30 15 2 15 16
M  V30 16 1 15 17
M  V30 17 1 17 18
M  V30 18 1 17 19
M  V30 19 1 19 20
M  V30 20 2 12 21
M  V30 21 1 6 22
M  V30 22 1 22 23
M  V30 23 1 23 24
M  V30 24 2 22 25
M  V30 25 1 25 3
M  V30 26 1 21 8
M  V30 27 2 19 13
M  V30 28 1 1 26
M  V30 29 1 1 27
M  V30 30 1 1 28
M  V30 31 1 4 29
M  V30 32 1 5 30
M  V30 33 1 7 31
M  V30 34 1 10 32
M  V30 35 1 11 33
M  V30 36 1 18 34
M  V30 37 1 18 35
M  V30 38 1 18 36
M  V30 39 1 20 37
M  V30 40 1 20 38
M  V30 41 1 20 39
M  V30 42 1 24 40
M  V30 43 1 24 41
M  V30 44 1 24 42
M  V30 45 1 25 43
M  V30 END BOND
M  V30 END CTAB
M  END
>  <Dataset>  (821) 
ChEMBL_Kinases

>  <Ligand_Instance>  (821) 
nan

>  <PDB_ID>  (821) 
nan

>  <Standardized_SMILES>  (821) 
COc1ccc(Nc2nccc(-c3sc(=O)n(C)c3C)n2)c(OC)c1

>  <Name>  (821) 
nan

>  <Pocket>  (821) 
nan

>  <ATP_Site>  (821) 
nan

>  <Peripheral>  (821) 
nan

>  <Num_H_Atoms_ProtBoundConf>  (821) 
nan

>  <Num_Resolved_Atoms>  (821) 
nan

>  <Num_Not_Resolved_Atoms>  (821) 
nan

$$$$
CHEMBL4751230
     RDKit          3D

  0  0  0  0  0  0  0  0  0  0999 V3000
M  V30 BEGIN CTAB
M  V30 COUNTS 55 58 0 0 0
M  V30 BEGIN ATOM
M  V30 1 C 4.445642 -4.420979 2.566374 0
M  V30 2 C 5.026434 -3.173130 1.954731 0
M  V30 3 O 6.104521 -3.359664 1.322567 0
M  V30 4 N 4.420282 -1.877367 2.070576 0
M  V30 5 C 5.090612 -0.747742 1.427121 0 CFG=2
M  V30 6 C 5.391743 0.309340 2.430437 0
M  V30 7 C 4.081607 0.936291 2.850809 0
M  V30 8 C 3.332641 1.531013 1.713606 0
M  V30 9 C 3.095148 0.589618 0.590842 0 CFG=2
M  V30 10 C 1.922237 -0.333123 0.815253 0
M  V30 11 O 1.474038 -1.502871 0.916991 0
M  V30 12 N 0.767988 0.491638 1.001898 0
M  V30 13 C -0.529235 -0.105019 1.241743 0
M  V30 14 C -1.341505 -0.404208 0.148346 0
M  V30 15 C -2.595072 -0.983554 0.384275 0
M  V30 16 C -3.469350 -1.309642 -0.745279 0
M  V30 17 C -3.334503 -2.583036 -1.311969 0
M  V30 18 N -4.240101 -2.612894 -2.311782 0
M  V30 19 N -4.901998 -1.471700 -2.391230 0
M  V30 20 C -4.465528 -0.623584 -1.442434 0
M  V30 21 C -4.841782 0.750346 -1.081261 0
M  V30 22 C -6.124748 1.127508 -1.780086 0
M  V30 23 C -6.852079 -0.080640 -2.322163 0
M  V30 24 C -5.959218 -0.909429 -3.223635 0
M  V30 25 C -2.949134 -1.223339 1.696525 0
M  V30 26 F -4.183304 -1.792251 1.894202 0
M  V30 27 C -2.140501 -0.925072 2.777915 0
M  V30 28 N -0.924075 -0.361345 2.525562 0
M  V30 29 C 4.263028 -0.307683 0.279973 0
M  V30 30 H 3.814471 -4.144739 3.449073 0
M  V30 31 H 3.770636 -4.924650 1.849005 0
M  V30 32 H 5.244349 -5.118034 2.851839 0
M  V30 33 H 3.560858 -1.925526 2.618117 0
M  V30 34 H 6.036199 -1.182201 0.981406 0
M  V30 35 H 6.062814 1.069189 1.976607 0
M  V30 36 H 5.834582 -0.163884 3.325604 0
M  V30 37 H 4.372742 1.781415 3.540674 0
M  V30 38 H 3.526196 0.217093 3.446932 0
M  V30 39 H 2.331823 1.854630 2.131001 0
M  V30 40 H 3.801387 2.466073 1.324034 0
M  V30 41 H 2.860380 1.242542 -0.312076 0
M  V30 42 H 0.553296 1.535537 1.018520 0
M  V30 43 H -0.991356 -0.185932 -0.837919 0
M  V30 44 H -2.704900 -3.433413 -1.105054 0
M  V30 45 H -5.014638 0.884549 0.005433 0
M  V30 46 H -4.076978 1.500409 -1.372809 0
M  V30 47 H -5.920326 1.829580 -2.638875 0
M  V30 48 H -6.833308 1.639935 -1.087241 0
M  V30 49 H -7.217901 -0.681356 -1.472451 0
M  V30 50 H -7.735196 0.283416 -2.875887 0
M  V30 51 H -6.621836 -1.699390 -3.653424 0
M  V30 52 H -5.551057 -0.318943 -4.043293 0
M  V30 53 H -2.451753 -1.127779 3.800355 0
M  V30 54 H 3.841986 -1.182978 -0.302725 0
M  V30 55 H 4.888824 0.216039 -0.509503 0
M  V30 END ATOM
M  V30 BEGIN BOND
M  V30 1 1 1 2
M  V30 2 2 2 3
M  V30 3 1 2 4
M  V30 4 1 4 5
M  V30 5 1 5 6
M  V30 6 1 6 7
M  V30 7 1 7 8
M  V30 8 1 8 9
M  V30 9 1 9 10
M  V30 10 2 10 11
M  V30 11 1 10 12
M  V30 12 1 12 13
M  V30 13 2 13 14
M  V30 14 1 14 15
M  V30 15 1 15 16
M  V30 16 1 16 17
M  V30 17 2 17 18
M  V30 18 1 18 19
M  V30 19 1 19 20
M  V30 20 1 20 21
M  V30 21 1 21 22
M  V30 22 1 22 23
M  V30 23 1 23 24
M  V30 24 2 15 25
M  V30 25 1 25 26
M  V30 26 1 25 27
M  V30 27 2 27 28
M  V30 28 1 9 29
M  V30 29 1 29 5
M  V30 30 1 28 13
M  V30 31 2 20 16
M  V30 32 1 24 19
M  V30 33 1 1 30
M  V30 34 1 1 31
M  V30 35 1 1 32
M  V30 36 1 4 33
M  V30 37 1 5 34 CFG=3
M  V30 38 1 6 35
M  V30 39 1 6 36
M  V30 40 1 7 37
M  V30 41 1 7 38
M  V30 42 1 8 39
M  V30 43 1 8 40
M  V30 44 1 9 41 CFG=3
M  V30 45 1 12 42
M  V30 46 1 14 43
M  V30 47 1 17 44
M  V30 48 1 21 45
M  V30 49 1 21 46
M  V30 50 1 22 47
M  V30 51 1 22 48
M  V30 52 1 23 49
M  V30 53 1 23 50
M  V30 54 1 24 51
M  V30 55 1 24 52
M  V30 56 1 27 53
M  V30 57 1 29 54
M  V30 58 1 29 55
M  V30 END BOND
M  V30 END CTAB
M  END
>  <Dataset>  (822) 
ChEMBL_Kinases

>  <Ligand_Instance>  (822) 
nan

>  <PDB_ID>  (822) 
nan

>  <Standardized_SMILES>  (822) 
CC(=O)N[C@@H]1CCC[C@H](C(=O)Nc2cc(-c3cnn4c3CCCC4)c(F)cn2)C1

>  <Name>  (822) 
nan

>  <Pocket>  (822) 
nan

>  <ATP_Site>  (822) 
nan

>  <Peripheral>  (822) 
nan

>  <Num_H_Atoms_ProtBoundConf>  (822) 
nan

>  <Num_Resolved_Atoms>  (822) 
nan

>  <Num_Not_Resolved_Atoms>  (822) 
nan

$$$$
CHEMBL4444269
     RDKit          3D

  0  0  0  0  0  0  0  0  0  0999 V3000
M  V30 BEGIN CTAB
M  V30 COUNTS 53 56 0 0 0
M  V30 BEGIN ATOM
M  V30 1 C -0.282413 -5.008709 1.637153 0
M  V30 2 N 0.658302 -5.085301 0.536962 0
M  V30 3 C 1.356512 -3.900848 0.171454 0
M  V30 4 N 1.151032 -2.736815 0.808606 0
M  V30 5 C 1.817738 -1.600997 0.442723 0
M  V30 6 N 1.429676 -0.515269 1.266269 0
M  V30 7 C 0.287449 0.192500 0.807530 0
M  V30 8 C -0.341084 -0.131821 -0.370587 0
M  V30 9 N -1.433363 0.549070 -0.785141 0
M  V30 10 C -1.925144 1.559030 -0.048600 0
M  V30 11 C -3.074619 2.215620 -0.563140 0
M  V30 12 N -4.028905 2.740973 -0.979307 0
M  V30 13 C -1.345613 1.950032 1.158609 0
M  V30 14 O -1.949302 2.988887 1.801130 0
M  V30 15 C -1.603611 3.588798 3.006519 0
M  V30 16 C -2.636694 3.379212 4.092878 0
M  V30 17 C -3.921178 4.111811 3.803263 0
M  V30 18 N -3.784230 5.188515 2.891272 0
M  V30 19 C -2.549422 5.879370 2.891464 0
M  V30 20 C -1.314601 5.054141 2.927435 0
M  V30 21 C -0.235011 1.230269 1.543386 0
M  V30 22 N 2.682708 -1.690121 -0.573256 0
M  V30 23 C 2.910682 -2.849298 -1.233815 0
M  V30 24 C 2.238519 -4.028854 -0.876153 0
M  V30 25 C 2.565433 -5.222995 -1.643794 0
M  V30 26 C 2.893312 -6.517383 -1.303398 0
M  V30 27 N 3.092435 -7.214294 -2.460532 0
M  V30 28 N 2.899037 -6.395740 -3.498925 0
M  V30 29 C 3.093317 -7.071221 -4.768826 0
M  V30 30 C 2.574265 -5.166311 -3.031349 0
M  V30 31 H -0.275236 -4.015598 2.124078 0
M  V30 32 H -0.138871 -5.819354 2.378366 0
M  V30 33 H -1.301257 -5.123647 1.203389 0
M  V30 34 H 0.766205 -6.008698 0.072037 0
M  V30 35 H 1.903775 -0.213278 2.145092 0
M  V30 36 H 0.041622 -0.954140 -0.991105 0
M  V30 37 H -0.680331 3.076810 3.394315 0
M  V30 38 H -2.809980 2.300949 4.301110 0
M  V30 39 H -2.211475 3.808733 5.024052 0
M  V30 40 H -4.622735 3.370587 3.361136 0
M  V30 41 H -4.410502 4.484605 4.726841 0
M  V30 42 H -4.250234 5.077117 1.978613 0
M  V30 43 H -2.537517 6.532514 1.970003 0
M  V30 44 H -2.536178 6.593935 3.737757 0
M  V30 45 H -0.639351 5.293038 2.056403 0
M  V30 46 H -0.705727 5.312567 3.832738 0
M  V30 47 H 0.218323 1.516223 2.461910 0
M  V30 48 H 3.645622 -2.749071 -2.036507 0
M  V30 49 H 2.962737 -6.842438 -0.274837 0
M  V30 50 H 3.005231 -6.344739 -5.585480 0
M  V30 51 H 4.145959 -7.455117 -4.818979 0
M  V30 52 H 2.395279 -7.922873 -4.859105 0
M  V30 53 H 2.395481 -4.424355 -3.784057 0
M  V30 END ATOM
M  V30 BEGIN BOND
M  V30 1 1 1 2
M  V30 2 1 2 3
M  V30 3 2 3 4
M  V30 4 1 4 5
M  V30 5 1 5 6
M  V30 6 1 6 7
M  V30 7 2 7 8
M  V30 8 1 8 9
M  V30 9 2 9 10
M  V30 10 1 10 11
M  V30 11 3 11 12
M  V30 12 1 10 13
M  V30 13 1 13 14
M  V30 14 1 14 15
M  V30 15 1 15 16
M  V30 16 1 16 17
M  V30 17 1 17 18
M  V30 18 1 18 19
M  V30 19 1 19 20
M  V30 20 2 13 21
M  V30 21 2 5 22
M  V30 22 1 22 23
M  V30 23 2 23 24
M  V30 24 1 24 25
M  V30 25 1 25 26
M  V30 26 2 26 27
M  V30 27 1 27 28
M  V30 28 1 28 29
M  V30 29 1 28 30
M  V30 30 1 24 3
M  V30 31 2 30 25
M  V30 32 1 21 7
M  V30 33 1 20 15
M  V30 34 1 1 31
M  V30 35 1 1 32
M  V30 36 1 1 33
M  V30 37 1 2 34
M  V30 38 1 6 35
M  V30 39 1 8 36
M  V30 40 1 15 37
M  V30 41 1 16 38
M  V30 42 1 16 39
M  V30 43 1 17 40
M  V30 44 1 17 41
M  V30 45 1 18 42
M  V30 46 1 19 43
M  V30 47 1 19 44
M  V30 48 1 20 45
M  V30 49 1 20 46
M  V30 50 1 21 47
M  V30 51 1 23 48
M  V30 52 1 26 49
M  V30 53 1 29 50
M  V30 54 1 29 51
M  V30 55 1 29 52
M  V30 56 1 30 53
M  V30 END BOND
M  V30 END CTAB
M  END
>  <Dataset>  (823) 
ChEMBL_Kinases

>  <Ligand_Instance>  (823) 
nan

>  <PDB_ID>  (823) 
nan

>  <Standardized_SMILES>  (823) 
CNc1nc(Nc2cnc(C#N)c(OC3CCNCC3)c2)ncc1-c1cnn(C)c1

>  <Name>  (823) 
nan

>  <Pocket>  (823) 
nan

>  <ATP_Site>  (823) 
nan

>  <Peripheral>  (823) 
nan

>  <Num_H_Atoms_ProtBoundConf>  (823) 
nan

>  <Num_Resolved_Atoms>  (823) 
nan

>  <Num_Not_Resolved_Atoms>  (823) 
nan

$$$$
CHEMBL4444190
     RDKit          3D

  0  0  0  0  0  0  0  0  0  0999 V3000
M  V30 BEGIN CTAB
M  V30 COUNTS 55 58 0 0 0
M  V30 BEGIN ATOM
M  V30 1 C -1.425343 -5.500018 4.241088 0
M  V30 2 C -0.958183 -4.360075 3.426426 0
M  V30 3 C 0.301178 -3.778380 3.501151 0
M  V30 4 C 0.664360 -2.703330 2.695231 0
M  V30 5 O 1.986530 -2.357994 3.015686 0
M  V30 6 C -0.262903 -2.184133 1.776017 0
M  V30 7 C 0.477104 -1.118726 1.154366 0
M  V30 8 C 1.301626 -1.224289 0.002750 0
M  V30 9 C 2.023655 -0.131777 -0.434209 0
M  V30 10 C 1.927882 1.052934 0.264979 0
M  V30 11 C 2.739064 2.199992 -0.263699 0 CFG=1
M  V30 12 C 4.188533 1.794759 -0.090567 0
M  V30 13 C 2.453686 2.440101 -1.719262 0
M  V30 14 N 1.093343 2.753335 -2.001502 0
M  V30 15 C 0.647026 4.013304 -1.510937 0
M  V30 16 C 0.681666 2.449486 -3.340236 0
M  V30 17 C 1.152991 1.240366 1.389815 0
M  V30 18 C 0.441014 0.136993 1.808154 0
M  V30 19 C -1.476696 -2.767865 1.725436 0
M  V30 20 C -1.837740 -3.823045 2.514081 0
M  V30 21 N -3.071787 -4.335901 2.388099 0
M  V30 22 C -3.969549 -3.852676 1.515770 0
M  V30 23 O -5.107332 -4.380910 1.449915 0
M  V30 24 C -3.589637 -2.782257 0.722806 0
M  V30 25 C -4.514930 -2.308909 -0.150966 0
M  V30 26 C -4.138806 -1.244062 -0.937587 0
M  V30 27 C -2.878308 -0.633254 -0.887370 0
M  V30 28 C -2.041439 -1.209351 0.037175 0
M  V30 29 C -2.345379 -2.248749 0.834858 0
M  V30 30 H -0.705687 -5.702105 5.058041 0
M  V30 31 H -2.393534 -5.269679 4.773642 0
M  V30 32 H -1.493066 -6.432994 3.652878 0
M  V30 33 H 0.901081 -4.284102 4.250529 0
M  V30 34 H 2.751882 -2.509085 2.366538 0
M  V30 35 H 1.288945 -2.201285 -0.452171 0
M  V30 36 H 2.636328 -0.256587 -1.312092 0
M  V30 37 H 2.576721 3.091960 0.362431 0
M  V30 38 H 4.542920 1.205031 -0.958535 0
M  V30 39 H 4.275136 1.209259 0.853506 0
M  V30 40 H 4.773438 2.724010 0.051469 0
M  V30 41 H 2.845775 1.607146 -2.334201 0
M  V30 42 H 3.060516 3.324008 -2.023094 0
M  V30 43 H -0.320835 4.017499 -0.993029 0
M  V30 44 H 0.482499 4.661512 -2.419347 0
M  V30 45 H 1.436023 4.564072 -0.942786 0
M  V30 46 H -0.219380 1.802820 -3.274942 0
M  V30 47 H 1.451675 1.824819 -3.867317 0
M  V30 48 H 0.417710 3.339230 -3.937464 0
M  V30 49 H 1.084977 2.173268 1.930558 0
M  V30 50 H -0.175561 0.281702 2.701688 0
M  V30 51 H -3.367609 -5.147611 2.986075 0
M  V30 52 H -5.491385 -2.755890 -0.213917 0
M  V30 53 H -4.906959 -0.893592 -1.624475 0
M  V30 54 H -2.785744 0.184857 -1.586061 0
M  V30 55 H -1.182408 -0.634763 -0.068147 0
M  V30 END ATOM
M  V30 BEGIN BOND
M  V30 1 1 1 2
M  V30 2 2 2 3
M  V30 3 1 3 4
M  V30 4 1 4 5
M  V30 5 2 4 6
M  V30 6 1 6 7
M  V30 7 2 7 8
M  V30 8 1 8 9
M  V30 9 2 9 10
M  V30 10 1 10 11
M  V30 11 1 11 12
M  V30 12 1 11 13
M  V30 13 1 13 14
M  V30 14 1 14 15
M  V30 15 1 14 16
M  V30 16 1 10 17
M  V30 17 2 17 18
M  V30 18 1 6 19
M  V30 19 2 19 20
M  V30 20 1 20 21
M  V30 21 1 21 22
M  V30 22 2 22 23
M  V30 23 1 22 24
M  V30 24 2 24 25
M  V30 25 1 25 26
M  V30 26 2 26 27
M  V30 27 1 27 28
M  V30 28 2 28 29
M  V30 29 1 20 2
M  V30 30 1 29 24
M  V30 31 1 18 7
M  V30 32 1 29 19
M  V30 33 1 1 30
M  V30 34 1 1 31
M  V30 35 1 1 32
M  V30 36 1 3 33
M  V30 37 1 5 34
M  V30 38 1 8 35
M  V30 39 1 9 36
M  V30 40 1 11 37 CFG=1
M  V30 41 1 12 38
M  V30 42 1 12 39
M  V30 43 1 12 40
M  V30 44 1 13 41
M  V30 45 1 13 42
M  V30 46 1 15 43
M  V30 47 1 15 44
M  V30 48 1 15 45
M  V30 49 1 16 46
M  V30 50 1 16 47
M  V30 51 1 16 48
M  V30 52 1 17 49
M  V30 53 1 18 50
M  V30 54 1 21 51
M  V30 55 1 25 52
M  V30 56 1 26 53
M  V30 57 1 27 54
M  V30 58 1 28 55
M  V30 END BOND
M  V30 END CTAB
M  END
>  <Dataset>  (824) 
ChEMBL_Kinases

>  <Ligand_Instance>  (824) 
nan

>  <PDB_ID>  (824) 
nan

>  <Standardized_SMILES>  (824) 
Cc1cc(O)c(-c2ccc([C@@H](C)CN(C)C)cc2)c2c1[nH]c(=O)c1ccccc12

>  <Name>  (824) 
nan

>  <Pocket>  (824) 
nan

>  <ATP_Site>  (824) 
nan

>  <Peripheral>  (824) 
nan

>  <Num_H_Atoms_ProtBoundConf>  (824) 
nan

>  <Num_Resolved_Atoms>  (824) 
nan

>  <Num_Not_Resolved_Atoms>  (824) 
nan

$$$$
CHEMBL4444157
     RDKit          3D

  0  0  0  0  0  0  0  0  0  0999 V3000
M  V30 BEGIN CTAB
M  V30 COUNTS 41 44 0 0 0
M  V30 BEGIN ATOM
M  V30 1 C 1.642131 -4.090748 2.566931 0
M  V30 2 C 1.840744 -4.102989 1.071203 0
M  V30 3 O 3.032644 -4.666368 0.686675 0
M  V30 4 C 1.859097 -2.736024 0.507714 0
M  V30 5 C 1.853385 -1.611394 0.048621 0
M  V30 6 C 1.824781 -0.281502 -0.506828 0
M  V30 7 C 2.310306 -0.008605 -1.784117 0
M  V30 8 C 2.229838 1.302010 -2.207740 0
M  V30 9 F 2.703523 1.558842 -3.449454 0
M  V30 10 C 1.706414 2.313657 -1.442632 0
M  V30 11 C 1.230851 2.011013 -0.174988 0
M  V30 12 C 0.648656 3.029687 0.725944 0
M  V30 13 C 1.023844 4.319410 1.090447 0
M  V30 14 N 0.096212 4.773807 1.958405 0
M  V30 15 C -0.848164 3.853842 2.170638 0
M  V30 16 C -1.961672 3.934302 2.986706 0
M  V30 17 N -2.753155 2.837134 3.006196 0
M  V30 18 C -2.440017 1.751749 2.260611 0
M  V30 19 N -3.258798 0.579527 2.262696 0
M  V30 20 N -1.356247 1.688191 1.473504 0
M  V30 21 C -0.535594 2.741145 1.412188 0
M  V30 22 C 1.297774 0.706341 0.277910 0
M  V30 23 C 0.639748 -4.852376 0.523871 0
M  V30 24 N -0.447341 -4.700368 0.139208 0
M  V30 25 C -1.281796 -5.625102 -0.295293 0
M  V30 26 C -0.825334 -6.933748 -0.300202 0
M  V30 27 S 0.913864 -6.689425 0.380387 0
M  V30 28 H 2.627032 -4.011325 3.102995 0
M  V30 29 H 1.070135 -4.964301 2.888880 0
M  V30 30 H 1.095078 -3.154595 2.819342 0
M  V30 31 H 3.346819 -5.301223 1.364329 0
M  V30 32 H 2.712469 -0.831651 -2.350496 0
M  V30 33 H 1.653727 3.317487 -1.788274 0
M  V30 34 H 1.911251 4.735707 0.673388 0
M  V30 35 H 0.184084 5.729836 2.361350 0
M  V30 36 H -2.192265 4.813165 3.574396 0
M  V30 37 H -2.783654 -0.356352 2.338443 0
M  V30 38 H -4.245147 0.266215 2.212887 0
M  V30 39 H 0.918438 0.487216 1.278611 0
M  V30 40 H -2.259701 -5.217672 -0.605125 0
M  V30 41 H -1.631128 -7.710565 -0.704245 0
M  V30 END ATOM
M  V30 BEGIN BOND
M  V30 1 1 1 2
M  V30 2 1 2 3
M  V30 3 1 2 4
M  V30 4 3 4 5
M  V30 5 1 5 6
M  V30 6 2 6 7
M  V30 7 1 7 8
M  V30 8 1 8 9
M  V30 9 2 8 10
M  V30 10 1 10 11
M  V30 11 1 11 12
M  V30 12 2 12 13
M  V30 13 1 13 14
M  V30 14 1 14 15
M  V30 15 2 15 16
M  V30 16 1 16 17
M  V30 17 2 17 18
M  V30 18 1 18 19
M  V30 19 1 18 20
M  V30 20 2 20 21
M  V30 21 2 11 22
M  V30 22 1 2 23
M  V30 23 2 23 24
M  V30 24 1 24 25
M  V30 25 2 25 26
M  V30 26 1 26 27
M  V30 27 1 22 6
M  V30 28 1 27 23
M  V30 29 1 21 12
M  V30 30 1 21 15
M  V30 31 1 1 28
M  V30 32 1 1 29
M  V30 33 1 1 30
M  V30 34 1 3 31
M  V30 35 1 7 32
M  V30 36 1 10 33
M  V30 37 1 13 34
M  V30 38 1 14 35
M  V30 39 1 16 36
M  V30 40 1 19 37
M  V30 41 1 19 38
M  V30 42 1 22 39
M  V30 43 1 25 40
M  V30 44 1 26 41
M  V30 END BOND
M  V30 END CTAB
M  END
>  <Dataset>  (825) 
ChEMBL_Kinases

>  <Ligand_Instance>  (825) 
nan

>  <PDB_ID>  (825) 
nan

>  <Standardized_SMILES>  (825) 
CC(O)(C#Cc1cc(F)cc(-c2c[nH]c3cnc(N)nc23)c1)c1nccs1

>  <Name>  (825) 
nan

>  <Pocket>  (825) 
nan

>  <ATP_Site>  (825) 
nan

>  <Peripheral>  (825) 
nan

>  <Num_H_Atoms_ProtBoundConf>  (825) 
nan

>  <Num_Resolved_Atoms>  (825) 
nan

>  <Num_Not_Resolved_Atoms>  (825) 
nan

$$$$
CHEMBL4444153
     RDKit          3D

  0  0  0  0  0  0  0  0  0  0999 V3000
M  V30 BEGIN CTAB
M  V30 COUNTS 47 50 0 0 0
M  V30 BEGIN ATOM
M  V30 1 C -0.393033 -4.630852 0.818375 0
M  V30 2 C 0.919858 -4.099266 1.358519 0
M  V30 3 C 0.688665 -3.686177 2.794850 0
M  V30 4 N 1.403582 -3.019031 0.531143 0
M  V30 5 C 1.574650 -1.732016 0.805137 0
M  V30 6 C 2.066279 -1.053095 -0.287598 0
M  V30 7 C 2.429136 0.331676 -0.551419 0
M  V30 8 N 3.610732 0.611692 -1.177997 0
M  V30 9 N 3.780598 1.894346 -1.339101 0
M  V30 10 C 2.715468 2.528209 -0.825070 0
M  V30 11 C 2.319471 3.856810 -0.697721 0
M  V30 12 C 1.092622 4.125066 -0.080944 0
M  V30 13 N 0.298064 3.117867 0.386833 0
M  V30 14 C 0.673625 1.811407 0.268767 0
M  V30 15 O -0.165117 0.791451 0.758698 0
M  V30 16 C -1.363454 1.264041 1.347991 0
M  V30 17 C -1.544563 0.927233 2.781366 0
M  V30 18 C -2.469592 -0.269428 2.911861 0
M  V30 19 C -2.194439 -1.245144 1.787105 0
M  V30 20 C -2.575901 -0.653983 0.447128 0
M  V30 21 C -2.510471 0.850900 0.479174 0
M  V30 22 C 1.875088 1.548407 -0.334917 0
M  V30 23 C 2.171046 -2.072237 -1.245265 0
M  V30 24 N 1.764968 -3.241684 -0.721355 0
M  V30 25 H -1.102328 -4.918436 1.631482 0
M  V30 26 H -0.888504 -3.798644 0.248476 0
M  V30 27 H -0.254760 -5.456408 0.088005 0
M  V30 28 H 1.642914 -4.945858 1.336174 0
M  V30 29 H 1.284867 -2.791644 3.074343 0
M  V30 30 H -0.391506 -3.470533 2.910248 0
M  V30 31 H 0.892670 -4.539359 3.487292 0
M  V30 32 H 1.371827 -1.239653 1.744888 0
M  V30 33 H 4.602157 2.364855 -1.790417 0
M  V30 34 H 2.970245 4.621676 -1.077272 0
M  V30 35 H 0.800693 5.163516 0.009167 0
M  V30 36 H -1.294617 2.384851 1.259527 0
M  V30 37 H -0.595646 0.777352 3.331269 0
M  V30 38 H -2.077281 1.765062 3.279350 0
M  V30 39 H -2.285505 -0.778944 3.857235 0
M  V30 40 H -3.535674 0.018427 2.848091 0
M  V30 41 H -1.127292 -1.469589 1.820265 0
M  V30 42 H -2.835883 -2.131694 1.954586 0
M  V30 43 H -1.889922 -1.070581 -0.323205 0
M  V30 44 H -3.604059 -0.979624 0.174869 0
M  V30 45 H -2.311412 1.286898 -0.536173 0
M  V30 46 H -3.475605 1.264005 0.849670 0
M  V30 47 H 2.527428 -1.956140 -2.271833 0
M  V30 END ATOM
M  V30 BEGIN BOND
M  V30 1 1 1 2
M  V30 2 1 2 3
M  V30 3 1 2 4
M  V30 4 1 4 5
M  V30 5 2 5 6
M  V30 6 1 6 7
M  V30 7 2 7 8
M  V30 8 1 8 9
M  V30 9 1 9 10
M  V30 10 2 10 11
M  V30 11 1 11 12
M  V30 12 2 12 13
M  V30 13 1 13 14
M  V30 14 1 14 15
M  V30 15 1 15 16
M  V30 16 1 16 17
M  V30 17 1 17 18
M  V30 18 1 18 19
M  V30 19 1 19 20
M  V30 20 1 20 21
M  V30 21 2 14 22
M  V30 22 1 6 23
M  V30 23 2 23 24
M  V30 24 1 24 4
M  V30 25 1 22 7
M  V30 26 1 22 10
M  V30 27 1 21 16
M  V30 28 1 1 25
M  V30 29 1 1 26
M  V30 30 1 1 27
M  V30 31 1 2 28
M  V30 32 1 3 29
M  V30 33 1 3 30
M  V30 34 1 3 31
M  V30 35 1 5 32
M  V30 36 1 9 33
M  V30 37 1 11 34
M  V30 38 1 12 35
M  V30 39 1 16 36
M  V30 40 1 17 37
M  V30 41 1 17 38
M  V30 42 1 18 39
M  V30 43 1 18 40
M  V30 44 1 19 41
M  V30 45 1 19 42
M  V30 46 1 20 43
M  V30 47 1 20 44
M  V30 48 1 21 45
M  V30 49 1 21 46
M  V30 50 1 23 47
M  V30 END BOND
M  V30 END CTAB
M  END
>  <Dataset>  (826) 
ChEMBL_Kinases

>  <Ligand_Instance>  (826) 
nan

>  <PDB_ID>  (826) 
nan

>  <Standardized_SMILES>  (826) 
CC(C)n1cc(-c2n[nH]c3ccnc(OC4CCCCC4)c23)cn1

>  <Name>  (826) 
nan

>  <Pocket>  (826) 
nan

>  <ATP_Site>  (826) 
nan

>  <Peripheral>  (826) 
nan

>  <Num_H_Atoms_ProtBoundConf>  (826) 
nan

>  <Num_Resolved_Atoms>  (826) 
nan

>  <Num_Not_Resolved_Atoms>  (826) 
nan

$$$$
CHEMBL4751159
     RDKit          3D

  0  0  0  0  0  0  0  0  0  0999 V3000
M  V30 BEGIN CTAB
M  V30 COUNTS 52 55 0 0 0
M  V30 BEGIN ATOM
M  V30 1 N -5.257959 -1.207775 -1.476484 0
M  V30 2 C -3.855794 -0.894837 -1.331292 0
M  V30 3 N -3.171806 -0.211891 -2.266466 0
M  V30 4 C -1.844398 0.067912 -2.093749 0
M  V30 5 C -1.195347 -0.351145 -0.952360 0
M  V30 6 C 0.203212 -0.112191 -0.616182 0
M  V30 7 C 0.973392 -1.008794 0.140334 0
M  V30 8 N 2.198342 -0.490671 0.298856 0
M  V30 9 N 2.278986 0.696724 -0.312107 0
M  V30 10 C 3.505101 1.470869 -0.275372 0
M  V30 11 C 4.092792 1.353895 1.138667 0
M  V30 12 C 3.135989 2.140294 2.049721 0
M  V30 13 N 3.346898 3.541608 1.849412 0
M  V30 14 C 3.814921 3.847467 0.525281 0
M  V30 15 C 3.150472 2.934714 -0.461439 0
M  V30 16 C 1.077136 0.924151 -0.863667 0
M  V30 17 C -1.965059 -1.059373 -0.013805 0
M  V30 18 C -3.336490 -1.373597 -0.146848 0
M  V30 19 O -3.999886 -2.066119 0.829378 0
M  V30 20 C -3.329355 -2.518224 1.975868 0
M  V30 21 C -2.270201 -3.487670 1.628843 0
M  V30 22 C -2.492513 -4.226093 0.491199 0
M  V30 23 C -1.640749 -5.175055 -0.051484 0
M  V30 24 C -0.471203 -5.341588 0.677146 0
M  V30 25 C -0.162389 -4.645539 1.830984 0
M  V30 26 C -1.083889 -3.723696 2.283519 0
M  V30 27 C -0.819267 -2.965648 3.510385 0
M  V30 28 F -1.851918 -3.255450 4.408251 0
M  V30 29 F -0.676536 -1.636220 3.430999 0
M  V30 30 F 0.326173 -3.474743 4.153186 0
M  V30 31 H -6.160036 -0.871343 -1.087973 0
M  V30 32 H -5.897887 -0.604728 -0.875275 0
M  V30 33 H -1.269282 0.610068 -2.825775 0
M  V30 34 H 0.679207 -1.975565 0.556253 0
M  V30 35 H 4.239514 1.102486 -1.023761 0
M  V30 36 H 4.152598 0.325772 1.491741 0
M  V30 37 H 5.038562 1.926058 1.140971 0
M  V30 38 H 2.073977 1.894611 1.802790 0
M  V30 39 H 3.362847 1.794942 3.082235 0
M  V30 40 H 2.563915 4.103334 2.188823 0
M  V30 41 H 4.920864 3.855309 0.436973 0
M  V30 42 H 3.435393 4.877751 0.267260 0
M  V30 43 H 3.329012 3.244200 -1.517818 0
M  V30 44 H 2.049620 3.064625 -0.309130 0
M  V30 45 H 0.820178 1.795755 -1.427028 0
M  V30 46 H -1.429779 -1.345396 0.860717 0
M  V30 47 H -2.948539 -1.678719 2.602205 0
M  V30 48 H -4.076207 -3.013001 2.625857 0
M  V30 49 H -3.411640 -4.122049 -0.108599 0
M  V30 50 H -1.811441 -5.755579 -0.945476 0
M  V30 51 H 0.262551 -6.068822 0.319352 0
M  V30 52 H 0.762259 -4.807565 2.368574 0
M  V30 END ATOM
M  V30 BEGIN BOND
M  V30 1 1 1 2
M  V30 2 2 2 3
M  V30 3 1 3 4
M  V30 4 2 4 5
M  V30 5 1 5 6
M  V30 6 1 6 7
M  V30 7 2 7 8
M  V30 8 1 8 9
M  V30 9 1 9 10
M  V30 10 1 10 11
M  V30 11 1 11 12
M  V30 12 1 12 13
M  V30 13 1 13 14
M  V30 14 1 14 15
M  V30 15 1 9 16
M  V30 16 1 5 17
M  V30 17 2 17 18
M  V30 18 1 18 19
M  V30 19 1 19 20
M  V30 20 1 20 21
M  V30 21 2 21 22
M  V30 22 1 22 23
M  V30 23 2 23 24
M  V30 24 1 24 25
M  V30 25 2 25 26
M  V30 26 1 26 27
M  V30 27 1 27 28
M  V30 28 1 27 29
M  V30 29 1 27 30
M  V30 30 1 18 2
M  V30 31 1 26 21
M  V30 32 2 16 6
M  V30 33 1 15 10
M  V30 34 1 1 31
M  V30 35 1 1 32
M  V30 36 1 4 33
M  V30 37 1 7 34
M  V30 38 1 10 35
M  V30 39 1 11 36
M  V30 40 1 11 37
M  V30 41 1 12 38
M  V30 42 1 12 39
M  V30 43 1 13 40
M  V30 44 1 14 41
M  V30 45 1 14 42
M  V30 46 1 15 43
M  V30 47 1 15 44
M  V30 48 1 16 45
M  V30 49 1 17 46
M  V30 50 1 20 47
M  V30 51 1 20 48
M  V30 52 1 22 49
M  V30 53 1 23 50
M  V30 54 1 24 51
M  V30 55 1 25 52
M  V30 END BOND
M  V30 END CTAB
M  END
>  <Dataset>  (827) 
ChEMBL_Kinases

>  <Ligand_Instance>  (827) 
nan

>  <PDB_ID>  (827) 
nan

>  <Standardized_SMILES>  (827) 
Nc1ncc(-c2cnn(C3CCNCC3)c2)cc1OCc1ccccc1C(F)(F)F

>  <Name>  (827) 
nan

>  <Pocket>  (827) 
nan

>  <ATP_Site>  (827) 
nan

>  <Peripheral>  (827) 
nan

>  <Num_H_Atoms_ProtBoundConf>  (827) 
nan

>  <Num_Resolved_Atoms>  (827) 
nan

>  <Num_Not_Resolved_Atoms>  (827) 
nan

$$$$
CHEMBL4442374
     RDKit          3D

  0  0  0  0  0  0  0  0  0  0999 V3000
M  V30 BEGIN CTAB
M  V30 COUNTS 46 48 0 0 0
M  V30 BEGIN ATOM
M  V30 1 C 1.188087 -5.190788 -1.947297 0
M  V30 2 O 1.043578 -3.877103 -1.406963 0
M  V30 3 C 1.911415 -2.837143 -1.714784 0
M  V30 4 O 2.742537 -3.332150 -2.500022 0
M  V30 5 C 1.498946 -1.562574 -0.986640 0
M  V30 6 C 1.563541 -1.904851 0.456172 0
M  V30 7 C 0.148413 -1.156442 -1.481564 0
M  V30 8 C -0.490252 0.062800 -0.978451 0
M  V30 9 N -0.757457 0.248945 0.389822 0
M  V30 10 C 0.086269 0.831298 1.304624 0
M  V30 11 C 1.347662 1.382611 1.180377 0
M  V30 12 C 2.076744 1.945813 2.199599 0
M  V30 13 O 3.343407 2.468116 1.935115 0
M  V30 14 C 4.039873 3.033831 3.032362 0
M  V30 15 C 1.499826 1.961089 3.449577 0
M  V30 16 C 0.242373 1.421554 3.616121 0
M  V30 17 C -0.444089 0.873848 2.576653 0
M  V30 18 C -1.706260 0.279697 2.455253 0
M  V30 19 C -2.620597 0.096635 3.448277 0
M  V30 20 C -3.802324 -0.505029 3.074870 0
M  V30 21 N -3.971578 -0.860974 1.794370 0
M  V30 22 C -3.053141 -0.673217 0.814972 0
M  V30 23 C -3.337982 -1.071285 -0.568561 0
M  V30 24 C -1.832625 -0.071294 1.120974 0
M  V30 25 H 0.759381 -5.937877 -1.239021 0
M  V30 26 H 0.696319 -5.225087 -2.947006 0
M  V30 27 H 2.272499 -5.397939 -2.086646 0
M  V30 28 H 2.301665 -0.842774 -1.221136 0
M  V30 29 H 2.271790 -1.311137 1.061384 0
M  V30 30 H 1.952250 -2.954441 0.562859 0
M  V30 31 H 0.533973 -1.961909 0.862634 0
M  V30 32 H 0.293312 -0.978317 -2.599884 0
M  V30 33 H -0.457889 -2.092753 -1.478795 0
M  V30 34 H -1.349527 0.293090 -1.654833 0
M  V30 35 H 0.228421 0.911160 -1.258543 0
M  V30 36 H 1.800389 1.369893 0.196287 0
M  V30 37 H 4.367216 2.263344 3.755001 0
M  V30 38 H 3.394455 3.743160 3.605013 0
M  V30 39 H 4.963554 3.561782 2.701332 0
M  V30 40 H 2.023169 2.384896 4.270020 0
M  V30 41 H -0.213011 1.435144 4.609522 0
M  V30 42 H -2.450732 0.393234 4.455532 0
M  V30 43 H -4.579317 -0.684221 3.813659 0
M  V30 44 H -3.613742 -0.182788 -1.214846 0
M  V30 45 H -2.683253 -1.789249 -1.035376 0
M  V30 46 H -4.338995 -1.607066 -0.534110 0
M  V30 END ATOM
M  V30 BEGIN BOND
M  V30 1 1 1 2
M  V30 2 1 2 3
M  V30 3 2 3 4
M  V30 4 1 3 5
M  V30 5 1 5 6
M  V30 6 1 5 7
M  V30 7 1 7 8
M  V30 8 1 8 9
M  V30 9 1 9 10
M  V30 10 2 10 11
M  V30 11 1 11 12
M  V30 12 1 12 13
M  V30 13 1 13 14
M  V30 14 2 12 15
M  V30 15 1 15 16
M  V30 16 2 16 17
M  V30 17 1 17 18
M  V30 18 2 18 19
M  V30 19 1 19 20
M  V30 20 2 20 21
M  V30 21 1 21 22
M  V30 22 1 22 23
M  V30 23 2 22 24
M  V30 24 1 24 9
M  V30 25 1 17 10
M  V30 26 1 24 18
M  V30 27 1 1 25
M  V30 28 1 1 26
M  V30 29 1 1 27
M  V30 30 1 5 28
M  V30 31 1 6 29
M  V30 32 1 6 30
M  V30 33 1 6 31
M  V30 34 1 7 32
M  V30 35 1 7 33
M  V30 36 1 8 34
M  V30 37 1 8 35
M  V30 38 1 11 36
M  V30 39 1 14 37
M  V30 40 1 14 38
M  V30 41 1 14 39
M  V30 42 1 15 40
M  V30 43 1 16 41
M  V30 44 1 19 42
M  V30 45 1 20 43
M  V30 46 1 23 44
M  V30 47 1 23 45
M  V30 48 1 23 46
M  V30 END BOND
M  V30 END CTAB
M  END
>  <Dataset>  (828) 
ChEMBL_Kinases

>  <Ligand_Instance>  (828) 
nan

>  <PDB_ID>  (828) 
nan

>  <Standardized_SMILES>  (828) 
COC(=O)C(C)CCn1c2cc(OC)ccc2c2ccnc(C)c21

>  <Name>  (828) 
nan

>  <Pocket>  (828) 
nan

>  <ATP_Site>  (828) 
nan

>  <Peripheral>  (828) 
nan

>  <Num_H_Atoms_ProtBoundConf>  (828) 
nan

>  <Num_Resolved_Atoms>  (828) 
nan

>  <Num_Not_Resolved_Atoms>  (828) 
nan

$$$$
CHEMBL4751500
     RDKit          3D

  0  0  0  0  0  0  0  0  0  0999 V3000
M  V30 BEGIN CTAB
M  V30 COUNTS 40 42 0 0 0
M  V30 BEGIN ATOM
M  V30 1 O -1.294824 -1.156754 1.719218 0
M  V30 2 C -1.261742 -2.355085 2.106636 0
M  V30 3 N 0.013411 -2.907850 1.827150 0
M  V30 4 C 0.886681 -1.969994 1.196942 0
M  V30 5 C 1.734220 -1.118668 1.883924 0
M  V30 6 C 2.556522 -0.230322 1.176234 0
M  V30 7 C 2.548222 -0.175719 -0.217321 0
M  V30 8 O 3.454239 0.785126 -0.602764 0
M  V30 9 C 3.186095 1.925961 -1.331596 0
M  V30 10 C 3.252180 2.218275 -2.677174 0
M  V30 11 C 2.912252 3.478272 -3.121068 0
M  V30 12 O 3.020811 3.641732 -4.490277 0
M  V30 13 C 2.498815 4.492894 -2.278163 0
M  V30 14 C 2.431918 4.204100 -0.932170 0
M  V30 15 O 2.011922 5.255820 -0.130462 0
M  V30 16 C 2.769953 2.940034 -0.462499 0
M  V30 17 C 1.702136 -1.027281 -0.867478 0
M  V30 18 Cl 1.781915 -0.868140 -2.600955 0
M  V30 19 C 0.893524 -1.900347 -0.181575 0
M  V30 20 C -2.413874 -2.952856 2.724902 0
M  V30 21 C -3.541710 -2.175480 2.875963 0
M  V30 22 C -4.696486 -2.652987 3.455116 0
M  V30 23 Cl -6.076729 -1.569623 3.595983 0
M  V30 24 C -4.793487 -3.930837 3.916344 0
M  V30 25 C -3.698162 -4.727220 3.783444 0
M  V30 26 Cl -3.762686 -6.381100 4.358202 0
M  V30 27 C -2.565145 -4.230544 3.205815 0
M  V30 28 O -1.482224 -5.088363 3.097901 0
M  V30 29 H 0.164890 -3.900395 2.102906 0
M  V30 30 H 1.681450 -1.222116 2.952792 0
M  V30 31 H 3.142762 0.347404 1.896697 0
M  V30 32 H 3.582987 1.388763 -3.250879 0
M  V30 33 H 2.260938 3.921566 -5.098561 0
M  V30 34 H 2.272495 5.411508 -2.786639 0
M  V30 35 H 2.714951 5.623749 0.523290 0
M  V30 36 H 2.659240 2.892608 0.615665 0
M  V30 37 H 0.262135 -2.530961 -0.772700 0
M  V30 38 H -3.536733 -1.131232 2.526067 0
M  V30 39 H -5.729924 -4.235650 4.358524 0
M  V30 40 H -1.339459 -5.936733 3.608394 0
M  V30 END ATOM
M  V30 BEGIN BOND
M  V30 1 2 1 2
M  V30 2 1 2 3
M  V30 3 1 3 4
M  V30 4 2 4 5
M  V30 5 1 5 6
M  V30 6 2 6 7
M  V30 7 1 7 8
M  V30 8 1 8 9
M  V30 9 2 9 10
M  V30 10 1 10 11
M  V30 11 1 11 12
M  V30 12 2 11 13
M  V30 13 1 13 14
M  V30 14 1 14 15
M  V30 15 2 14 16
M  V30 16 1 7 17
M  V30 17 1 17 18
M  V30 18 2 17 19
M  V30 19 1 2 20
M  V30 20 2 20 21
M  V30 21 1 21 22
M  V30 22 1 22 23
M  V30 23 2 22 24
M  V30 24 1 24 25
M  V30 25 1 25 26
M  V30 26 2 25 27
M  V30 27 1 27 28
M  V30 28 1 19 4
M  V30 29 1 27 20
M  V30 30 1 16 9
M  V30 31 1 3 29
M  V30 32 1 5 30
M  V30 33 1 6 31
M  V30 34 1 10 32
M  V30 35 1 12 33
M  V30 36 1 13 34
M  V30 37 1 15 35
M  V30 38 1 16 36
M  V30 39 1 19 37
M  V30 40 1 21 38
M  V30 41 1 24 39
M  V30 42 1 28 40
M  V30 END BOND
M  V30 END CTAB
M  END
>  <Dataset>  (829) 
ChEMBL_Kinases

>  <Ligand_Instance>  (829) 
nan

>  <PDB_ID>  (829) 
nan

>  <Standardized_SMILES>  (829) 
O=C(Nc1ccc(Oc2cc(O)cc(O)c2)c(Cl)c1)c1cc(Cl)cc(Cl)c1O

>  <Name>  (829) 
nan

>  <Pocket>  (829) 
nan

>  <ATP_Site>  (829) 
nan

>  <Peripheral>  (829) 
nan

>  <Num_H_Atoms_ProtBoundConf>  (829) 
nan

>  <Num_Resolved_Atoms>  (829) 
nan

>  <Num_Not_Resolved_Atoms>  (829) 
nan

$$$$
CHEMBL4442341
     RDKit          3D

  0  0  0  0  0  0  0  0  0  0999 V3000
M  V30 BEGIN CTAB
M  V30 COUNTS 51 55 0 0 0
M  V30 BEGIN ATOM
M  V30 1 O 4.230622 -2.293037 2.324183 0
M  V30 2 C 4.743838 -1.741296 1.294983 0
M  V30 3 C 5.628748 -2.044523 0.153309 0
M  V30 4 C 6.126757 -3.449544 0.129226 0
M  V30 5 C 5.205723 -4.607376 0.052653 0
M  V30 6 C 5.866033 -4.187188 -1.204754 0
M  V30 7 N 4.286121 -0.379539 1.277644 0
M  V30 8 C 3.421143 0.149253 2.276273 0
M  V30 9 N 3.598155 0.771031 3.473837 0
M  V30 10 N 2.423081 1.057878 4.002567 0
M  V30 11 C 1.417359 0.648046 3.196352 0
M  V30 12 C 0.027251 0.725488 3.319010 0
M  V30 13 C -0.727728 0.197619 2.291055 0
M  V30 14 C -2.180544 0.255824 2.376744 0
M  V30 15 C -2.900747 0.199521 3.545226 0
M  V30 16 C -4.257828 0.257354 3.572450 0
M  V30 17 C -4.872637 0.376192 2.349844 0
M  V30 18 C -4.249847 0.444208 1.080961 0
M  V30 19 N -5.191952 0.563321 0.029526 0
M  V30 20 S -5.236031 1.443004 -1.427438 0
M  V30 21 O -5.134954 2.923331 -1.108885 0
M  V30 22 O -6.563098 1.221383 -2.107374 0
M  V30 23 C -3.990303 0.954012 -2.566804 0
M  V30 24 C -3.145935 -0.208832 -2.295722 0
M  V30 25 C -4.256865 -0.419404 -3.242229 0
M  V30 26 C -2.902990 0.374811 1.223593 0
M  V30 27 C -0.160759 -0.388217 1.176456 0
M  V30 28 C 1.211966 -0.437487 1.107565 0
M  V30 29 C 2.045867 0.073876 2.105414 0
M  V30 30 H 5.101580 -1.773662 -0.784540 0
M  V30 31 H 6.520804 -1.363101 0.174090 0
M  V30 32 H 7.149780 -3.671345 0.533634 0
M  V30 33 H 5.559565 -5.586214 0.437180 0
M  V30 34 H 4.105975 -4.480346 0.204354 0
M  V30 35 H 5.235186 -3.676286 -1.958579 0
M  V30 36 H 6.676236 -4.768795 -1.654405 0
M  V30 37 H 4.523440 0.361691 0.556169 0
M  V30 38 H 2.262038 1.532990 4.912094 0
M  V30 39 H -0.430606 1.187879 4.198506 0
M  V30 40 H -2.337842 0.106271 4.462962 0
M  V30 41 H -4.773546 0.210223 4.502756 0
M  V30 42 H -5.972700 0.417142 2.451068 0
M  V30 43 H -6.072667 -0.034806 0.155223 0
M  V30 44 H -3.818443 1.668109 -3.435943 0
M  V30 45 H -3.225978 -0.814257 -1.372369 0
M  V30 46 H -2.111101 -0.180799 -2.720901 0
M  V30 47 H -5.178215 -0.948354 -2.946224 0
M  V30 48 H -4.002485 -0.539549 -4.306087 0
M  V30 49 H -2.351871 0.446276 0.306277 0
M  V30 50 H -0.735492 -0.800499 0.374107 0
M  V30 51 H 1.663601 -0.898983 0.229622 0
M  V30 END ATOM
M  V30 BEGIN BOND
M  V30 1 2 1 2
M  V30 2 1 2 3
M  V30 3 1 3 4
M  V30 4 1 4 5
M  V30 5 1 5 6
M  V30 6 1 2 7
M  V30 7 1 7 8
M  V30 8 2 8 9
M  V30 9 1 9 10
M  V30 10 1 10 11
M  V30 11 2 11 12
M  V30 12 1 12 13
M  V30 13 1 13 14
M  V30 14 2 14 15
M  V30 15 1 15 16
M  V30 16 2 16 17
M  V30 17 1 17 18
M  V30 18 1 18 19
M  V30 19 1 19 20
M  V30 20 2 20 21
M  V30 21 2 20 22
M  V30 22 1 20 23
M  V30 23 1 23 24
M  V30 24 1 24 25
M  V30 25 2 18 26
M  V30 26 2 13 27
M  V30 27 1 27 28
M  V30 28 2 28 29
M  V30 29 1 6 4
M  V30 30 1 29 8
M  V30 31 1 29 11
M  V30 32 1 26 14
M  V30 33 1 25 23
M  V30 34 1 3 30
M  V30 35 1 3 31
M  V30 36 1 4 32
M  V30 37 1 5 33
M  V30 38 1 5 34
M  V30 39 1 6 35
M  V30 40 1 6 36
M  V30 41 1 7 37
M  V30 42 1 10 38
M  V30 43 1 12 39
M  V30 44 1 15 40
M  V30 45 1 16 41
M  V30 46 1 17 42
M  V30 47 1 19 43
M  V30 48 1 23 44
M  V30 49 1 24 45
M  V30 50 1 24 46
M  V30 51 1 25 47
M  V30 52 1 25 48
M  V30 53 1 26 49
M  V30 54 1 27 50
M  V30 55 1 28 51
M  V30 END BOND
M  V30 END CTAB
M  END
>  <Dataset>  (830) 
ChEMBL_Kinases

>  <Ligand_Instance>  (830) 
nan

>  <PDB_ID>  (830) 
nan

>  <Standardized_SMILES>  (830) 
O=C(CC1CC1)Nc1n[nH]c2cc(-c3cccc(NS(=O)(=O)C4CC4)c3)ccc12

>  <Name>  (830) 
nan

>  <Pocket>  (830) 
nan

>  <ATP_Site>  (830) 
nan

>  <Peripheral>  (830) 
nan

>  <Num_H_Atoms_ProtBoundConf>  (830) 
nan

>  <Num_Resolved_Atoms>  (830) 
nan

>  <Num_Not_Resolved_Atoms>  (830) 
nan

$$$$
CHEMBL4442227
     RDKit          3D

  0  0  0  0  0  0  0  0  0  0999 V3000
M  V30 BEGIN CTAB
M  V30 COUNTS 40 43 0 0 0
M  V30 BEGIN ATOM
M  V30 1 C -1.584773 -4.926256 3.919195 0
M  V30 2 C -1.155658 -3.903219 3.131408 0
M  V30 3 C -0.850831 -2.647628 3.599776 0
M  V30 4 C -0.387976 -1.484735 2.865661 0
M  V30 5 C -0.194870 -1.533611 1.521564 0
M  V30 6 C 0.242914 -0.492707 0.712713 0
M  V30 7 N 0.453661 -0.498727 -0.666717 0
M  V30 8 C 0.734497 -0.258312 -2.009755 0
M  V30 9 C -0.094170 0.856609 -2.669480 0
M  V30 10 C 0.574857 0.822963 -4.053765 0
M  V30 11 C 2.030500 1.023432 -3.608672 0
M  V30 12 C 2.151937 0.230738 -2.319942 0
M  V30 13 C 0.487909 0.678788 1.403985 0
M  V30 14 C 0.923780 1.862408 0.876921 0
M  V30 15 C 1.157590 3.013152 1.594864 0
M  V30 16 N 0.951333 3.009157 2.922721 0
M  V30 17 C 0.517299 1.882277 3.547294 0
M  V30 18 C 0.304682 0.769719 2.766076 0
M  V30 19 N -0.118138 -0.303077 3.416607 0
M  V30 20 C -1.000164 -2.447621 4.954681 0
M  V30 21 C -1.434509 -3.482326 5.753622 0
M  V30 22 N -1.721096 -4.702766 5.235581 0
M  V30 23 H -1.805336 -5.886310 3.480098 0
M  V30 24 H -1.039826 -4.059220 2.078750 0
M  V30 25 H -0.404431 -2.480268 1.038227 0
M  V30 26 H 0.177599 -1.486196 -0.897023 0
M  V30 27 H 0.628846 -1.129719 -2.728878 0
M  V30 28 H 0.151244 1.831346 -2.244510 0
M  V30 29 H -1.157159 0.602927 -2.708664 0
M  V30 30 H 0.239922 1.635831 -4.700105 0
M  V30 31 H 0.479424 -0.195631 -4.456989 0
M  V30 32 H 2.716377 0.667378 -4.385414 0
M  V30 33 H 2.194673 2.109977 -3.418814 0
M  V30 34 H 2.607271 0.825178 -1.529454 0
M  V30 35 H 2.806597 -0.654930 -2.515785 0
M  V30 36 H 1.096690 1.903996 -0.169639 0
M  V30 37 H 1.503357 3.915188 1.105474 0
M  V30 38 H 0.356207 1.891841 4.608859 0
M  V30 39 H -0.783893 -1.481086 5.434160 0
M  V30 40 H -1.552853 -3.327006 6.821195 0
M  V30 END ATOM
M  V30 BEGIN BOND
M  V30 1 2 1 2
M  V30 2 1 2 3
M  V30 3 1 3 4
M  V30 4 2 4 5
M  V30 5 1 5 6
M  V30 6 1 6 7
M  V30 7 1 7 8
M  V30 8 1 8 9
M  V30 9 1 9 10
M  V30 10 1 10 11
M  V30 11 1 11 12
M  V30 12 2 6 13
M  V30 13 1 13 14
M  V30 14 2 14 15
M  V30 15 1 15 16
M  V30 16 2 16 17
M  V30 17 1 17 18
M  V30 18 2 18 19
M  V30 19 2 3 20
M  V30 20 1 20 21
M  V30 21 2 21 22
M  V30 22 1 22 1
M  V30 23 1 19 4
M  V30 24 1 12 8
M  V30 25 1 18 13
M  V30 26 1 1 23
M  V30 27 1 2 24
M  V30 28 1 5 25
M  V30 29 1 7 26
M  V30 30 1 8 27
M  V30 31 1 9 28
M  V30 32 1 9 29
M  V30 33 1 10 30
M  V30 34 1 10 31
M  V30 35 1 11 32
M  V30 36 1 11 33
M  V30 37 1 12 34
M  V30 38 1 12 35
M  V30 39 1 14 36
M  V30 40 1 15 37
M  V30 41 1 17 38
M  V30 42 1 20 39
M  V30 43 1 21 40
M  V30 END BOND
M  V30 END CTAB
M  END
>  <Dataset>  (831) 
ChEMBL_Kinases

>  <Ligand_Instance>  (831) 
nan

>  <PDB_ID>  (831) 
nan

>  <Standardized_SMILES>  (831) 
c1cc(-c2cc(NC3CCCC3)c3ccncc3n2)ccn1

>  <Name>  (831) 
nan

>  <Pocket>  (831) 
nan

>  <ATP_Site>  (831) 
nan

>  <Peripheral>  (831) 
nan

>  <Num_H_Atoms_ProtBoundConf>  (831) 
nan

>  <Num_Resolved_Atoms>  (831) 
nan

>  <Num_Not_Resolved_Atoms>  (831) 
nan

$$$$
CHEMBL4442226
     RDKit          3D

  0  0  0  0  0  0  0  0  0  0999 V3000
M  V30 BEGIN CTAB
M  V30 COUNTS 48 51 0 0 0
M  V30 BEGIN ATOM
M  V30 1 C 2.186371 -1.518245 -5.939534 0
M  V30 2 N 1.837195 -2.590355 -5.038832 0
M  V30 3 N 1.885619 -3.846383 -5.451894 0
M  V30 4 C 1.552507 -4.696307 -4.465667 0
M  V30 5 C 1.297665 -3.835363 -3.414989 0
M  V30 6 Cl 0.812039 -4.514034 -1.874274 0
M  V30 7 C 1.470866 -2.521136 -3.758966 0
M  V30 8 C 1.329701 -1.374614 -2.912978 0
M  V30 9 C 1.507606 -0.068462 -3.397704 0
M  V30 10 S 1.293997 1.029188 -1.888478 0
M  V30 11 C 0.998845 -0.341291 -0.809390 0
M  V30 12 C 0.787988 0.059532 0.594742 0
M  V30 13 O 0.848681 1.314524 0.854190 0
M  V30 14 N 0.527113 -0.727334 1.726672 0
M  V30 15 C 0.351694 -0.207119 3.061281 0 CFG=2
M  V30 16 C 1.396212 -0.791998 3.935512 0
M  V30 17 N 1.056661 -1.022955 5.310139 0
M  V30 18 C -0.231596 -1.619690 5.474439 0
M  V30 19 C -1.203709 -0.533381 4.997742 0
M  V30 20 C -1.067876 -0.338448 3.500153 0 CFG=1
M  V30 21 C -1.927612 0.794503 3.089084 0
M  V30 22 C -3.053397 0.813738 2.314763 0
M  V30 23 C -3.807165 1.894109 1.963819 0
M  V30 24 C -3.384919 3.120274 2.446925 0
M  V30 25 Cl -4.218401 4.618749 2.106440 0
M  V30 26 C -2.246167 3.205427 3.248864 0
M  V30 27 C -1.538915 2.060298 3.557962 0
M  V30 28 C 1.072882 -1.398686 -1.576525 0
M  V30 29 H 1.268965 -0.944287 -6.152829 0
M  V30 30 H 2.530085 -1.928150 -6.926402 0
M  V30 31 H 3.036898 -0.924860 -5.543372 0
M  V30 32 H 1.508709 -5.771945 -4.521581 0
M  V30 33 H 1.712487 0.447805 -4.355352 0
M  V30 34 H 0.468874 -1.771559 1.502884 0
M  V30 35 H 0.589061 0.895078 2.976546 0
M  V30 36 H 1.811198 -1.741876 3.539778 0
M  V30 37 H 2.309318 -0.121201 3.982214 0
M  V30 38 H 1.043060 -0.102453 5.806161 0
M  V30 39 H -0.382386 -2.554911 4.932356 0
M  V30 40 H -0.438469 -1.728055 6.568722 0
M  V30 41 H -0.841340 0.397308 5.466840 0
M  V30 42 H -2.214424 -0.798756 5.302256 0
M  V30 43 H -1.501712 -1.239775 3.035031 0
M  V30 44 H -3.320487 -0.186854 1.978623 0
M  V30 45 H -4.681693 1.825553 1.347353 0
M  V30 46 H -1.913233 4.163176 3.629175 0
M  V30 47 H -0.662727 2.193086 4.190202 0
M  V30 48 H 0.887953 -2.239077 -0.917374 0
M  V30 END ATOM
M  V30 BEGIN BOND
M  V30 1 1 1 2
M  V30 2 1 2 3
M  V30 3 2 3 4
M  V30 4 1 4 5
M  V30 5 1 5 6
M  V30 6 2 5 7
M  V30 7 1 7 8
M  V30 8 2 8 9
M  V30 9 1 9 10
M  V30 10 1 10 11
M  V30 11 1 11 12
M  V30 12 2 12 13
M  V30 13 1 12 14
M  V30 14 1 14 15
M  V30 15 1 15 16
M  V30 16 1 16 17
M  V30 17 1 17 18
M  V30 18 1 18 19
M  V30 19 1 19 20
M  V30 20 1 20 21
M  V30 21 2 21 22
M  V30 22 1 22 23
M  V30 23 2 23 24
M  V30 24 1 24 25
M  V30 25 1 24 26
M  V30 26 2 26 27
M  V30 27 2 11 28
M  V30 28 1 7 2
M  V30 29 1 28 8
M  V30 30 1 20 15
M  V30 31 1 27 21
M  V30 32 1 1 29
M  V30 33 1 1 30
M  V30 34 1 1 31
M  V30 35 1 4 32
M  V30 36 1 9 33
M  V30 37 1 14 34
M  V30 38 1 15 35 CFG=3
M  V30 39 1 16 36
M  V30 40 1 16 37
M  V30 41 1 17 38
M  V30 42 1 18 39
M  V30 43 1 18 40
M  V30 44 1 19 41
M  V30 45 1 19 42
M  V30 46 1 20 43 CFG=3
M  V30 47 1 22 44
M  V30 48 1 23 45
M  V30 49 1 26 46
M  V30 50 1 27 47
M  V30 51 1 28 48
M  V30 END BOND
M  V30 END CTAB
M  END
>  <Dataset>  (832) 
ChEMBL_Kinases

>  <Ligand_Instance>  (832) 
nan

>  <PDB_ID>  (832) 
nan

>  <Standardized_SMILES>  (832) 
Cn1ncc(Cl)c1-c1csc(C(=O)N[C@@H]2CNCC[C@H]2c2ccc(Cl)cc2)c1

>  <Name>  (832) 
nan

>  <Pocket>  (832) 
nan

>  <ATP_Site>  (832) 
nan

>  <Peripheral>  (832) 
nan

>  <Num_H_Atoms_ProtBoundConf>  (832) 
nan

>  <Num_Resolved_Atoms>  (832) 
nan

>  <Num_Not_Resolved_Atoms>  (832) 
nan

$$$$
CHEMBL4442116
     RDKit          3D

  0  0  0  0  0  0  0  0  0  0999 V3000
M  V30 BEGIN CTAB
M  V30 COUNTS 45 48 0 0 0
M  V30 BEGIN ATOM
M  V30 1 C 0.159248 -3.750648 -0.781796 0
M  V30 2 C -0.033472 -2.292025 -1.137370 0 CFG=2
M  V30 3 C 1.205900 -1.475351 -1.038402 0
M  V30 4 C 1.036984 -0.057176 -1.525538 0
M  V30 5 N 2.229320 0.729815 -1.523012 0
M  V30 6 C 3.393406 0.570181 -2.182019 0
M  V30 7 N 4.311583 1.524980 -1.952544 0
M  V30 8 N 3.724310 2.367729 -1.091302 0
M  V30 9 C 2.508975 1.868260 -0.865029 0
M  V30 10 C 1.660719 2.581561 0.029756 0
M  V30 11 C 1.316814 3.896584 0.172237 0
M  V30 12 C 0.428542 4.288962 1.137063 0
M  V30 13 C -0.140787 3.371980 1.987849 0
M  V30 14 C 0.276371 2.098390 1.753432 0
M  V30 15 N 1.151543 1.623552 0.820805 0
M  V30 16 N -0.009508 0.883945 2.343644 0
M  V30 17 C 0.006476 -0.280558 3.089846 0
M  V30 18 O 1.096216 -0.038933 3.637445 0
M  V30 19 C -0.757363 -1.468675 3.346772 0
M  V30 20 C -0.893685 -1.830162 4.655838 0
M  V30 21 C -1.639032 -2.996103 4.860277 0
M  V30 22 C -2.195115 -3.728729 3.837871 0
M  V30 23 C -1.985056 -3.254088 2.530668 0
M  V30 24 C -1.247584 -2.090053 2.231877 0
M  V30 25 O -1.233740 -1.922891 0.967474 0
M  V30 26 C -1.219261 -1.752162 -0.322252 0
M  V30 27 H 0.362952 -4.355293 -1.699034 0
M  V30 28 H 1.045333 -3.830755 -0.112500 0
M  V30 29 H -0.740961 -4.165368 -0.301227 0
M  V30 30 H -0.388966 -2.314032 -2.219549 0
M  V30 31 H 1.955158 -1.970940 -1.724959 0
M  V30 32 H 1.613915 -1.512159 -0.005903 0
M  V30 33 H 0.613929 -0.173761 -2.574267 0
M  V30 34 H 0.231727 0.484053 -0.992186 0
M  V30 35 H 3.728307 -0.213704 -2.882526 0
M  V30 36 H 1.822358 4.518615 -0.537417 0
M  V30 37 H 0.116403 5.301300 1.299851 0
M  V30 38 H -0.820901 3.289329 2.788398 0
M  V30 39 H -0.955058 0.760622 1.941918 0
M  V30 40 H -0.425382 -1.210439 5.417741 0
M  V30 41 H -1.761500 -3.305142 5.890013 0
M  V30 42 H -2.742499 -4.602557 4.133590 0
M  V30 43 H -2.491874 -3.948500 1.839090 0
M  V30 44 H -1.343847 -0.718964 -0.743399 0
M  V30 45 H -2.142064 -2.273694 -0.781076 0
M  V30 END ATOM
M  V30 BEGIN BOND
M  V30 1 1 1 2
M  V30 2 1 2 3
M  V30 3 1 3 4
M  V30 4 1 4 5
M  V30 5 1 5 6
M  V30 6 2 6 7
M  V30 7 1 7 8
M  V30 8 2 8 9
M  V30 9 1 9 10
M  V30 10 1 10 11
M  V30 11 2 11 12
M  V30 12 1 12 13
M  V30 13 2 13 14
M  V30 14 1 14 15
M  V30 15 1 14 16
M  V30 16 1 16 17
M  V30 17 2 17 18
M  V30 18 1 17 19
M  V30 19 2 19 20
M  V30 20 1 20 21
M  V30 21 2 21 22
M  V30 22 1 22 23
M  V30 23 2 23 24
M  V30 24 1 24 25
M  V30 25 1 25 26
M  V30 26 1 26 2
M  V30 27 1 9 5
M  V30 28 2 15 10
M  V30 29 1 24 19
M  V30 30 1 1 27
M  V30 31 1 1 28
M  V30 32 1 1 29
M  V30 33 1 2 30 CFG=3
M  V30 34 1 3 31
M  V30 35 1 3 32
M  V30 36 1 4 33
M  V30 37 1 4 34
M  V30 38 1 6 35
M  V30 39 1 11 36
M  V30 40 1 12 37
M  V30 41 1 13 38
M  V30 42 1 16 39
M  V30 43 1 20 40
M  V30 44 1 21 41
M  V30 45 1 22 42
M  V30 46 1 23 43
M  V30 47 1 26 44
M  V30 48 1 26 45
M  V30 END BOND
M  V30 END CTAB
M  END
>  <Dataset>  (833) 
ChEMBL_Kinases

>  <Ligand_Instance>  (833) 
nan

>  <PDB_ID>  (833) 
nan

>  <Standardized_SMILES>  (833) 
C[C@@H]1CCn2cnnc2-c2cccc(n2)NC(=O)c2ccccc2OC1

>  <Name>  (833) 
nan

>  <Pocket>  (833) 
nan

>  <ATP_Site>  (833) 
nan

>  <Peripheral>  (833) 
nan

>  <Num_H_Atoms_ProtBoundConf>  (833) 
nan

>  <Num_Resolved_Atoms>  (833) 
nan

>  <Num_Not_Resolved_Atoms>  (833) 
nan

$$$$
CHEMBL4751581
     RDKit          3D

  0  0  0  0  0  0  0  0  0  0999 V3000
M  V30 BEGIN CTAB
M  V30 COUNTS 66 70 0 0 0
M  V30 BEGIN ATOM
M  V30 1 C 6.424963 1.881368 6.703298 0
M  V30 2 O 5.227609 1.289267 6.216043 0
M  V30 3 C 4.525728 1.918253 5.196242 0
M  V30 4 C 4.874529 3.114753 4.567244 0
M  V30 5 C 4.087850 3.636191 3.562033 0
M  V30 6 C 2.933757 3.022999 3.125165 0
M  V30 7 C 2.073499 3.535567 2.065536 0
M  V30 8 C 2.330946 4.700858 1.378445 0
M  V30 9 C 1.489813 5.150662 0.375884 0
M  V30 10 N 0.406066 4.393657 0.104058 0
M  V30 11 C 0.123026 3.249998 0.754980 0
M  V30 12 N -1.037793 2.487821 0.418441 0
M  V30 13 C -1.943333 2.894933 -0.624074 0 CFG=1
M  V30 14 C -1.251164 2.990516 -1.970212 0
M  V30 15 O -1.460836 1.782934 -2.626690 0
M  V30 16 C -1.937587 0.862492 -1.730851 0 CFG=1
M  V30 17 C -2.884418 1.729766 -0.882944 0 CFG=2
M  V30 18 O -3.867507 1.991507 -1.803621 0
M  V30 19 C -4.145570 0.771319 -2.460993 0
M  V30 20 C -2.954486 -0.108166 -2.303822 0 CFG=2
M  V30 21 N -3.116183 -1.125569 -1.255563 0
M  V30 22 C -2.809475 -2.495354 -1.408492 0
M  V30 23 O -2.366029 -2.831349 -2.544108 0
M  V30 24 N -2.992085 -3.430782 -0.342278 0
M  V30 25 C -2.601270 -4.762733 -0.749816 0
M  V30 26 C -3.382002 -5.757094 -1.331670 0
M  V30 27 C -2.780303 -6.951864 -1.635125 0
M  V30 28 O -3.623800 -7.894275 -2.213731 0
M  V30 29 C -3.049175 -9.164434 -2.554589 0
M  V30 30 C -1.433405 -7.156625 -1.367283 0
M  V30 31 C -0.645521 -6.182538 -0.791164 0
M  V30 32 O 0.705221 -6.471475 -0.553855 0
M  V30 33 C 1.449572 -5.409053 0.045958 0
M  V30 34 C -1.251605 -4.971463 -0.482806 0
M  V30 35 N 0.967010 2.865028 1.709829 0
M  V30 36 C 2.605970 1.842849 3.758104 0
M  V30 37 C 3.372185 1.293793 4.768125 0
M  V30 38 H 6.940091 1.258071 7.429832 0
M  V30 39 H 7.114945 2.152230 5.864218 0
M  V30 40 H 6.163774 2.849531 7.208072 0
M  V30 41 H 5.775929 3.575685 4.922250 0
M  V30 42 H 4.392965 4.556080 3.106993 0
M  V30 43 H 3.207628 5.285491 1.620813 0
M  V30 44 H 1.735400 6.070869 -0.134556 0
M  V30 45 H -1.199645 1.599709 0.982158 0
M  V30 46 H -2.460745 3.806418 -0.314773 0
M  V30 47 H -1.799235 3.768340 -2.549772 0
M  V30 48 H -0.193668 3.264719 -1.901870 0
M  V30 49 H -1.203462 0.344134 -1.116562 0
M  V30 50 H -3.206691 1.219161 0.026938 0
M  V30 51 H -4.224098 1.027028 -3.559647 0
M  V30 52 H -5.110831 0.343003 -2.183465 0
M  V30 53 H -2.595464 -0.600761 -3.205665 0
M  V30 54 H -3.488901 -0.771723 -0.344386 0
M  V30 55 H -3.371244 -3.064467 0.574752 0
M  V30 56 H -4.397570 -5.438791 -1.470562 0
M  V30 57 H -2.354363 -9.085788 -3.414593 0
M  V30 58 H -2.453115 -9.568879 -1.684430 0
M  V30 59 H -3.826069 -9.932919 -2.727420 0
M  V30 60 H -1.010897 -8.118924 -1.626975 0
M  V30 61 H 0.993426 -5.113936 1.031965 0
M  V30 62 H 1.395231 -4.491327 -0.578809 0
M  V30 63 H 2.495184 -5.647744 0.231854 0
M  V30 64 H -0.574103 -4.254638 -0.035060 0
M  V30 65 H 1.714429 1.339276 3.442994 0
M  V30 66 H 3.033681 0.362094 5.207246 0
M  V30 END ATOM
M  V30 BEGIN BOND
M  V30 1 1 1 2
M  V30 2 1 2 3
M  V30 3 2 3 4
M  V30 4 1 4 5
M  V30 5 2 5 6
M  V30 6 1 6 7
M  V30 7 2 7 8
M  V30 8 1 8 9
M  V30 9 2 9 10
M  V30 10 1 10 11
M  V30 11 1 11 12
M  V30 12 1 12 13
M  V30 13 1 13 14
M  V30 14 1 14 15
M  V30 15 1 15 16
M  V30 16 1 16 17
M  V30 17 1 17 18
M  V30 18 1 18 19
M  V30 19 1 19 20
M  V30 20 1 20 21
M  V30 21 1 21 22
M  V30 22 2 22 23
M  V30 23 1 22 24
M  V30 24 1 24 25
M  V30 25 2 25 26
M  V30 26 1 26 27
M  V30 27 1 27 28
M  V30 28 1 28 29
M  V30 29 2 27 30
M  V30 30 1 30 31
M  V30 31 1 31 32
M  V30 32 1 32 33
M  V30 33 2 31 34
M  V30 34 2 11 35
M  V30 35 1 6 36
M  V30 36 2 36 37
M  V30 37 1 37 3
M  V30 38 1 35 7
M  V30 39 1 17 13
M  V30 40 1 34 25
M  V30 41 1 20 16
M  V30 42 1 1 38
M  V30 43 1 1 39
M  V30 44 1 1 40
M  V30 45 1 4 41
M  V30 46 1 5 42
M  V30 47 1 8 43
M  V30 48 1 9 44
M  V30 49 1 12 45
M  V30 50 1 13 46 CFG=1
M  V30 51 1 14 47
M  V30 52 1 14 48
M  V30 53 1 16 49 CFG=1
M  V30 54 1 17 50 CFG=1
M  V30 55 1 19 51
M  V30 56 1 19 52
M  V30 57 1 20 53 CFG=3
M  V30 58 1 21 54
M  V30 59 1 24 55
M  V30 60 1 26 56
M  V30 61 1 29 57
M  V30 62 1 29 58
M  V30 63 1 29 59
M  V30 64 1 30 60
M  V30 65 1 33 61
M  V30 66 1 33 62
M  V30 67 1 33 63
M  V30 68 1 34 64
M  V30 69 1 36 65
M  V30 70 1 37 66
M  V30 END BOND
M  V30 END CTAB
M  END
>  <Dataset>  (834) 
ChEMBL_Kinases

>  <Ligand_Instance>  (834) 
nan

>  <PDB_ID>  (834) 
nan

>  <Standardized_SMILES>  (834) 
COc1ccc(-c2ccnc(N[C@H]3CO[C@H]4[C@@H]3OC[C@@H]4NC(=O)Nc3cc(OC)cc(OC)c3)n2)cc1

>  <Name>  (834) 
nan

>  <Pocket>  (834) 
nan

>  <ATP_Site>  (834) 
nan

>  <Peripheral>  (834) 
nan

>  <Num_H_Atoms_ProtBoundConf>  (834) 
nan

>  <Num_Resolved_Atoms>  (834) 
nan

>  <Num_Not_Resolved_Atoms>  (834) 
nan

$$$$
CHEMBL4751643
     RDKit          3D

  0  0  0  0  0  0  0  0  0  0999 V3000
M  V30 BEGIN CTAB
M  V30 COUNTS 47 50 0 0 0
M  V30 BEGIN ATOM
M  V30 1 C 3.956362 -3.243818 1.421834 0
M  V30 2 S 5.531206 -2.527687 1.900235 0
M  V30 3 O 6.199018 -3.379100 2.941127 0
M  V30 4 O 6.408621 -2.554566 0.689553 0
M  V30 5 N 5.310711 -0.912244 2.466325 0
M  V30 6 C 4.775152 0.032615 1.547047 0
M  V30 7 C 5.122569 0.234082 0.227481 0
M  V30 8 C 4.490433 1.204924 -0.517889 0
M  V30 9 C 3.497897 2.008715 0.006941 0
M  V30 10 C 3.160395 1.795993 1.328860 0
M  V30 11 C 2.084263 2.685214 1.856188 0
M  V30 12 C 0.750285 2.023499 1.623704 0
M  V30 13 O 0.768892 0.897710 1.056827 0
M  V30 14 N -0.428420 2.675670 2.039555 0
M  V30 15 C -1.587323 1.922334 1.747952 0
M  V30 16 N -1.814190 0.866905 1.234844 0
M  V30 17 C -3.012600 0.323134 1.050068 0
M  V30 18 C -3.111799 -0.984549 0.432573 0
M  V30 19 C -2.058263 -1.873749 0.183809 0
M  V30 20 N -2.452136 -3.003993 -0.422490 0
M  V30 21 C -3.779444 -2.928340 -0.609378 0
M  V30 22 N -4.646516 -3.783621 -1.173728 0
M  V30 23 C -5.952819 -3.480182 -1.260311 0
M  V30 24 C -6.407720 -2.256793 -0.754652 0
M  V30 25 O -7.757062 -2.062904 -0.902132 0
M  V30 26 C -5.479001 -1.417766 -0.186754 0
M  V30 27 C -4.149690 -1.710314 -0.089572 0
M  V30 28 C -4.108010 1.088675 1.516092 0
M  V30 29 S -3.263950 2.592058 2.208047 0
M  V30 30 C 3.774951 0.830244 2.105036 0
M  V30 31 H 3.735534 -2.917229 0.387258 0
M  V30 32 H 4.007156 -4.342716 1.420269 0
M  V30 33 H 3.150261 -2.877324 2.105524 0
M  V30 34 H 5.561694 -0.648853 3.441031 0
M  V30 35 H 5.904110 -0.422887 -0.129213 0
M  V30 36 H 4.804494 1.318358 -1.549168 0
M  V30 37 H 3.018574 2.770351 -0.618200 0
M  V30 38 H 2.119692 3.676290 1.378241 0
M  V30 39 H 2.277527 2.843542 2.942522 0
M  V30 40 H -0.460814 3.592722 2.502589 0
M  V30 41 H -0.998300 -1.728107 0.430989 0
M  V30 42 H -1.857023 -3.809451 -0.707124 0
M  V30 43 H -6.555950 -4.255507 -1.739119 0
M  V30 44 H -8.247236 -1.455828 -0.232649 0
M  V30 45 H -5.910846 -0.507686 0.158152 0
M  V30 46 H -5.181730 0.969918 1.548999 0
M  V30 47 H 3.401134 0.787991 3.114301 0
M  V30 END ATOM
M  V30 BEGIN BOND
M  V30 1 1 1 2
M  V30 2 2 2 3
M  V30 3 2 2 4
M  V30 4 1 2 5
M  V30 5 1 5 6
M  V30 6 2 6 7
M  V30 7 1 7 8
M  V30 8 2 8 9
M  V30 9 1 9 10
M  V30 10 1 10 11
M  V30 11 1 11 12
M  V30 12 2 12 13
M  V30 13 1 12 14
M  V30 14 1 14 15
M  V30 15 2 15 16
M  V30 16 1 16 17
M  V30 17 1 17 18
M  V30 18 2 18 19
M  V30 19 1 19 20
M  V30 20 1 20 21
M  V30 21 2 21 22
M  V30 22 1 22 23
M  V30 23 2 23 24
M  V30 24 1 24 25
M  V30 25 1 24 26
M  V30 26 2 26 27
M  V30 27 2 17 28
M  V30 28 1 28 29
M  V30 29 2 10 30
M  V30 30 1 30 6
M  V30 31 1 29 15
M  V30 32 1 27 18
M  V30 33 1 27 21
M  V30 34 1 1 31
M  V30 35 1 1 32
M  V30 36 1 1 33
M  V30 37 1 5 34
M  V30 38 1 7 35
M  V30 39 1 8 36
M  V30 40 1 9 37
M  V30 41 1 11 38
M  V30 42 1 11 39
M  V30 43 1 14 40
M  V30 44 1 19 41
M  V30 45 1 20 42
M  V30 46 1 23 43
M  V30 47 1 25 44
M  V30 48 1 26 45
M  V30 49 1 28 46
M  V30 50 1 30 47
M  V30 END BOND
M  V30 END CTAB
M  END
>  <Dataset>  (835) 
ChEMBL_Kinases

>  <Ligand_Instance>  (835) 
nan

>  <PDB_ID>  (835) 
nan

>  <Standardized_SMILES>  (835) 
CS(=O)(=O)Nc1cccc(CC(=O)Nc2nc(-c3c[nH]c4ncc(O)cc34)cs2)c1

>  <Name>  (835) 
nan

>  <Pocket>  (835) 
nan

>  <ATP_Site>  (835) 
nan

>  <Peripheral>  (835) 
nan

>  <Num_H_Atoms_ProtBoundConf>  (835) 
nan

>  <Num_Resolved_Atoms>  (835) 
nan

>  <Num_Not_Resolved_Atoms>  (835) 
nan

$$$$
CHEMBL4751651
     RDKit          3D

  0  0  0  0  0  0  0  0  0  0999 V3000
M  V30 BEGIN CTAB
M  V30 COUNTS 79 84 0 0 0
M  V30 BEGIN ATOM
M  V30 1 C 5.125165 1.987788 4.937756 0
M  V30 2 C 4.415450 1.196274 3.880343 0
M  V30 3 C 4.987710 1.416330 2.487161 0 CFG=2
M  V30 4 C 4.890051 2.839464 2.098704 0
M  V30 5 N 5.556053 3.837768 2.706111 0
M  V30 6 N 5.198046 4.968592 2.113165 0
M  V30 7 C 4.303026 4.729928 1.120099 0
M  V30 8 C 3.731194 5.784576 0.296642 0
M  V30 9 N 4.143416 3.418336 1.144566 0
M  V30 10 C 3.382725 2.521004 0.370032 0
M  V30 11 C 2.592620 3.060614 -0.611400 0
M  V30 12 N 1.832084 2.235516 -1.385770 0
M  V30 13 C 1.878058 0.889283 -1.161457 0
M  V30 14 N 1.135273 -0.063239 -1.899850 0
M  V30 15 C -0.183977 -0.402964 -1.513678 0
M  V30 16 C -0.803542 0.212038 -0.442597 0
M  V30 17 C -2.104500 -0.064512 -0.003069 0
M  V30 18 C -2.813536 -1.031593 -0.705087 0
M  V30 19 C -4.157654 -1.281928 -0.211392 0
M  V30 20 O -4.624713 -0.585664 0.718684 0
M  V30 21 N -4.999475 -2.294631 -0.728642 0
M  V30 22 C -6.305468 -2.796656 -0.496442 0
M  V30 23 C -7.223568 -2.806226 -1.669980 0
M  V30 24 C -8.576788 -3.319295 -1.285656 0
M  V30 25 N -8.737283 -3.705660 0.071340 0
M  V30 26 C -9.387529 -2.776483 0.932927 0
M  V30 27 C -7.689003 -4.464116 0.656613 0
M  V30 28 C -6.317972 -4.170042 0.140423 0
M  V30 29 C -2.256828 -1.685416 -1.784684 0
M  V30 30 C -0.969487 -1.345605 -2.143199 0
M  V30 31 O -0.392779 -2.007429 -3.242766 0
M  V30 32 C -1.084562 -2.998033 -3.982356 0
M  V30 33 N 2.660492 0.391692 -0.194295 0
M  V30 34 C 3.408969 1.159594 0.572531 0
M  V30 35 N 4.215651 0.547663 1.583770 0
M  V30 36 C 4.361290 -0.858100 1.804348 0
M  V30 37 C 4.931488 -1.511307 0.596146 0
M  V30 38 C 6.311825 -1.479357 0.433202 0
M  V30 39 C 7.040434 -2.043018 -0.608529 0
M  V30 40 C 6.302928 -2.697159 -1.569094 0
M  V30 41 C 4.932061 -2.762133 -1.461110 0
M  V30 42 Cl 4.000410 -3.595130 -2.689708 0
M  V30 43 C 4.280908 -2.180827 -0.402490 0
M  V30 44 H 4.886120 3.061938 4.870123 0
M  V30 45 H 6.201878 1.760948 5.013144 0
M  V30 46 H 4.698749 1.635960 5.921917 0
M  V30 47 H 4.435793 0.114858 4.104069 0
M  V30 48 H 3.347094 1.518386 3.883157 0
M  V30 49 H 6.033017 1.056658 2.428759 0
M  V30 50 H 2.638072 5.856030 0.493773 0
M  V30 51 H 3.961552 5.780869 -0.769283 0
M  V30 52 H 4.097514 6.810305 0.634554 0
M  V30 53 H 2.439446 4.067818 -0.919023 0
M  V30 54 H 1.493504 -0.555163 -2.738551 0
M  V30 55 H -0.232995 0.974266 0.102553 0
M  V30 56 H -2.483084 0.480426 0.845919 0
M  V30 57 H -4.653991 -2.916115 -1.516510 0
M  V30 58 H -6.763111 -2.122744 0.290545 0
M  V30 59 H -6.790949 -3.535678 -2.417481 0
M  V30 60 H -7.286966 -1.823359 -2.185804 0
M  V30 61 H -8.888491 -4.200473 -1.921518 0
M  V30 62 H -9.391811 -2.568475 -1.495214 0
M  V30 63 H -9.895339 -1.966909 0.384319 0
M  V30 64 H -8.691112 -2.395215 1.720893 0
M  V30 65 H -10.195100 -3.307254 1.517309 0
M  V30 66 H -7.930255 -5.557235 0.506496 0
M  V30 67 H -7.752304 -4.340822 1.775600 0
M  V30 68 H -6.060536 -4.923854 -0.626611 0
M  V30 69 H -5.534372 -4.199176 0.933643 0
M  V30 70 H -2.835058 -2.424268 -2.300134 0
M  V30 71 H -2.127428 -2.709434 -4.234551 0
M  V30 72 H -0.557055 -3.122406 -4.948302 0
M  V30 73 H -1.015124 -3.975476 -3.467548 0
M  V30 74 H 5.087402 -1.058637 2.617110 0
M  V30 75 H 3.396645 -1.345857 2.094398 0
M  V30 76 H 6.908080 -0.961000 1.189794 0
M  V30 77 H 8.112300 -1.954095 -0.630383 0
M  V30 78 H 6.864336 -3.139774 -2.386657 0
M  V30 79 H 3.215365 -2.261266 -0.338014 0
M  V30 END ATOM
M  V30 BEGIN BOND
M  V30 1 1 1 2
M  V30 2 1 2 3
M  V30 3 1 3 4
M  V30 4 2 4 5
M  V30 5 1 5 6
M  V30 6 2 6 7
M  V30 7 1 7 8
M  V30 8 1 7 9
M  V30 9 1 9 10
M  V30 10 2 10 11
M  V30 11 1 11 12
M  V30 12 2 12 13
M  V30 13 1 13 14
M  V30 14 1 14 15
M  V30 15 2 15 16
M  V30 16 1 16 17
M  V30 17 2 17 18
M  V30 18 1 18 19
M  V30 19 2 19 20
M  V30 20 1 19 21
M  V30 21 1 21 22
M  V30 22 1 22 23
M  V30 23 1 23 24
M  V30 24 1 24 25
M  V30 25 1 25 26
M  V30 26 1 25 27
M  V30 27 1 27 28
M  V30 28 1 18 29
M  V30 29 2 29 30
M  V30 30 1 30 31
M  V30 31 1 31 32
M  V30 32 1 13 33
M  V30 33 2 33 34
M  V30 34 1 34 35
M  V30 35 1 35 36
M  V30 36 1 36 37
M  V30 37 2 37 38
M  V30 38 1 38 39
M  V30 39 2 39 40
M  V30 40 1 40 41
M  V30 41 1 41 42
M  V30 42 2 41 43
M  V30 43 1 35 3
M  V30 44 1 43 37
M  V30 45 1 9 4
M  V30 46 1 34 10
M  V30 47 1 30 15
M  V30 48 1 28 22
M  V30 49 1 1 44
M  V30 50 1 1 45
M  V30 51 1 1 46
M  V30 52 1 2 47
M  V30 53 1 2 48
M  V30 54 1 3 49 CFG=1
M  V30 55 1 8 50
M  V30 56 1 8 51
M  V30 57 1 8 52
M  V30 58 1 11 53
M  V30 59 1 14 54
M  V30 60 1 16 55
M  V30 61 1 17 56
M  V30 62 1 21 57
M  V30 63 1 22 58
M  V30 64 1 23 59
M  V30 65 1 23 60
M  V30 66 1 24 61
M  V30 67 1 24 62
M  V30 68 1 26 63
M  V30 69 1 26 64
M  V30 70 1 26 65
M  V30 71 1 27 66
M  V30 72 1 27 67
M  V30 73 1 28 68
M  V30 74 1 28 69
M  V30 75 1 29 70
M  V30 76 1 32 71
M  V30 77 1 32 72
M  V30 78 1 32 73
M  V30 79 1 36 74
M  V30 80 1 36 75
M  V30 81 1 38 76
M  V30 82 1 39 77
M  V30 83 1 40 78
M  V30 84 1 43 79
M  V30 END BOND
M  V30 END CTAB
M  END
>  <Dataset>  (836) 
ChEMBL_Kinases

>  <Ligand_Instance>  (836) 
nan

>  <PDB_ID>  (836) 
nan

>  <Standardized_SMILES>  (836) 
CC[C@@H]1c2nnc(C)n2-c2cnc(Nc3ccc(C(=O)NC4CCN(C)CC4)cc3OC)nc2N1Cc1cccc(Cl)c1

>  <Name>  (836) 
nan

>  <Pocket>  (836) 
nan

>  <ATP_Site>  (836) 
nan

>  <Peripheral>  (836) 
nan

>  <Num_H_Atoms_ProtBoundConf>  (836) 
nan

>  <Num_Resolved_Atoms>  (836) 
nan

>  <Num_Not_Resolved_Atoms>  (836) 
nan

$$$$
CHEMBL4441650
     RDKit          3D

  0  0  0  0  0  0  0  0  0  0999 V3000
M  V30 BEGIN CTAB
M  V30 COUNTS 45 48 0 0 0
M  V30 BEGIN ATOM
M  V30 1 C 0.581786 -5.899433 -0.950795 0
M  V30 2 C 0.903448 -5.261831 0.382861 0
M  V30 3 C -0.076923 -5.808236 1.388105 0
M  V30 4 N 0.848435 -3.839728 0.349372 0
M  V30 5 C 0.880764 -2.885511 -0.583717 0
M  V30 6 C 0.795024 -1.578326 -0.151993 0
M  V30 7 C 0.834212 -0.575049 -1.206912 0
M  V30 8 N 0.943191 -0.708199 -2.565309 0
M  V30 9 N 0.939312 0.452261 -3.163621 0
M  V30 10 C 0.828062 1.414013 -2.238821 0
M  V30 11 C 0.784443 2.767775 -2.432664 0
M  V30 12 C 0.665501 3.597129 -1.342735 0
M  V30 13 N 0.601399 2.977887 -0.151465 0
M  V30 14 C 0.645234 1.647074 0.027518 0
M  V30 15 N 0.564501 1.179781 1.361799 0
M  V30 16 C 0.392004 2.200344 2.377828 0
M  V30 17 C 0.656879 1.815303 3.786466 0
M  V30 18 C -0.525191 1.427919 4.607904 0
M  V30 19 O -1.588207 2.312641 4.414787 0
M  V30 20 C -1.987023 2.170474 3.100093 0
M  V30 21 C -0.972454 2.866571 2.219246 0
M  V30 22 C 0.763108 0.782553 -1.030488 0
M  V30 23 N 0.707795 -1.848166 1.138737 0
M  V30 24 N 0.735732 -3.114676 1.445539 0
M  V30 25 H 0.199382 -6.919685 -0.744716 0
M  V30 26 H -0.189066 -5.348995 -1.507368 0
M  V30 27 H 1.491808 -6.042766 -1.587201 0
M  V30 28 H 1.909266 -5.640391 0.664382 0
M  V30 29 H -0.004706 -6.910731 1.445531 0
M  V30 30 H 0.090661 -5.394616 2.412756 0
M  V30 31 H -1.107998 -5.559406 1.036966 0
M  V30 32 H 0.974351 -3.308152 -1.591009 0
M  V30 33 H 1.020078 0.401510 -4.197411 0
M  V30 34 H 0.841617 3.193372 -3.422529 0
M  V30 35 H 0.623350 4.676089 -1.401064 0
M  V30 36 H 0.563516 0.423374 2.028553 0
M  V30 37 H 1.122619 3.017591 2.102978 0
M  V30 38 H 1.434368 1.024900 3.842556 0
M  V30 39 H 1.125921 2.690380 4.328181 0
M  V30 40 H -0.898266 0.412457 4.403065 0
M  V30 41 H -0.206341 1.456987 5.671392 0
M  V30 42 H -2.996274 2.517820 2.874637 0
M  V30 43 H -1.941938 1.095443 2.830686 0
M  V30 44 H -1.254600 2.839891 1.166254 0
M  V30 45 H -0.889947 3.909354 2.581769 0
M  V30 END ATOM
M  V30 BEGIN BOND
M  V30 1 1 1 2
M  V30 2 1 2 3
M  V30 3 1 2 4
M  V30 4 1 4 5
M  V30 5 2 5 6
M  V30 6 1 6 7
M  V30 7 2 7 8
M  V30 8 1 8 9
M  V30 9 1 9 10
M  V30 10 2 10 11
M  V30 11 1 11 12
M  V30 12 2 12 13
M  V30 13 1 13 14
M  V30 14 1 14 15
M  V30 15 1 15 16
M  V30 16 1 16 17
M  V30 17 1 17 18
M  V30 18 1 18 19
M  V30 19 1 19 20
M  V30 20 1 20 21
M  V30 21 2 14 22
M  V30 22 1 6 23
M  V30 23 2 23 24
M  V30 24 1 24 4
M  V30 25 1 22 7
M  V30 26 1 22 10
M  V30 27 1 21 16
M  V30 28 1 1 25
M  V30 29 1 1 26
M  V30 30 1 1 27
M  V30 31 1 2 28
M  V30 32 1 3 29
M  V30 33 1 3 30
M  V30 34 1 3 31
M  V30 35 1 5 32
M  V30 36 1 9 33
M  V30 37 1 11 34
M  V30 38 1 12 35
M  V30 39 1 15 36
M  V30 40 1 16 37
M  V30 41 1 17 38
M  V30 42 1 17 39
M  V30 43 1 18 40
M  V30 44 1 18 41
M  V30 45 1 20 42
M  V30 46 1 20 43
M  V30 47 1 21 44
M  V30 48 1 21 45
M  V30 END BOND
M  V30 END CTAB
M  END
>  <Dataset>  (837) 
ChEMBL_Kinases

>  <Ligand_Instance>  (837) 
nan

>  <PDB_ID>  (837) 
nan

>  <Standardized_SMILES>  (837) 
CC(C)n1cc(-c2n[nH]c3ccnc(NC4CCOCC4)c23)nn1

>  <Name>  (837) 
nan

>  <Pocket>  (837) 
nan

>  <ATP_Site>  (837) 
nan

>  <Peripheral>  (837) 
nan

>  <Num_H_Atoms_ProtBoundConf>  (837) 
nan

>  <Num_Resolved_Atoms>  (837) 
nan

>  <Num_Not_Resolved_Atoms>  (837) 
nan

$$$$
CHEMBL4751816
     RDKit          3D

  0  0  0  0  0  0  0  0  0  0999 V3000
M  V30 BEGIN CTAB
M  V30 COUNTS 54 57 0 0 0
M  V30 BEGIN ATOM
M  V30 1 C 1.187053 -2.813114 4.498086 0
M  V30 2 C 1.517062 -4.275387 4.425233 0
M  V30 3 O 0.642686 -4.985095 3.609598 0
M  V30 4 C 0.425344 -4.764202 2.274593 0
M  V30 5 N 1.002896 -3.829162 1.485530 0
M  V30 6 C 0.703826 -3.710875 0.176719 0
M  V30 7 N 1.337669 -2.714883 -0.596534 0
M  V30 8 C 0.948948 -1.377363 -0.872685 0
M  V30 9 C -0.248016 -0.981179 -0.295043 0
M  V30 10 C -0.699083 0.319907 -0.522674 0
M  V30 11 C 0.046615 1.188208 -1.313466 0
M  V30 12 C -0.446247 2.528362 -1.532498 0
M  V30 13 O -0.593849 2.637821 -2.791956 0
M  V30 14 N -0.675646 3.431512 -0.483711 0
M  V30 15 C -0.482221 3.246341 0.964431 0
M  V30 16 C -1.829300 3.296461 1.627491 0
M  V30 17 C -2.928743 3.821798 0.776420 0
M  V30 18 F -3.551719 2.753613 0.146869 0
M  V30 19 C -2.568686 4.838387 -0.242789 0
M  V30 20 C -1.186183 4.774798 -0.798325 0
M  V30 21 C 1.222805 0.715704 -1.848760 0
M  V30 22 C 1.722635 -0.554538 -1.662955 0
M  V30 23 O 2.880158 -1.076343 -2.167541 0
M  V30 24 C 3.809468 -0.417507 -2.988865 0
M  V30 25 N -0.192149 -4.525713 -0.410888 0
M  V30 26 C -0.791048 -5.472581 0.342514 0
M  V30 27 N -1.705230 -6.402816 0.024163 0
M  V30 28 C -2.022610 -7.142467 1.101672 0
M  V30 29 C -1.286744 -6.680893 2.177112 0
M  V30 30 C -0.510212 -5.628212 1.698651 0
M  V30 31 H 0.086733 -2.692701 4.347717 0
M  V30 32 H 1.659433 -2.308114 3.626641 0
M  V30 33 H 1.516255 -2.366513 5.457167 0
M  V30 34 H 1.554878 -4.745923 5.438187 0
M  V30 35 H 2.531698 -4.360315 3.947750 0
M  V30 36 H 2.230576 -3.070140 -1.009026 0
M  V30 37 H -0.836401 -1.658764 0.324531 0
M  V30 38 H -1.615042 0.661341 -0.095046 0
M  V30 39 H 0.099319 2.329550 1.180016 0
M  V30 40 H 0.119227 4.121848 1.291138 0
M  V30 41 H -1.709284 3.858755 2.577112 0
M  V30 42 H -2.042269 2.246991 1.925870 0
M  V30 43 H -3.702589 4.254919 1.445415 0
M  V30 44 H -3.268767 4.768194 -1.118578 0
M  V30 45 H -2.723890 5.871530 0.136154 0
M  V30 46 H -0.543205 5.524740 -0.295554 0
M  V30 47 H -1.158957 4.943848 -1.890106 0
M  V30 48 H 1.837807 1.374059 -2.479159 0
M  V30 49 H 3.692307 0.662157 -3.052607 0
M  V30 50 H 4.833561 -0.722892 -2.661664 0
M  V30 51 H 3.703036 -0.871562 -4.017701 0
M  V30 52 H -2.110725 -6.537528 -0.909507 0
M  V30 53 H -2.707063 -7.968935 1.234906 0
M  V30 54 H -1.285157 -7.038582 3.204650 0
M  V30 END ATOM
M  V30 BEGIN BOND
M  V30 1 1 1 2
M  V30 2 1 2 3
M  V30 3 1 3 4
M  V30 4 2 4 5
M  V30 5 1 5 6
M  V30 6 1 6 7
M  V30 7 1 7 8
M  V30 8 2 8 9
M  V30 9 1 9 10
M  V30 10 2 10 11
M  V30 11 1 11 12
M  V30 12 2 12 13
M  V30 13 1 12 14
M  V30 14 1 14 15
M  V30 15 1 15 16
M  V30 16 1 16 17
M  V30 17 1 17 18
M  V30 18 1 17 19
M  V30 19 1 19 20
M  V30 20 1 11 21
M  V30 21 2 21 22
M  V30 22 1 22 23
M  V30 23 1 23 24
M  V30 24 2 6 25
M  V30 25 1 25 26
M  V30 26 1 26 27
M  V30 27 1 27 28
M  V30 28 2 28 29
M  V30 29 1 29 30
M  V30 30 1 30 4
M  V30 31 1 22 8
M  V30 32 2 30 26
M  V30 33 1 20 14
M  V30 34 1 1 31
M  V30 35 1 1 32
M  V30 36 1 1 33
M  V30 37 1 2 34
M  V30 38 1 2 35
M  V30 39 1 7 36
M  V30 40 1 9 37
M  V30 41 1 10 38
M  V30 42 1 15 39
M  V30 43 1 15 40
M  V30 44 1 16 41
M  V30 45 1 16 42
M  V30 46 1 17 43
M  V30 47 1 19 44
M  V30 48 1 19 45
M  V30 49 1 20 46
M  V30 50 1 20 47
M  V30 51 1 21 48
M  V30 52 1 24 49
M  V30 53 1 24 50
M  V30 54 1 24 51
M  V30 55 1 27 52
M  V30 56 1 28 53
M  V30 57 1 29 54
M  V30 END BOND
M  V30 END CTAB
M  END
>  <Dataset>  (838) 
ChEMBL_Kinases

>  <Ligand_Instance>  (838) 
nan

>  <PDB_ID>  (838) 
nan

>  <Standardized_SMILES>  (838) 
CCOc1nc(Nc2ccc(C(=O)N3CCC(F)CC3)cc2OC)nc2[nH]ccc12

>  <Name>  (838) 
nan

>  <Pocket>  (838) 
nan

>  <ATP_Site>  (838) 
nan

>  <Peripheral>  (838) 
nan

>  <Num_H_Atoms_ProtBoundConf>  (838) 
nan

>  <Num_Resolved_Atoms>  (838) 
nan

>  <Num_Not_Resolved_Atoms>  (838) 
nan

$$$$
CHEMBL4443279
     RDKit          3D

  0  0  0  0  0  0  0  0  0  0999 V3000
M  V30 BEGIN CTAB
M  V30 COUNTS 38 41 0 0 0
M  V30 BEGIN ATOM
M  V30 1 F 1.760178 -5.316787 -1.319549 0
M  V30 2 C 1.535106 -5.535493 0.012555 0
M  V30 3 C 1.478199 -6.894128 0.304753 0
M  V30 4 C 1.287448 -7.315300 1.610222 0
M  V30 5 C 1.150622 -6.383131 2.643477 0
M  V30 6 C 1.218671 -5.058033 2.268262 0
M  V30 7 C 1.407296 -4.572089 0.978277 0
M  V30 8 O 1.468735 -3.252615 0.648916 0
M  V30 9 C 0.657734 -2.489080 -0.143911 0
M  V30 10 N 1.237340 -1.263843 -0.170045 0
M  V30 11 C 0.708757 -0.216297 -0.874060 0
M  V30 12 N 1.252762 1.109060 -0.937660 0
M  V30 13 C 0.682880 2.178437 -0.182203 0
M  V30 14 C -0.488698 1.866453 0.511293 0
M  V30 15 C -1.050701 2.908109 1.239155 0
M  V30 16 C -0.443590 4.155836 1.240290 0
M  V30 17 C -1.097457 5.200435 2.015918 0
M  V30 18 N -0.693704 6.506824 2.138642 0
M  V30 19 N -1.527571 7.170721 2.903563 0
M  V30 20 N -2.461832 6.331521 3.281423 0
M  V30 21 N -2.216321 5.132333 2.752591 0
M  V30 22 C 0.713546 4.419522 0.542399 0
M  V30 23 C 1.306909 3.407948 -0.197496 0
M  V30 24 N -0.439446 -0.412358 -1.572111 0
M  V30 25 C -1.040501 -1.618367 -1.565572 0
M  V30 26 C -0.501869 -2.669099 -0.852750 0
M  V30 27 Cl -1.176333 -4.253903 -0.719456 0
M  V30 28 H 1.567344 -7.729009 -0.381542 0
M  V30 29 H 1.233025 -8.369918 1.897423 0
M  V30 30 H 1.002664 -6.645978 3.677188 0
M  V30 31 H 1.114952 -4.298080 3.055978 0
M  V30 32 H 2.080201 1.201539 -1.570181 0
M  V30 33 H -0.911072 0.873575 0.468345 0
M  V30 34 H -1.975895 2.684569 1.793909 0
M  V30 35 H -2.784557 4.250736 2.871892 0
M  V30 36 H 1.163379 5.409433 0.569915 0
M  V30 37 H 2.218249 3.547055 -0.767565 0
M  V30 38 H -1.961733 -1.881731 -2.090106 0
M  V30 END ATOM
M  V30 BEGIN BOND
M  V30 1 1 1 2
M  V30 2 2 2 3
M  V30 3 1 3 4
M  V30 4 2 4 5
M  V30 5 1 5 6
M  V30 6 2 6 7
M  V30 7 1 7 8
M  V30 8 1 8 9
M  V30 9 2 9 10
M  V30 10 1 10 11
M  V30 11 1 11 12
M  V30 12 1 12 13
M  V30 13 2 13 14
M  V30 14 1 14 15
M  V30 15 2 15 16
M  V30 16 1 16 17
M  V30 17 2 17 18
M  V30 18 1 18 19
M  V30 19 2 19 20
M  V30 20 1 20 21
M  V30 21 1 16 22
M  V30 22 2 22 23
M  V30 23 2 11 24
M  V30 24 1 24 25
M  V30 25 2 25 26
M  V30 26 1 26 27
M  V30 27 1 7 2
M  V30 28 1 26 9
M  V30 29 1 23 13
M  V30 30 1 21 17
M  V30 31 1 3 28
M  V30 32 1 4 29
M  V30 33 1 5 30
M  V30 34 1 6 31
M  V30 35 1 12 32
M  V30 36 1 14 33
M  V30 37 1 15 34
M  V30 38 1 21 35
M  V30 39 1 22 36
M  V30 40 1 23 37
M  V30 41 1 25 38
M  V30 END BOND
M  V30 END CTAB
M  END
>  <Dataset>  (839) 
ChEMBL_Kinases

>  <Ligand_Instance>  (839) 
nan

>  <PDB_ID>  (839) 
nan

>  <Standardized_SMILES>  (839) 
Fc1ccccc1Oc1nc(Nc2ccc(-c3nnn[nH]3)cc2)ncc1Cl

>  <Name>  (839) 
nan

>  <Pocket>  (839) 
nan

>  <ATP_Site>  (839) 
nan

>  <Peripheral>  (839) 
nan

>  <Num_H_Atoms_ProtBoundConf>  (839) 
nan

>  <Num_Resolved_Atoms>  (839) 
nan

>  <Num_Not_Resolved_Atoms>  (839) 
nan

$$$$
CHEMBL444154
     RDKit          3D

  0  0  0  0  0  0  0  0  0  0999 V3000
M  V30 BEGIN CTAB
M  V30 COUNTS 36 38 0 0 0
M  V30 BEGIN ATOM
M  V30 1 C -1.650477 -2.778810 2.501192 0
M  V30 2 C -0.510831 -3.045682 1.577033 0
M  V30 3 C -0.477280 -4.499785 1.161208 0
M  V30 4 C 0.826492 -2.654515 2.166543 0
M  V30 5 C 0.908634 -1.205836 2.507536 0
M  V30 6 C 0.875262 -0.404677 1.271914 0
M  V30 7 N 0.450029 0.830017 0.972873 0
M  V30 8 C 0.627568 1.144405 -0.327809 0
M  V30 9 C 0.273647 2.406546 -0.979567 0
M  V30 10 C 0.516188 2.585610 -2.326093 0
M  V30 11 C 0.166564 3.796430 -2.908191 0
M  V30 12 N -0.399830 4.806336 -2.216641 0
M  V30 13 C -0.619591 4.590134 -0.903908 0
M  V30 14 C -0.303929 3.407228 -0.224269 0
M  V30 15 C 1.207805 0.043102 -0.922049 0
M  V30 16 C 1.350923 -0.892767 0.072294 0
M  V30 17 C 1.913791 -2.259549 0.005692 0
M  V30 18 O 2.374035 -2.794837 -1.046273 0
M  V30 19 N 1.909023 -2.978228 1.257476 0
M  V30 20 H -2.089439 -1.750484 2.353829 0
M  V30 21 H -2.503265 -3.466805 2.229609 0
M  V30 22 H -1.450486 -2.951022 3.565470 0
M  V30 23 H -0.653375 -2.440535 0.651930 0
M  V30 24 H 0.044222 -4.635103 0.186807 0
M  V30 25 H -1.508257 -4.915340 1.046007 0
M  V30 26 H -0.006061 -5.092601 1.982159 0
M  V30 27 H 0.929480 -3.251077 3.107336 0
M  V30 28 H 1.914989 -1.038599 2.959259 0
M  V30 29 H 0.176376 -0.878567 3.263271 0
M  V30 30 H 0.026625 1.463423 1.698863 0
M  V30 31 H 0.966867 1.812392 -2.928486 0
M  V30 32 H 0.330902 3.998265 -3.958834 0
M  V30 33 H -1.074796 5.366391 -0.287289 0
M  V30 34 H -0.511543 3.310479 0.831304 0
M  V30 35 H 1.497168 -0.069929 -1.967606 0
M  V30 36 H 2.686236 -3.682879 1.422393 0
M  V30 END ATOM
M  V30 BEGIN BOND
M  V30 1 1 1 2
M  V30 2 1 2 3
M  V30 3 1 2 4
M  V30 4 1 4 5
M  V30 5 1 5 6
M  V30 6 1 6 7
M  V30 7 1 7 8
M  V30 8 1 8 9
M  V30 9 2 9 10
M  V30 10 1 10 11
M  V30 11 2 11 12
M  V30 12 1 12 13
M  V30 13 2 13 14
M  V30 14 2 8 15
M  V30 15 1 15 16
M  V30 16 1 16 17
M  V30 17 2 17 18
M  V30 18 1 17 19
M  V30 19 1 19 4
M  V30 20 2 16 6
M  V30 21 1 14 9
M  V30 22 1 1 20
M  V30 23 1 1 21
M  V30 24 1 1 22
M  V30 25 1 2 23
M  V30 26 1 3 24
M  V30 27 1 3 25
M  V30 28 1 3 26
M  V30 29 1 4 27
M  V30 30 1 5 28
M  V30 31 1 5 29
M  V30 32 1 7 30
M  V30 33 1 10 31
M  V30 34 1 11 32
M  V30 35 1 13 33
M  V30 36 1 14 34
M  V30 37 1 15 35
M  V30 38 1 19 36
M  V30 END BOND
M  V30 END CTAB
M  END
>  <Dataset>  (840) 
ChEMBL_Kinases

>  <Ligand_Instance>  (840) 
nan

>  <PDB_ID>  (840) 
nan

>  <Standardized_SMILES>  (840) 
CC(C)C1Cc2[nH]c(-c3ccncc3)cc2C(=O)N1

>  <Name>  (840) 
nan

>  <Pocket>  (840) 
nan

>  <ATP_Site>  (840) 
nan

>  <Peripheral>  (840) 
nan

>  <Num_H_Atoms_ProtBoundConf>  (840) 
nan

>  <Num_Resolved_Atoms>  (840) 
nan

>  <Num_Not_Resolved_Atoms>  (840) 
nan

$$$$
CHEMBL4441416
     RDKit          3D

  0  0  0  0  0  0  0  0  0  0999 V3000
M  V30 BEGIN CTAB
M  V30 COUNTS 62 65 0 0 0
M  V30 BEGIN ATOM
M  V30 1 C 4.058677 -2.650691 0.954487 0
M  V30 2 N 5.330980 -2.006340 1.312138 0
M  V30 3 N 6.442434 -2.731919 1.315218 0
M  V30 4 C 7.499077 -1.985865 1.665103 0
M  V30 5 C 6.913317 -0.760798 1.867112 0
M  V30 6 Cl 8.036013 0.479760 2.345565 0
M  V30 7 C 5.560738 -0.730074 1.657462 0
M  V30 8 C 4.633013 0.340294 1.770034 0
M  V30 9 C 3.292019 0.240924 1.526264 0
M  V30 10 C 2.602829 1.421925 1.707703 0
M  V30 11 C 1.217707 1.854975 1.589125 0
M  V30 12 O 0.791352 2.986652 1.802816 0
M  V30 13 N 0.278845 0.885554 1.192225 0
M  V30 14 C -1.149041 0.938305 0.971271 0 CFG=2
M  V30 15 C -1.765134 0.103588 2.058013 0
M  V30 16 N -2.118706 -1.226617 1.606568 0
M  V30 17 C -3.168445 -1.003219 0.601889 0 CFG=2
M  V30 18 C -3.973597 -2.233017 0.371548 0
M  V30 19 C -3.197139 -3.417610 -0.115449 0
M  V30 20 N -2.187343 -3.732601 0.877720 0
M  V30 21 S -1.296920 -5.099816 0.306801 0
M  V30 22 C -2.291092 -6.535425 0.097359 0
M  V30 23 O -0.128104 -5.387622 1.233552 0
M  V30 24 O -0.704090 -4.714897 -1.011547 0
M  V30 25 C -2.456382 -0.525201 -0.633535 0
M  V30 26 C -1.613326 0.691135 -0.403439 0 CFG=1
M  V30 27 C -2.320219 1.824477 -1.062119 0
M  V30 28 C -3.413288 2.459082 -0.509392 0
M  V30 29 C -4.094035 3.505038 -1.091376 0
M  V30 30 C -3.677719 3.975379 -2.315015 0
M  V30 31 F -4.279840 4.997261 -2.967759 0
M  V30 32 C -2.594244 3.405502 -2.946424 0
M  V30 33 F -2.131011 3.814890 -4.146777 0
M  V30 34 C -1.961450 2.363820 -2.306940 0
M  V30 35 O 3.543589 2.297264 2.079396 0
M  V30 36 C 4.698000 1.664870 2.110529 0
M  V30 37 Cl 6.122346 2.549703 2.563955 0
M  V30 38 H 3.616006 -2.242013 0.046576 0
M  V30 39 H 4.254568 -3.752556 0.824821 0
M  V30 40 H 3.396133 -2.609253 1.837495 0
M  V30 41 H 8.464329 -2.435122 1.711376 0
M  V30 42 H 2.607895 -0.528646 1.222117 0
M  V30 43 H 0.533138 -0.119278 0.982053 0
M  V30 44 H -1.435114 1.993235 1.194912 0
M  V30 45 H -1.079585 -0.050142 2.917030 0
M  V30 46 H -2.695771 0.536198 2.474740 0
M  V30 47 H -2.510941 -1.704923 2.448375 0
M  V30 48 H -3.824848 -0.156003 0.920690 0
M  V30 49 H -4.477543 -2.534368 1.315904 0
M  V30 50 H -4.768016 -2.029576 -0.367599 0
M  V30 51 H -2.756697 -3.189414 -1.092037 0
M  V30 52 H -3.870572 -4.306121 -0.291393 0
M  V30 53 H -2.613766 -4.002080 1.783124 0
M  V30 54 H -3.362705 -6.319449 0.315312 0
M  V30 55 H -2.141145 -6.970188 -0.920993 0
M  V30 56 H -1.997409 -7.341013 0.823519 0
M  V30 57 H -3.208339 -0.344984 -1.450958 0
M  V30 58 H -1.877108 -1.394142 -1.005823 0
M  V30 59 H -0.704714 0.571875 -1.085105 0
M  V30 60 H -3.796819 2.161212 0.432497 0
M  V30 61 H -4.953983 3.979399 -0.621705 0
M  V30 62 H -1.097983 1.906423 -2.805302 0
M  V30 END ATOM
M  V30 BEGIN BOND
M  V30 1 1 1 2
M  V30 2 1 2 3
M  V30 3 2 3 4
M  V30 4 1 4 5
M  V30 5 1 5 6
M  V30 6 2 5 7
M  V30 7 1 7 8
M  V30 8 1 8 9
M  V30 9 2 9 10
M  V30 10 1 10 11
M  V30 11 2 11 12
M  V30 12 1 11 13
M  V30 13 1 13 14
M  V30 14 1 14 15
M  V30 15 1 15 16
M  V30 16 1 16 17
M  V30 17 1 17 18
M  V30 18 1 18 19
M  V30 19 1 19 20
M  V30 20 1 20 21
M  V30 21 1 21 22
M  V30 22 2 21 23
M  V30 23 2 21 24
M  V30 24 1 17 25
M  V30 25 1 25 26
M  V30 26 1 26 27
M  V30 27 2 27 28
M  V30 28 1 28 29
M  V30 29 2 29 30
M  V30 30 1 30 31
M  V30 31 1 30 32
M  V30 32 1 32 33
M  V30 33 2 32 34
M  V30 34 1 10 35
M  V30 35 1 35 36
M  V30 36 1 36 37
M  V30 37 1 7 2
M  V30 38 2 36 8
M  V30 39 1 26 14
M  V30 40 1 34 27
M  V30 41 1 1 38
M  V30 42 1 1 39
M  V30 43 1 1 40
M  V30 44 1 4 41
M  V30 45 1 9 42
M  V30 46 1 13 43
M  V30 47 1 14 44 CFG=1
M  V30 48 1 15 45
M  V30 49 1 15 46
M  V30 50 1 16 47
M  V30 51 1 17 48 CFG=1
M  V30 52 1 18 49
M  V30 53 1 18 50
M  V30 54 1 19 51
M  V30 55 1 19 52
M  V30 56 1 20 53
M  V30 57 1 22 54
M  V30 58 1 22 55
M  V30 59 1 22 56
M  V30 60 1 25 57
M  V30 61 1 25 58
M  V30 62 1 26 59 CFG=3
M  V30 63 1 28 60
M  V30 64 1 29 61
M  V30 65 1 34 62
M  V30 END BOND
M  V30 END CTAB
M  END
>  <Dataset>  (841) 
ChEMBL_Kinases

>  <Ligand_Instance>  (841) 
nan

>  <PDB_ID>  (841) 
nan

>  <Standardized_SMILES>  (841) 
Cn1ncc(Cl)c1-c1cc(C(=O)N[C@@H]2CN[C@H](CCNS(C)(=O)=O)C[C@H]2c2ccc(F)c(F)c2)oc1Cl

>  <Name>  (841) 
nan

>  <Pocket>  (841) 
nan

>  <ATP_Site>  (841) 
nan

>  <Peripheral>  (841) 
nan

>  <Num_H_Atoms_ProtBoundConf>  (841) 
nan

>  <Num_Resolved_Atoms>  (841) 
nan

>  <Num_Not_Resolved_Atoms>  (841) 
nan

$$$$
CHEMBL4441229
     RDKit          3D

  0  0  0  0  0  0  0  0  0  0999 V3000
M  V30 BEGIN CTAB
M  V30 COUNTS 80 85 0 0 0
M  V30 BEGIN ATOM
M  V30 1 C 0.345276 -1.734048 2.887014 0
M  V30 2 O -0.455326 -1.312307 3.967866 0
M  V30 3 C -0.005080 -0.706331 5.116470 0
M  V30 4 N 1.306384 -0.483408 5.230827 0
M  V30 5 C 1.810387 0.101836 6.326225 0
M  V30 6 C 0.906154 0.449495 7.304254 0
M  V30 7 C -0.444063 0.240924 7.229844 0
M  V30 8 C -0.934971 -0.361606 6.094291 0
M  V30 9 C -2.341167 -0.689229 5.806420 0
M  V30 10 N -3.002801 0.234439 4.919622 0
M  V30 11 C -2.946980 0.901413 3.683007 0
M  V30 12 N -2.547539 2.184499 3.852992 0
M  V30 13 C -2.426686 3.049298 2.814829 0
M  V30 14 C -2.736704 2.532861 1.587524 0
M  V30 15 C -2.611075 3.457427 0.471597 0
M  V30 16 N -2.509990 4.186160 -0.440252 0
M  V30 17 C -3.146950 1.234930 1.357514 0
M  V30 18 N -3.487848 0.821508 0.046917 0
M  V30 19 C -3.911268 -0.349666 -0.645473 0
M  V30 20 C -2.738806 -1.049316 -1.245414 0
M  V30 21 C -3.165308 -2.317835 -2.002709 0
M  V30 22 C -1.939967 -2.891837 -2.655915 0
M  V30 23 C -0.847141 -3.232104 -1.688716 0
M  V30 24 C -0.454116 -1.990368 -0.923946 0
M  V30 25 C -1.738093 -1.478083 -0.249822 0
M  V30 26 C 0.028529 -0.886610 -1.801307 0
M  V30 27 N 1.387028 -0.930510 -2.217531 0
M  V30 28 C 2.339063 -0.899294 -1.137467 0
M  V30 29 C 3.779992 -0.880360 -1.600219 0 CFG=1
M  V30 30 C 4.190959 -2.047873 -2.419733 0
M  V30 31 C 4.079179 -1.912102 -3.893099 0
M  V30 32 C 4.093616 -0.493482 -4.399549 0 CFG=2
M  V30 33 O 4.621016 -0.405376 -5.678255 0
M  V30 34 C 4.898220 0.390819 -3.467459 0
M  V30 35 C 4.090699 0.467044 -2.179750 0
M  V30 36 C -0.937409 -0.676291 -2.950838 0
M  V30 37 C -1.330573 -1.927644 -3.661497 0
M  V30 38 C -2.190500 -0.117441 -2.311904 0
M  V30 39 N -3.237781 0.449341 2.444509 0
M  V30 40 H 0.923781 -0.927697 2.441334 0
M  V30 41 H -0.331839 -2.213546 2.136090 0
M  V30 42 H 1.044773 -2.551334 3.182811 0
M  V30 43 H 2.864224 0.258828 6.367740 0
M  V30 44 H 1.313220 0.924336 8.194455 0
M  V30 45 H -1.160178 0.514907 7.999983 0
M  V30 46 H -2.352415 -1.675978 5.249310 0
M  V30 47 H -2.929290 -0.889869 6.723881 0
M  V30 48 H -3.918216 0.570674 5.326875 0
M  V30 49 H -2.113465 4.077520 2.923739 0
M  V30 50 H -3.419845 1.594963 -0.688801 0
M  V30 51 H -4.618871 -0.091283 -1.459092 0
M  V30 52 H -4.485861 -1.051621 0.027719 0
M  V30 53 H -3.900782 -2.116324 -2.784317 0
M  V30 54 H -3.526843 -3.065529 -1.278342 0
M  V30 55 H -2.273970 -3.806859 -3.208467 0
M  V30 56 H -1.248166 -3.951241 -0.956126 0
M  V30 57 H -0.018348 -3.676225 -2.245184 0
M  V30 58 H 0.254205 -2.232704 -0.135682 0
M  V30 59 H -1.483018 -0.772272 0.549893 0
M  V30 60 H -2.166683 -2.377603 0.286027 0
M  V30 61 H -0.079601 0.051264 -1.168819 0
M  V30 62 H 1.529360 -1.879089 -2.681323 0
M  V30 63 H 2.177259 -1.748584 -0.411140 0
M  V30 64 H 2.123426 0.018880 -0.555841 0
M  V30 65 H 4.377394 -0.931596 -0.639512 0
M  V30 66 H 5.265077 -2.294894 -2.167203 0
M  V30 67 H 3.629831 -2.937979 -2.060559 0
M  V30 68 H 4.974889 -2.410785 -4.365623 0
M  V30 69 H 3.208467 -2.502478 -4.258914 0
M  V30 70 H 3.054591 -0.117006 -4.381907 0
M  V30 71 H 3.933478 -0.063882 -6.279508 0
M  V30 72 H 4.898221 1.401118 -3.916533 0
M  V30 73 H 5.876449 -0.026368 -3.230261 0
M  V30 74 H 3.136886 0.999896 -2.446363 0
M  V30 75 H 4.605012 1.151176 -1.465394 0
M  V30 76 H -0.535063 0.059207 -3.655375 0
M  V30 77 H -0.532708 -2.444493 -4.191116 0
M  V30 78 H -2.158290 -1.660368 -4.350456 0
M  V30 79 H -1.998851 0.898727 -1.934154 0
M  V30 80 H -2.955184 -0.061311 -3.100903 0
M  V30 END ATOM
M  V30 BEGIN BOND
M  V30 1 1 1 2
M  V30 2 1 2 3
M  V30 3 2 3 4
M  V30 4 1 4 5
M  V30 5 2 5 6
M  V30 6 1 6 7
M  V30 7 2 7 8
M  V30 8 1 8 9
M  V30 9 1 9 10
M  V30 10 1 10 11
M  V30 11 2 11 12
M  V30 12 1 12 13
M  V30 13 2 13 14
M  V30 14 1 14 15
M  V30 15 3 15 16
M  V30 16 1 14 17
M  V30 17 1 17 18
M  V30 18 1 18 19
M  V30 19 1 19 20
M  V30 20 1 20 21
M  V30 21 1 21 22
M  V30 22 1 22 23
M  V30 23 1 23 24
M  V30 24 1 24 25
M  V30 25 1 24 26
M  V30 26 1 26 27
M  V30 27 1 27 28
M  V30 28 1 28 29
M  V30 29 1 29 30
M  V30 30 1 30 31
M  V30 31 1 31 32
M  V30 32 1 32 33
M  V30 33 1 32 34
M  V30 34 1 34 35
M  V30 35 1 26 36
M  V30 36 1 36 37
M  V30 37 1 36 38
M  V30 38 2 17 39
M  V30 39 1 8 3
M  V30 40 1 39 11
M  V30 41 1 25 20
M  V30 42 1 35 29
M  V30 43 1 38 20
M  V30 44 1 37 22
M  V30 45 1 1 40
M  V30 46 1 1 41
M  V30 47 1 1 42
M  V30 48 1 5 43
M  V30 49 1 6 44
M  V30 50 1 7 45
M  V30 51 1 9 46
M  V30 52 1 9 47
M  V30 53 1 10 48
M  V30 54 1 13 49
M  V30 55 1 18 50
M  V30 56 1 19 51
M  V30 57 1 19 52
M  V30 58 1 21 53
M  V30 59 1 21 54
M  V30 60 1 22 55
M  V30 61 1 23 56
M  V30 62 1 23 57
M  V30 63 1 24 58
M  V30 64 1 25 59
M  V30 65 1 25 60
M  V30 66 1 26 61
M  V30 67 1 27 62
M  V30 68 1 28 63
M  V30 69 1 28 64
M  V30 70 1 29 65 CFG=1
M  V30 71 1 30 66
M  V30 72 1 30 67
M  V30 73 1 31 68
M  V30 74 1 31 69
M  V30 75 1 32 70 CFG=3
M  V30 76 1 33 71
M  V30 77 1 34 72
M  V30 78 1 34 73
M  V30 79 1 35 74
M  V30 80 1 35 75
M  V30 81 1 36 76
M  V30 82 1 37 77
M  V30 83 1 37 78
M  V30 84 1 38 79
M  V30 85 1 38 80
M  V30 END BOND
M  V30 END CTAB
M  END
>  <Dataset>  (842) 
ChEMBL_Kinases

>  <Ligand_Instance>  (842) 
nan

>  <PDB_ID>  (842) 
nan

>  <Standardized_SMILES>  (842) 
COc1ncccc1CNc1ncc(C#N)c(NCC23CC4CC(C2)C(NC[C@H]2CC[C@H](O)CC2)C(C4)C3)n1

>  <Name>  (842) 
nan

>  <Pocket>  (842) 
nan

>  <ATP_Site>  (842) 
nan

>  <Peripheral>  (842) 
nan

>  <Num_H_Atoms_ProtBoundConf>  (842) 
nan

>  <Num_Resolved_Atoms>  (842) 
nan

>  <Num_Not_Resolved_Atoms>  (842) 
nan

$$$$
CHEMBL4441182
     RDKit          3D

  0  0  0  0  0  0  0  0  0  0999 V3000
M  V30 BEGIN CTAB
M  V30 COUNTS 50 53 0 0 0
M  V30 BEGIN ATOM
M  V30 1 C 2.256297 -5.164254 5.456324 0
M  V30 2 O 2.994128 -4.627429 4.365419 0
M  V30 3 C 2.342515 -4.137834 3.216406 0
M  V30 4 C 0.976823 -4.130933 3.049579 0
M  V30 5 N 0.386440 -3.652173 1.938305 0
M  V30 6 C 1.172243 -3.166814 0.966835 0
M  V30 7 C 0.617271 -2.653145 -0.207591 0
M  V30 8 C -0.880547 -2.700929 -0.281109 0
M  V30 9 C -1.526764 -1.544771 0.442914 0
M  V30 10 C -0.981091 -0.277434 -0.169799 0
M  V30 11 N -1.735053 -0.103172 -1.423160 0
M  V30 12 C -1.987453 1.161454 -2.065251 0
M  V30 13 O -2.587797 1.558314 -3.108273 0
M  V30 14 C -1.405449 2.290115 -1.335844 0
M  V30 15 C -0.230209 2.950399 -1.662562 0
M  V30 16 C 0.212819 3.998804 -0.879861 0
M  V30 17 C -0.544041 4.361549 0.224318 0
M  V30 18 O -0.156271 5.407295 1.058108 0
M  V30 19 C 0.674387 5.214410 2.188269 0
M  V30 20 F 0.878174 6.432886 2.805180 0
M  V30 21 F 0.117131 4.305370 3.057081 0
M  V30 22 F 1.888270 4.651964 1.786528 0
M  V30 23 C -1.727656 3.717277 0.574536 0
M  V30 24 C -2.147578 2.670446 -0.227494 0
M  V30 25 C -2.215048 -1.367939 -1.965780 0
M  V30 26 C -1.237809 -2.484165 -1.758839 0
M  V30 27 N 1.434274 -2.166870 -1.173775 0
M  V30 28 C 2.763788 -2.151596 -1.060484 0
M  V30 29 N 3.330719 -2.635976 0.052214 0
M  V30 30 C 2.568040 -3.139808 1.061731 0
M  V30 31 C 3.165229 -3.641949 2.223818 0
M  V30 32 H 1.380121 -4.549393 5.713985 0
M  V30 33 H 2.034624 -6.216759 5.240166 0
M  V30 34 H 2.920225 -5.135733 6.333984 0
M  V30 35 H 0.410413 -4.545828 3.893738 0
M  V30 36 H -1.275735 -3.682127 0.039620 0
M  V30 37 H -2.613594 -1.635169 0.300129 0
M  V30 38 H -1.364087 -1.583399 1.537377 0
M  V30 39 H -1.102091 0.592443 0.509009 0
M  V30 40 H 0.072805 -0.378241 -0.493147 0
M  V30 41 H 0.288997 2.597751 -2.543086 0
M  V30 42 H 1.128281 4.515375 -1.128184 0
M  V30 43 H -2.288065 4.031626 1.444606 0
M  V30 44 H -3.083950 2.193227 0.085086 0
M  V30 45 H -3.242727 -1.599066 -1.636226 0
M  V30 46 H -2.274365 -1.215270 -3.063531 0
M  V30 47 H -0.342184 -2.267541 -2.377182 0
M  V30 48 H -1.695045 -3.411879 -2.160294 0
M  V30 49 H 3.295062 -1.738892 -1.895055 0
M  V30 50 H 4.237055 -3.585655 2.220528 0
M  V30 END ATOM
M  V30 BEGIN BOND
M  V30 1 1 1 2
M  V30 2 1 2 3
M  V30 3 2 3 4
M  V30 4 1 4 5
M  V30 5 2 5 6
M  V30 6 1 6 7
M  V30 7 1 7 8
M  V30 8 1 8 9
M  V30 9 1 9 10
M  V30 10 1 10 11
M  V30 11 1 11 12
M  V30 12 2 12 13
M  V30 13 1 12 14
M  V30 14 2 14 15
M  V30 15 1 15 16
M  V30 16 2 16 17
M  V30 17 1 17 18
M  V30 18 1 18 19
M  V30 19 1 19 20
M  V30 20 1 19 21
M  V30 21 1 19 22
M  V30 22 1 17 23
M  V30 23 2 23 24
M  V30 24 1 11 25
M  V30 25 1 25 26
M  V30 26 2 7 27
M  V30 27 1 27 28
M  V30 28 2 28 29
M  V30 29 1 29 30
M  V30 30 2 30 31
M  V30 31 1 31 3
M  V30 32 1 30 6
M  V30 33 1 26 8
M  V30 34 1 24 14
M  V30 35 1 1 32
M  V30 36 1 1 33
M  V30 37 1 1 34
M  V30 38 1 4 35
M  V30 39 1 8 36
M  V30 40 1 9 37
M  V30 41 1 9 38
M  V30 42 1 10 39
M  V30 43 1 10 40
M  V30 44 1 15 41
M  V30 45 1 16 42
M  V30 46 1 23 43
M  V30 47 1 24 44
M  V30 48 1 25 45
M  V30 49 1 25 46
M  V30 50 1 26 47
M  V30 51 1 26 48
M  V30 52 1 28 49
M  V30 53 1 31 50
M  V30 END BOND
M  V30 END CTAB
M  END
>  <Dataset>  (843) 
ChEMBL_Kinases

>  <Ligand_Instance>  (843) 
nan

>  <PDB_ID>  (843) 
nan

>  <Standardized_SMILES>  (843) 
COc1cnc2c(C3CCN(C(=O)c4ccc(OC(F)(F)F)cc4)CC3)ncnc2c1

>  <Name>  (843) 
nan

>  <Pocket>  (843) 
nan

>  <ATP_Site>  (843) 
nan

>  <Peripheral>  (843) 
nan

>  <Num_H_Atoms_ProtBoundConf>  (843) 
nan

>  <Num_Resolved_Atoms>  (843) 
nan

>  <Num_Not_Resolved_Atoms>  (843) 
nan

$$$$
CHEMBL4441166
     RDKit          3D

  0  0  0  0  0  0  0  0  0  0999 V3000
M  V30 BEGIN CTAB
M  V30 COUNTS 57 62 0 0 0
M  V30 BEGIN ATOM
M  V30 1 C 0.702929 -4.825647 2.736614 0
M  V30 2 N 0.259878 -5.415827 1.489642 0
M  V30 3 C -0.149549 -4.414964 0.530625 0
M  V30 4 C 1.011567 -3.835709 -0.168662 0
M  V30 5 C 1.192851 -2.492075 -0.386100 0
M  V30 6 C 2.274482 -1.944133 -1.036815 0
M  V30 7 N 2.486283 -0.562639 -1.274798 0
M  V30 8 C 1.678521 0.523695 -0.919695 0
M  V30 9 N 2.029042 1.764753 -1.223070 0
M  V30 10 C 1.303704 2.847266 -0.914020 0
M  V30 11 C 0.110044 2.729275 -0.239545 0
M  V30 12 C -0.625873 3.840034 0.072978 0
M  V30 13 O -0.269167 4.996246 -0.226413 0
M  V30 14 C -1.812165 3.596438 0.754449 0
M  V30 15 C -2.694988 4.712313 1.147266 0
M  V30 16 C -2.520270 5.320432 2.375349 0
M  V30 17 Cl -1.275038 4.811536 3.498793 0
M  V30 18 C -3.383396 6.360634 2.680450 0
M  V30 19 C -4.387973 6.810209 1.836451 0
M  V30 20 C -4.502404 6.148023 0.616316 0
M  V30 21 C -3.671637 5.106850 0.259681 0
M  V30 22 Cl -3.919274 4.359733 -1.299140 0
M  V30 23 C -2.176500 2.302369 1.070219 0
M  V30 24 N -1.435155 1.229233 0.751346 0
M  V30 25 C -1.854599 -0.109606 1.100984 0
M  V30 26 C -0.271510 1.459730 0.083694 0
M  V30 27 N 0.517070 0.459171 -0.267771 0
M  V30 28 C 3.185540 -2.883452 -1.463674 0
M  V30 29 C 3.050831 -4.234037 -1.271599 0
M  V30 30 C 1.958784 -4.730709 -0.619539 0
M  V30 31 C 1.719179 -6.164459 -0.363537 0
M  V30 32 C 0.972132 -6.920356 -1.464956 0
M  V30 33 C 2.397101 -7.222521 -1.101266 0
M  V30 34 C 1.142273 -6.415172 0.998484 0
M  V30 35 H 1.175180 -3.819873 2.569272 0
M  V30 36 H -0.082317 -4.785035 3.516232 0
M  V30 37 H 1.498243 -5.502825 3.148378 0
M  V30 38 H -0.686837 -3.626024 1.083829 0
M  V30 39 H -0.878640 -4.886921 -0.155985 0
M  V30 40 H 0.415665 -1.846594 -0.008563 0
M  V30 41 H 3.379220 -0.335502 -1.791562 0
M  V30 42 H 1.657064 3.844527 -1.197759 0
M  V30 43 H -3.263479 6.851995 3.639942 0
M  V30 44 H -5.027990 7.631493 2.141674 0
M  V30 45 H -5.300762 6.532856 -0.011252 0
M  V30 46 H -3.106277 2.125149 1.602932 0
M  V30 47 H -1.332866 -0.525970 1.974907 0
M  V30 48 H -1.700269 -0.728162 0.178706 0
M  V30 49 H -2.965813 -0.060336 1.267203 0
M  V30 50 H 4.081609 -2.578183 -1.989794 0
M  V30 51 H 3.804344 -4.934108 -1.631180 0
M  V30 52 H 0.206840 -7.655055 -1.194912 0
M  V30 53 H 0.736072 -6.377316 -2.403720 0
M  V30 54 H 2.609861 -8.200252 -0.657871 0
M  V30 55 H 3.129781 -6.927473 -1.901989 0
M  V30 56 H 2.004666 -6.478954 1.701212 0
M  V30 57 H 0.666006 -7.437829 1.048651 0
M  V30 END ATOM
M  V30 BEGIN BOND
M  V30 1 1 1 2
M  V30 2 1 2 3
M  V30 3 1 3 4
M  V30 4 2 4 5
M  V30 5 1 5 6
M  V30 6 1 6 7
M  V30 7 1 7 8
M  V30 8 2 8 9
M  V30 9 1 9 10
M  V30 10 2 10 11
M  V30 11 1 11 12
M  V30 12 2 12 13
M  V30 13 1 12 14
M  V30 14 1 14 15
M  V30 15 2 15 16
M  V30 16 1 16 17
M  V30 17 1 16 18
M  V30 18 2 18 19
M  V30 19 1 19 20
M  V30 20 2 20 21
M  V30 21 1 21 22
M  V30 22 2 14 23
M  V30 23 1 23 24
M  V30 24 1 24 25
M  V30 25 1 24 26
M  V30 26 2 26 27
M  V30 27 2 6 28
M  V30 28 1 28 29
M  V30 29 2 29 30
M  V30 30 1 30 31
M  V30 31 1 31 32
M  V30 32 1 32 33
M  V30 33 1 31 34
M  V30 34 1 34 2
M  V30 35 1 30 4
M  V30 36 1 33 31
M  V30 37 1 27 8
M  V30 38 1 26 11
M  V30 39 1 21 15
M  V30 40 1 1 35
M  V30 41 1 1 36
M  V30 42 1 1 37
M  V30 43 1 3 38
M  V30 44 1 3 39
M  V30 45 1 5 40
M  V30 46 1 7 41
M  V30 47 1 10 42
M  V30 48 1 18 43
M  V30 49 1 19 44
M  V30 50 1 20 45
M  V30 51 1 23 46
M  V30 52 1 25 47
M  V30 53 1 25 48
M  V30 54 1 25 49
M  V30 55 1 28 50
M  V30 56 1 29 51
M  V30 57 1 32 52
M  V30 58 1 32 53
M  V30 59 1 33 54
M  V30 60 1 33 55
M  V30 61 1 34 56
M  V30 62 1 34 57
M  V30 END BOND
M  V30 END CTAB
M  END
>  <Dataset>  (844) 
ChEMBL_Kinases

>  <Ligand_Instance>  (844) 
nan

>  <PDB_ID>  (844) 
nan

>  <Standardized_SMILES>  (844) 
CN1Cc2cc(Nc3ncc4c(=O)c(-c5c(Cl)cccc5Cl)cn(C)c4n3)ccc2C2(CC2)C1

>  <Name>  (844) 
nan

>  <Pocket>  (844) 
nan

>  <ATP_Site>  (844) 
nan

>  <Peripheral>  (844) 
nan

>  <Num_H_Atoms_ProtBoundConf>  (844) 
nan

>  <Num_Resolved_Atoms>  (844) 
nan

>  <Num_Not_Resolved_Atoms>  (844) 
nan

$$$$
CHEMBL4441139
     RDKit          3D

  0  0  0  0  0  0  0  0  0  0999 V3000
M  V30 BEGIN CTAB
M  V30 COUNTS 44 46 0 0 0
M  V30 BEGIN ATOM
M  V30 1 N -2.007502 -4.239522 -2.068779 0
M  V30 2 C -0.809830 -3.928907 -1.277530 0
M  V30 3 C 0.109287 -3.025859 -2.017330 0
M  V30 4 C 1.135087 -3.397092 -2.862501 0
M  V30 5 C 1.912955 -2.444956 -3.485947 0
M  V30 6 C 1.712462 -1.083895 -3.302532 0
M  V30 7 C 0.691804 -0.687745 -2.461219 0
M  V30 8 C 0.394572 0.765315 -2.197290 0
M  V30 9 C 1.227460 1.127262 -1.017117 0
M  V30 10 C 2.519736 1.615030 -1.191421 0
M  V30 11 N 3.248213 1.933534 -0.106942 0
M  V30 12 C 2.741962 1.786209 1.150036 0
M  V30 13 N 3.623131 2.161899 2.201901 0
M  V30 14 C 1.460318 1.304224 1.370952 0
M  V30 15 C 0.996014 1.177295 2.745349 0
M  V30 16 O 1.807838 1.520823 3.639602 0
M  V30 17 N -0.267079 0.708175 3.126531 0
M  V30 18 C -0.838070 0.537237 4.413800 0
M  V30 19 C -2.120417 0.051073 4.536392 0
M  V30 20 C -2.708077 -0.128468 5.762741 0
M  V30 21 N -2.077044 0.155041 6.900209 0
M  V30 22 C -0.813831 0.636676 6.853184 0
M  V30 23 C -0.232225 0.813549 5.617280 0
M  V30 24 C 0.740031 0.987097 0.238844 0
M  V30 25 C -0.077343 -1.654450 -1.845122 0
M  V30 26 H -2.813228 -4.190061 -1.418687 0
M  V30 27 H -1.936081 -5.175298 -2.518773 0
M  V30 28 H -0.312798 -4.881964 -1.068976 0
M  V30 29 H -1.087154 -3.463752 -0.301572 0
M  V30 30 H 1.264406 -4.467043 -2.983515 0
M  V30 31 H 2.699175 -2.805134 -4.134799 0
M  V30 32 H 2.323884 -0.336705 -3.792596 0
M  V30 33 H 0.705021 1.408589 -3.035822 0
M  V30 34 H -0.661988 0.904335 -1.921711 0
M  V30 35 H 2.914869 1.729423 -2.188839 0
M  V30 36 H 4.394374 1.643391 2.679792 0
M  V30 37 H 3.435097 3.152467 2.536940 0
M  V30 38 H -0.850954 0.454278 2.298687 0
M  V30 39 H -2.682463 -0.197310 3.635311 0
M  V30 40 H -3.704336 -0.508854 5.785447 0
M  V30 41 H -0.295184 0.868925 7.767086 0
M  V30 42 H 0.756844 1.192710 5.635718 0
M  V30 43 H -0.245486 0.614956 0.367386 0
M  V30 44 H -0.875566 -1.303317 -1.186581 0
M  V30 END ATOM
M  V30 BEGIN BOND
M  V30 1 1 1 2
M  V30 2 1 2 3
M  V30 3 2 3 4
M  V30 4 1 4 5
M  V30 5 2 5 6
M  V30 6 1 6 7
M  V30 7 1 7 8
M  V30 8 1 8 9
M  V30 9 2 9 10
M  V30 10 1 10 11
M  V30 11 2 11 12
M  V30 12 1 12 13
M  V30 13 1 12 14
M  V30 14 1 14 15
M  V30 15 2 15 16
M  V30 16 1 15 17
M  V30 17 1 17 18
M  V30 18 2 18 19
M  V30 19 1 19 20
M  V30 20 2 20 21
M  V30 21 1 21 22
M  V30 22 2 22 23
M  V30 23 2 14 24
M  V30 24 2 7 25
M  V30 25 1 25 3
M  V30 26 1 24 9
M  V30 27 1 23 18
M  V30 28 1 1 26
M  V30 29 1 1 27
M  V30 30 1 2 28
M  V30 31 1 2 29
M  V30 32 1 4 30
M  V30 33 1 5 31
M  V30 34 1 6 32
M  V30 35 1 8 33
M  V30 36 1 8 34
M  V30 37 1 10 35
M  V30 38 1 13 36
M  V30 39 1 13 37
M  V30 40 1 17 38
M  V30 41 1 19 39
M  V30 42 1 20 40
M  V30 43 1 22 41
M  V30 44 1 23 42
M  V30 45 1 24 43
M  V30 46 1 25 44
M  V30 END BOND
M  V30 END CTAB
M  END
>  <Dataset>  (845) 
ChEMBL_Kinases

>  <Ligand_Instance>  (845) 
nan

>  <PDB_ID>  (845) 
nan

>  <Standardized_SMILES>  (845) 
NCc1cccc(Cc2cnc(N)c(C(=O)Nc3ccncc3)c2)c1

>  <Name>  (845) 
nan

>  <Pocket>  (845) 
nan

>  <ATP_Site>  (845) 
nan

>  <Peripheral>  (845) 
nan

>  <Num_H_Atoms_ProtBoundConf>  (845) 
nan

>  <Num_Resolved_Atoms>  (845) 
nan

>  <Num_Not_Resolved_Atoms>  (845) 
nan

$$$$
CHEMBL4751832
     RDKit          3D

  0  0  0  0  0  0  0  0  0  0999 V3000
M  V30 BEGIN CTAB
M  V30 COUNTS 58 62 0 0 0
M  V30 BEGIN ATOM
M  V30 1 C 3.499210 -1.820676 3.471750 0
M  V30 2 N 2.614775 -2.134692 2.364517 0
M  V30 3 C 1.461464 -1.514982 2.067979 0
M  V30 4 C 0.868796 -2.080891 0.929899 0
M  V30 5 C -0.419193 -1.573558 0.400679 0
M  V30 6 N -0.456912 -0.207373 0.350601 0
M  V30 7 C -1.599517 0.336042 -0.103143 0
M  V30 8 C -1.949241 1.676323 -0.272584 0
M  V30 9 C -1.045193 2.801916 0.045700 0
M  V30 10 C -0.870604 3.883349 -0.793346 0
M  V30 11 C -0.007561 4.917482 -0.447463 0
M  V30 12 N 0.660130 4.851842 0.722330 0
M  V30 13 C 0.518595 3.818566 1.565718 0
M  V30 14 O 1.170651 3.678220 2.787581 0
M  V30 15 C 2.069320 4.655074 3.251838 0
M  V30 16 C 3.268443 4.199124 4.010890 0
M  V30 17 C 2.164552 4.903224 4.738924 0
M  V30 18 C -0.341284 2.764431 1.245899 0
M  V30 19 C -3.243358 1.765942 -0.772606 0
M  V30 20 N -3.643575 0.468020 -0.892682 0
M  V30 21 N -2.689016 -0.334017 -0.504682 0
M  V30 22 C -2.612892 -1.671136 -0.440754 0
M  V30 23 C -1.505705 -2.356280 0.002333 0
M  V30 24 O -1.211224 -3.673601 0.147765 0
M  V30 25 C -1.927634 -4.820884 -0.097780 0
M  V30 26 C -2.394487 -5.088477 -1.481327 0
M  V30 27 C -1.318643 -5.183249 -2.528754 0
M  V30 28 C -0.304558 -6.251193 -2.294339 0
M  V30 29 C -0.706839 -3.845263 -2.820660 0
M  V30 30 O -1.998294 -5.551770 -3.722668 0
M  V30 31 C 1.759328 -3.075225 0.583781 0
M  V30 32 N 2.778422 -3.073396 1.458176 0
M  V30 33 H 4.227137 -1.010222 3.204104 0
M  V30 34 H 4.041791 -2.717289 3.820778 0
M  V30 35 H 2.912893 -1.398390 4.315007 0
M  V30 36 H 1.065095 -0.692898 2.644956 0
M  V30 37 H -1.414528 3.919744 -1.728499 0
M  V30 38 H 0.132582 5.773750 -1.108683 0
M  V30 39 H 2.195937 5.514008 2.565418 0
M  V30 40 H 4.216032 4.764189 3.824853 0
M  V30 41 H 3.447145 3.134214 4.240959 0
M  V30 42 H 2.351004 5.942133 5.110377 0
M  V30 43 H 1.502055 4.313240 5.422563 0
M  V30 44 H -0.479324 1.911346 1.907274 0
M  V30 45 H -3.782243 2.674950 -1.003546 0
M  V30 46 H -3.419335 -2.293484 -0.727339 0
M  V30 47 H -2.876429 -4.755594 0.528348 0
M  V30 48 H -1.431999 -5.740309 0.356509 0
M  V30 49 H -2.958946 -6.073055 -1.431721 0
M  V30 50 H -3.133689 -4.351567 -1.789099 0
M  V30 51 H 0.634048 -5.910441 -2.820924 0
M  V30 52 H -0.593373 -7.211630 -2.745172 0
M  V30 53 H 0.009525 -6.356434 -1.233887 0
M  V30 54 H 0.077294 -3.560069 -2.108347 0
M  V30 55 H -1.514174 -3.066379 -2.809037 0
M  V30 56 H -0.271099 -3.789498 -3.845846 0
M  V30 57 H -1.343944 -5.827034 -4.403050 0
M  V30 58 H 1.563196 -3.694024 -0.272304 0
M  V30 END ATOM
M  V30 BEGIN BOND
M  V30 1 1 1 2
M  V30 2 1 2 3
M  V30 3 2 3 4
M  V30 4 1 4 5
M  V30 5 2 5 6
M  V30 6 1 6 7
M  V30 7 2 7 8
M  V30 8 1 8 9
M  V30 9 2 9 10
M  V30 10 1 10 11
M  V30 11 2 11 12
M  V30 12 1 12 13
M  V30 13 1 13 14
M  V30 14 1 14 15
M  V30 15 1 15 16
M  V30 16 1 16 17
M  V30 17 2 13 18
M  V30 18 1 8 19
M  V30 19 2 19 20
M  V30 20 1 20 21
M  V30 21 1 21 22
M  V30 22 2 22 23
M  V30 23 1 23 24
M  V30 24 1 24 25
M  V30 25 1 25 26
M  V30 26 1 26 27
M  V30 27 1 27 28
M  V30 28 1 27 29
M  V30 29 1 27 30
M  V30 30 1 4 31
M  V30 31 2 31 32
M  V30 32 1 32 2
M  V30 33 1 23 5
M  V30 34 1 21 7
M  V30 35 1 18 9
M  V30 36 1 17 15
M  V30 37 1 1 33
M  V30 38 1 1 34
M  V30 39 1 1 35
M  V30 40 1 3 36
M  V30 41 1 10 37
M  V30 42 1 11 38
M  V30 43 1 15 39
M  V30 44 1 16 40
M  V30 45 1 16 41
M  V30 46 1 17 42
M  V30 47 1 17 43
M  V30 48 1 18 44
M  V30 49 1 19 45
M  V30 50 1 22 46
M  V30 51 1 25 47
M  V30 52 1 25 48
M  V30 53 1 26 49
M  V30 54 1 26 50
M  V30 55 1 28 51
M  V30 56 1 28 52
M  V30 57 1 28 53
M  V30 58 1 29 54
M  V30 59 1 29 55
M  V30 60 1 29 56
M  V30 61 1 30 57
M  V30 62 1 31 58
M  V30 END BOND
M  V30 END CTAB
M  END
>  <Dataset>  (846) 
ChEMBL_Kinases

>  <Ligand_Instance>  (846) 
nan

>  <PDB_ID>  (846) 
nan

>  <Standardized_SMILES>  (846) 
Cn1cc(-c2nc3c(-c4ccnc(OC5CC5)c4)cnn3cc2OCCC(C)(C)O)cn1

>  <Name>  (846) 
nan

>  <Pocket>  (846) 
nan

>  <ATP_Site>  (846) 
nan

>  <Peripheral>  (846) 
nan

>  <Num_H_Atoms_ProtBoundConf>  (846) 
nan

>  <Num_Resolved_Atoms>  (846) 
nan

>  <Num_Not_Resolved_Atoms>  (846) 
nan

$$$$
CHEMBL4751837
     RDKit          3D

  0  0  0  0  0  0  0  0  0  0999 V3000
M  V30 BEGIN CTAB
M  V30 COUNTS 27 29 0 0 0
M  V30 BEGIN ATOM
M  V30 1 C -1.961807 -1.708215 3.232315 0
M  V30 2 C -0.475940 -1.411946 3.305063 0
M  V30 3 N -0.018902 -0.989762 1.993907 0
M  V30 4 C 0.438813 -1.851046 1.066098 0
M  V30 5 O 0.482925 -3.079802 1.320467 0
M  V30 6 C 0.863803 -1.404089 -0.169448 0
M  V30 7 C 1.333501 -2.314688 -1.113482 0
M  V30 8 C 1.751557 -1.808561 -2.348816 0
M  V30 9 F 2.203398 -2.710578 -3.249141 0
M  V30 10 C 1.726855 -0.469791 -2.686537 0
M  V30 11 C 1.254525 0.418150 -1.728876 0
M  V30 12 C 0.844444 -0.071588 -0.519126 0
M  V30 13 N 0.386055 0.766017 0.417533 0
M  V30 14 C 0.227609 2.095174 0.429367 0
M  V30 15 S 0.510605 3.245112 -0.649085 0
M  V30 16 N -0.274240 2.457928 1.621177 0
M  V30 17 N -0.436123 1.357016 2.371053 0
M  V30 18 C -0.020917 0.300129 1.612069 0
M  V30 19 H -2.287131 -2.410895 4.020100 0
M  V30 20 H -2.158295 -2.094111 2.211078 0
M  V30 21 H -2.481316 -0.727138 3.283828 0
M  V30 22 H -0.261182 -0.646891 4.083543 0
M  V30 23 H 0.032981 -2.350948 3.556196 0
M  V30 24 H 1.377235 -3.380153 -0.907127 0
M  V30 25 H 2.072996 -0.187248 -3.668344 0
M  V30 26 H 1.260021 1.438883 -2.049447 0
M  V30 27 H -0.545810 3.394680 2.043869 0
M  V30 END ATOM
M  V30 BEGIN BOND
M  V30 1 1 1 2
M  V30 2 1 2 3
M  V30 3 1 3 4
M  V30 4 2 4 5
M  V30 5 1 4 6
M  V30 6 2 6 7
M  V30 7 1 7 8
M  V30 8 1 8 9
M  V30 9 2 8 10
M  V30 10 1 10 11
M  V30 11 2 11 12
M  V30 12 1 12 13
M  V30 13 1 13 14
M  V30 14 2 14 15
M  V30 15 1 14 16
M  V30 16 1 16 17
M  V30 17 2 17 18
M  V30 18 1 18 3
M  V30 19 1 12 6
M  V30 20 1 18 13
M  V30 21 1 1 19
M  V30 22 1 1 20
M  V30 23 1 1 21
M  V30 24 1 2 22
M  V30 25 1 2 23
M  V30 26 1 7 24
M  V30 27 1 10 25
M  V30 28 1 11 26
M  V30 29 1 16 27
M  V30 END BOND
M  V30 END CTAB
M  END
>  <Dataset>  (847) 
ChEMBL_Kinases

>  <Ligand_Instance>  (847) 
nan

>  <PDB_ID>  (847) 
nan

>  <Standardized_SMILES>  (847) 
CCn1c(=O)c2cc(F)ccc2n2c(=S)[nH]nc12

>  <Name>  (847) 
nan

>  <Pocket>  (847) 
nan

>  <ATP_Site>  (847) 
nan

>  <Peripheral>  (847) 
nan

>  <Num_H_Atoms_ProtBoundConf>  (847) 
nan

>  <Num_Resolved_Atoms>  (847) 
nan

>  <Num_Not_Resolved_Atoms>  (847) 
nan

$$$$
CHEMBL4751865
     RDKit          3D

  0  0  0  0  0  0  0  0  0  0999 V3000
M  V30 BEGIN CTAB
M  V30 COUNTS 53 56 0 0 0
M  V30 BEGIN ATOM
M  V30 1 C -0.951081 2.589023 -0.858485 0
M  V30 2 C 0.400923 2.095195 -0.473265 0
M  V30 3 C 1.544537 2.456004 -1.180222 0
M  V30 4 C 2.808150 2.011182 -0.842354 0
M  V30 5 C 2.972130 1.170375 0.240360 0
M  V30 6 C 4.245983 0.629482 0.703646 0
M  V30 7 O 4.363622 -0.145831 1.708935 0
M  V30 8 N 5.479310 0.929388 0.059346 0
M  V30 9 C 6.768895 0.406330 0.495858 0
M  V30 10 C 7.740718 0.029207 -0.664245 0
M  V30 11 C 7.980976 1.252363 0.139176 0
M  V30 12 C 1.848015 0.798029 0.958730 0
M  V30 13 C 0.605084 1.250891 0.606066 0
M  V30 14 N -0.539225 0.855330 1.359206 0
M  V30 15 C -0.737829 1.312131 2.607581 0
M  V30 16 C -1.851693 0.914039 3.312953 0
M  V30 17 N -2.717785 0.084529 2.755410 0
M  V30 18 C -2.596105 -0.419762 1.513204 0
M  V30 19 N -3.543513 -1.325303 0.907261 0
M  V30 20 C -4.657122 -1.661214 1.744544 0
M  V30 21 C -5.581117 -2.614949 1.029142 0
M  V30 22 C -4.878731 -3.870402 0.674594 0
M  V30 23 C -4.875427 -4.876842 1.646593 0
M  V30 24 C -4.288278 -6.107566 1.507709 0
M  V30 25 C -3.645845 -6.398358 0.328184 0
M  V30 26 C -3.628469 -5.433131 -0.651182 0
M  V30 27 C -4.224927 -4.201215 -0.492637 0
M  V30 28 C -1.460337 0.017274 0.860158 0
M  V30 29 O -1.235403 -0.386260 -0.311613 0
M  V30 30 H -0.905080 3.699688 -1.011921 0
M  V30 31 H -1.350551 2.048259 -1.738557 0
M  V30 32 H -1.638543 2.424801 -0.013740 0
M  V30 33 H 1.425774 3.118508 -2.035408 0
M  V30 34 H 3.680640 2.288064 -1.383855 0
M  V30 35 H 5.486112 1.558123 -0.776327 0
M  V30 36 H 6.793388 -0.257810 1.372563 0
M  V30 37 H 7.330547 0.168645 -1.691825 0
M  V30 38 H 8.357973 -0.877086 -0.527074 0
M  V30 39 H 7.781919 2.244585 -0.314962 0
M  V30 40 H 8.873738 1.245416 0.784298 0
M  V30 41 H 1.916526 0.149900 1.804878 0
M  V30 42 H -0.031694 1.990224 3.065941 0
M  V30 43 H -2.050001 1.255722 4.316058 0
M  V30 44 H -3.289857 -1.613200 -0.061802 0
M  V30 45 H -4.254966 -2.128604 2.681033 0
M  V30 46 H -5.277904 -0.756088 2.004334 0
M  V30 47 H -5.956492 -2.136266 0.080649 0
M  V30 48 H -6.446794 -2.879529 1.674250 0
M  V30 49 H -5.367916 -4.705640 2.601165 0
M  V30 50 H -4.321236 -6.843192 2.298694 0
M  V30 51 H -3.152857 -7.337742 0.120406 0
M  V30 52 H -3.132152 -5.601378 -1.617349 0
M  V30 53 H -4.229961 -3.429320 -1.248503 0
M  V30 END ATOM
M  V30 BEGIN BOND
M  V30 1 1 1 2
M  V30 2 2 2 3
M  V30 3 1 3 4
M  V30 4 2 4 5
M  V30 5 1 5 6
M  V30 6 2 6 7
M  V30 7 1 6 8
M  V30 8 1 8 9
M  V30 9 1 9 10
M  V30 10 1 10 11
M  V30 11 1 5 12
M  V30 12 2 12 13
M  V30 13 1 13 14
M  V30 14 1 14 15
M  V30 15 2 15 16
M  V30 16 1 16 17
M  V30 17 2 17 18
M  V30 18 1 18 19
M  V30 19 1 19 20
M  V30 20 1 20 21
M  V30 21 1 21 22
M  V30 22 2 22 23
M  V30 23 1 23 24
M  V30 24 2 24 25
M  V30 25 1 25 26
M  V30 26 2 26 27
M  V30 27 1 18 28
M  V30 28 2 28 29
M  V30 29 1 13 2
M  V30 30 1 28 14
M  V30 31 1 11 9
M  V30 32 1 27 22
M  V30 33 1 1 30
M  V30 34 1 1 31
M  V30 35 1 1 32
M  V30 36 1 3 33
M  V30 37 1 4 34
M  V30 38 1 8 35
M  V30 39 1 9 36
M  V30 40 1 10 37
M  V30 41 1 10 38
M  V30 42 1 11 39
M  V30 43 1 11 40
M  V30 44 1 12 41
M  V30 45 1 15 42
M  V30 46 1 16 43
M  V30 47 1 19 44
M  V30 48 1 20 45
M  V30 49 1 20 46
M  V30 50 1 21 47
M  V30 51 1 21 48
M  V30 52 1 23 49
M  V30 53 1 24 50
M  V30 54 1 25 51
M  V30 55 1 26 52
M  V30 56 1 27 53
M  V30 END BOND
M  V30 END CTAB
M  END
>  <Dataset>  (848) 
ChEMBL_Kinases

>  <Ligand_Instance>  (848) 
nan

>  <PDB_ID>  (848) 
nan

>  <Standardized_SMILES>  (848) 
Cc1ccc(C(=O)NC2CC2)cc1-n1ccnc(NCCc2ccccc2)c1=O

>  <Name>  (848) 
nan

>  <Pocket>  (848) 
nan

>  <ATP_Site>  (848) 
nan

>  <Peripheral>  (848) 
nan

>  <Num_H_Atoms_ProtBoundConf>  (848) 
nan

>  <Num_Resolved_Atoms>  (848) 
nan

>  <Num_Not_Resolved_Atoms>  (848) 
nan

$$$$
CHEMBL4440988
     RDKit          3D

  0  0  0  0  0  0  0  0  0  0999 V3000
M  V30 BEGIN CTAB
M  V30 COUNTS 41 44 0 0 0
M  V30 BEGIN ATOM
M  V30 1 N 0.457849 -3.895510 3.276083 0
M  V30 2 C 1.757932 -4.078812 2.763532 0
M  V30 3 O 2.398496 -4.972761 3.335313 0
M  V30 4 C 2.380534 -3.341391 1.671985 0
M  V30 5 C 3.665042 -3.617244 1.257069 0
M  V30 6 N 3.935475 -2.758018 0.232773 0
M  V30 7 C 2.866395 -1.981305 0.019248 0
M  V30 8 C 2.542545 -0.961926 -0.845464 0
M  V30 9 C 1.278002 -0.369635 -0.763482 0
M  V30 10 C 0.335982 -0.782074 0.168798 0
M  V30 11 C -0.878143 0.002935 0.031302 0
M  V30 12 C -0.997266 1.370888 0.245097 0
M  V30 13 C 0.065405 2.290749 0.654918 0
M  V30 14 C 0.566313 3.390472 -0.006713 0
M  V30 15 C 1.578475 4.107239 0.586334 0
M  V30 16 C 2.102766 3.760896 1.813428 0
M  V30 17 F 3.098715 4.484645 2.372980 0
M  V30 18 C 1.615666 2.662191 2.494441 0
M  V30 19 C 0.589868 1.936227 1.892850 0
M  V30 20 N -2.285007 1.686170 0.000666 0
M  V30 21 C -2.972650 0.594812 -0.352253 0
M  V30 22 N -2.097702 -0.431968 -0.329520 0
M  V30 23 C -2.536461 -1.765975 -0.662048 0
M  V30 24 C -3.039669 -2.513812 0.516706 0
M  V30 25 F -2.159270 -2.701132 1.532100 0
M  V30 26 F -4.258620 -1.992637 0.967469 0
M  V30 27 N 0.729200 -1.780821 0.974569 0
M  V30 28 N 1.918309 -2.341495 0.901437 0
M  V30 29 H 0.610004 -3.260649 4.108542 0
M  V30 30 H -0.529899 -4.166251 3.108396 0
M  V30 31 H 4.376650 -4.350163 1.619390 0
M  V30 32 H 3.307393 -0.676301 -1.552120 0
M  V30 33 H 1.176274 0.421212 -1.515098 0
M  V30 34 H 0.085550 3.569766 -0.955229 0
M  V30 35 H 1.932749 4.963258 0.017887 0
M  V30 36 H 2.042550 2.410116 3.455507 0
M  V30 37 H 0.273536 1.087280 2.508161 0
M  V30 38 H -4.027380 0.596046 -0.597773 0
M  V30 39 H -1.704722 -2.374513 -1.106422 0
M  V30 40 H -3.326945 -1.770635 -1.438999 0
M  V30 41 H -3.321108 -3.545923 0.153218 0
M  V30 END ATOM
M  V30 BEGIN BOND
M  V30 1 1 1 2
M  V30 2 2 2 3
M  V30 3 1 2 4
M  V30 4 2 4 5
M  V30 5 1 5 6
M  V30 6 2 6 7
M  V30 7 1 7 8
M  V30 8 2 8 9
M  V30 9 1 9 10
M  V30 10 1 10 11
M  V30 11 2 11 12
M  V30 12 1 12 13
M  V30 13 2 13 14
M  V30 14 1 14 15
M  V30 15 2 15 16
M  V30 16 1 16 17
M  V30 17 1 16 18
M  V30 18 2 18 19
M  V30 19 1 12 20
M  V30 20 2 20 21
M  V30 21 1 21 22
M  V30 22 1 22 23
M  V30 23 1 23 24
M  V30 24 1 24 25
M  V30 25 1 24 26
M  V30 26 2 10 27
M  V30 27 1 27 28
M  V30 28 1 28 4
M  V30 29 1 28 7
M  V30 30 1 22 11
M  V30 31 1 19 13
M  V30 32 1 1 29
M  V30 33 1 1 30
M  V30 34 1 5 31
M  V30 35 1 8 32
M  V30 36 1 9 33
M  V30 37 1 14 34
M  V30 38 1 15 35
M  V30 39 1 18 36
M  V30 40 1 19 37
M  V30 41 1 21 38
M  V30 42 1 23 39
M  V30 43 1 23 40
M  V30 44 1 24 41
M  V30 END BOND
M  V30 END CTAB
M  END
>  <Dataset>  (849) 
ChEMBL_Kinases

>  <Ligand_Instance>  (849) 
nan

>  <PDB_ID>  (849) 
nan

>  <Standardized_SMILES>  (849) 
NC(=O)c1cnc2ccc(-c3c(-c4ccc(F)cc4)ncn3CC(F)F)nn12

>  <Name>  (849) 
nan

>  <Pocket>  (849) 
nan

>  <ATP_Site>  (849) 
nan

>  <Peripheral>  (849) 
nan

>  <Num_H_Atoms_ProtBoundConf>  (849) 
nan

>  <Num_Resolved_Atoms>  (849) 
nan

>  <Num_Not_Resolved_Atoms>  (849) 
nan

$$$$
CHEMBL4751957
     RDKit          3D

  0  0  0  0  0  0  0  0  0  0999 V3000
M  V30 BEGIN CTAB
M  V30 COUNTS 59 64 0 0 0
M  V30 BEGIN ATOM
M  V30 1 O 0.172803 2.490316 0.430238 0
M  V30 2 C -0.063749 2.044732 1.562280 0
M  V30 3 N 0.685606 2.265351 2.758020 0
M  V30 4 C 1.841754 3.109225 2.580902 0
M  V30 5 C 3.048144 2.485509 2.245625 0
M  V30 6 C 4.175538 3.272686 2.071001 0
M  V30 7 C 4.051458 4.632081 2.236368 0
M  V30 8 C 2.857141 5.257867 2.568910 0
M  V30 9 C 2.777270 6.752396 2.739143 0
M  V30 10 F 1.612786 7.042295 3.430291 0
M  V30 11 F 3.895303 7.270068 3.323774 0
M  V30 12 F 2.604549 7.255904 1.448914 0
M  V30 13 C 1.728700 4.460704 2.742721 0
M  V30 14 O -1.192267 1.246032 1.633815 0
M  V30 15 C -2.003532 0.959787 0.510680 0 CFG=2
M  V30 16 C -3.459875 1.152388 0.773812 0
M  V30 17 O -4.070604 0.244885 -0.082156 0
M  V30 18 C -3.286935 -0.903317 -0.129346 0 CFG=1
M  V30 19 C -1.934903 -0.568509 0.357368 0 CFG=2
M  V30 20 O -1.686664 -1.206723 1.532857 0
M  V30 21 C -2.671038 -2.122963 1.776795 0
M  V30 22 C -3.844703 -1.850080 0.902452 0 CFG=2
M  V30 23 N -4.295613 -3.057915 0.196804 0
M  V30 24 C -3.461240 -3.967684 -0.500204 0
M  V30 25 N -4.019849 -5.029536 -1.146629 0
M  V30 26 C -3.233710 -5.900175 -1.796738 0
M  V30 27 C -1.863742 -5.794674 -1.858880 0
M  V30 28 C -1.311754 -4.717586 -1.200874 0
M  V30 29 C 0.127469 -4.497343 -1.170424 0
M  V30 30 C 0.653458 -3.423363 -0.482691 0
M  V30 31 C 2.010306 -3.166245 -0.423774 0
M  V30 32 C 2.887793 -4.007330 -1.072817 0
M  V30 33 C 2.400940 -5.090695 -1.770273 0
M  V30 34 C 1.033471 -5.314975 -1.806102 0
M  V30 35 O 3.493653 -5.749822 -2.313697 0
M  V30 36 C 4.686154 -5.023784 -2.096483 0
M  V30 37 O 4.265729 -4.017944 -1.197844 0
M  V30 38 N -2.137805 -3.871817 -0.564114 0
M  V30 39 H 0.366449 1.819743 3.662089 0
M  V30 40 H 3.164335 1.425335 2.112437 0
M  V30 41 H 5.161856 2.859468 1.807356 0
M  V30 42 H 4.886027 5.305614 2.116235 0
M  V30 43 H 0.804072 4.946709 3.000307 0
M  V30 44 H -1.634361 1.446879 -0.411456 0
M  V30 45 H -3.715054 2.194969 0.449696 0
M  V30 46 H -3.705020 0.958847 1.828426 0
M  V30 47 H -3.312773 -1.336531 -1.149327 0
M  V30 48 H -1.187680 -0.768524 -0.459526 0
M  V30 49 H -3.014218 -2.019641 2.850560 0
M  V30 50 H -2.285684 -3.170611 1.693435 0
M  V30 51 H -4.674291 -1.408314 1.480392 0
M  V30 52 H -5.337648 -3.251211 0.221415 0
M  V30 53 H -3.765396 -6.710177 -2.281141 0
M  V30 54 H -1.280232 -6.516870 -2.392132 0
M  V30 55 H 0.043808 -2.734278 0.042965 0
M  V30 56 H 2.400797 -2.305514 0.129963 0
M  V30 57 H 0.711349 -6.164751 -2.359196 0
M  V30 58 H 5.434557 -5.635314 -1.522318 0
M  V30 59 H 5.135934 -4.610508 -3.020356 0
M  V30 END ATOM
M  V30 BEGIN BOND
M  V30 1 2 1 2
M  V30 2 1 2 3
M  V30 3 1 3 4
M  V30 4 2 4 5
M  V30 5 1 5 6
M  V30 6 2 6 7
M  V30 7 1 7 8
M  V30 8 1 8 9
M  V30 9 1 9 10
M  V30 10 1 9 11
M  V30 11 1 9 12
M  V30 12 2 8 13
M  V30 13 1 2 14
M  V30 14 1 14 15
M  V30 15 1 15 16
M  V30 16 1 16 17
M  V30 17 1 17 18
M  V30 18 1 18 19
M  V30 19 1 19 20
M  V30 20 1 20 21
M  V30 21 1 21 22
M  V30 22 1 22 23
M  V30 23 1 23 24
M  V30 24 2 24 25
M  V30 25 1 25 26
M  V30 26 2 26 27
M  V30 27 1 27 28
M  V30 28 1 28 29
M  V30 29 2 29 30
M  V30 30 1 30 31
M  V30 31 2 31 32
M  V30 32 1 32 33
M  V30 33 2 33 34
M  V30 34 1 33 35
M  V30 35 1 35 36
M  V30 36 1 36 37
M  V30 37 2 28 38
M  V30 38 1 13 4
M  V30 39 1 19 15
M  V30 40 1 38 24
M  V30 41 1 22 18
M  V30 42 1 34 29
M  V30 43 1 37 32
M  V30 44 1 3 39
M  V30 45 1 5 40
M  V30 46 1 6 41
M  V30 47 1 7 42
M  V30 48 1 13 43
M  V30 49 1 15 44 CFG=3
M  V30 50 1 16 45
M  V30 51 1 16 46
M  V30 52 1 18 47 CFG=3
M  V30 53 1 19 48 CFG=3
M  V30 54 1 21 49
M  V30 55 1 21 50
M  V30 56 1 22 51 CFG=1
M  V30 57 1 23 52
M  V30 58 1 26 53
M  V30 59 1 27 54
M  V30 60 1 30 55
M  V30 61 1 31 56
M  V30 62 1 34 57
M  V30 63 1 36 58
M  V30 64 1 36 59
M  V30 END BOND
M  V30 END CTAB
M  END
>  <Dataset>  (850) 
ChEMBL_Kinases

>  <Ligand_Instance>  (850) 
nan

>  <PDB_ID>  (850) 
nan

>  <Standardized_SMILES>  (850) 
O=C(Nc1cccc(C(F)(F)F)c1)O[C@@H]1CO[C@H]2[C@@H]1OC[C@@H]2Nc1nccc(-c2ccc3c(c2)OCO3)n1

>  <Name>  (850) 
nan

>  <Pocket>  (850) 
nan

>  <ATP_Site>  (850) 
nan

>  <Peripheral>  (850) 
nan

>  <Num_H_Atoms_ProtBoundConf>  (850) 
nan

>  <Num_Resolved_Atoms>  (850) 
nan

>  <Num_Not_Resolved_Atoms>  (850) 
nan

$$$$
CHEMBL4751968
     RDKit          3D

  0  0  0  0  0  0  0  0  0  0999 V3000
M  V30 BEGIN CTAB
M  V30 COUNTS 100 105 0 0 0
M  V30 BEGIN ATOM
M  V30 1 C 7.100443 -5.711963 3.577395 0
M  V30 2 N 6.484965 -4.717263 2.683374 0
M  V30 3 C 6.229341 -3.484444 3.311750 0
M  V30 4 O 6.518885 -3.310417 4.516922 0
M  V30 5 C 5.621795 -2.416409 2.529222 0
M  V30 6 S 5.284982 -0.790618 3.354343 0
M  V30 7 C 4.595379 -0.052519 1.869244 0
M  V30 8 C 4.012076 1.342354 1.659101 0
M  V30 9 C 3.611813 1.712469 0.395910 0
M  V30 10 C 3.084135 2.979923 0.363718 0
M  V30 11 N 2.965234 3.776392 1.431642 0
M  V30 12 C 3.362712 3.393191 2.655210 0
M  V30 13 N 3.175638 4.302362 3.721986 0
M  V30 14 C 3.473197 4.173969 5.095020 0
M  V30 15 O 3.990622 3.111701 5.495948 0
M  V30 16 C 3.209332 5.224508 6.110097 0
M  V30 17 C 2.611457 4.811157 7.425837 0
M  V30 18 C 3.992532 5.373590 7.335881 0
M  V30 19 C 3.907767 2.136552 2.790922 0
M  V30 20 N 4.674156 -0.925753 1.072247 0
M  V30 21 C 5.157045 -2.131777 1.271276 0
M  V30 22 O 5.271036 -3.210261 0.371176 0
M  V30 23 C 4.811784 -2.999816 -0.972438 0
M  V30 24 C 4.911960 -4.219545 -1.827508 0
M  V30 25 C 4.432906 -4.018101 -3.252379 0
M  V30 26 C 2.993974 -3.531926 -3.270453 0
M  V30 27 C 2.429102 -3.349573 -4.649056 0
M  V30 28 C 0.993468 -2.821885 -4.600019 0
M  V30 29 C 0.928188 -1.475208 -3.962163 0
M  V30 30 C -0.445142 -0.877491 -3.843721 0
M  V30 31 C -1.071319 -0.759294 -5.191078 0
M  V30 32 C -2.463752 -0.136531 -5.112233 0
M  V30 33 C -2.441028 1.275121 -4.588173 0
M  V30 34 C -3.800102 1.892098 -4.439846 0
M  V30 35 O -4.659954 1.284987 -3.546367 0
M  V30 36 C -4.542627 1.142837 -2.183273 0
M  V30 37 C -3.533014 1.600415 -1.367716 0
M  V30 38 C -3.450775 1.440516 -0.005352 0
M  V30 39 C -4.461485 0.760792 0.640757 0
M  V30 40 C -5.505480 0.276339 -0.123463 0
M  V30 41 C -5.548554 0.460594 -1.499217 0
M  V30 42 C -6.789555 -0.187213 -1.935942 0
M  V30 43 O -7.250478 -0.275481 -3.099765 0
M  V30 44 N -7.462809 -0.745161 -0.816800 0
M  V30 45 C -8.712289 -1.482271 -0.668742 0
M  V30 46 C -9.607377 -0.781128 0.294786 0
M  V30 47 C -10.392348 -1.688669 1.203651 0
M  V30 48 C -9.534828 -2.650098 1.940182 0
M  V30 49 O -9.626055 -3.025544 3.147888 0
M  V30 50 N -8.459681 -3.229415 1.176861 0
M  V30 51 C -8.304856 -2.839575 -0.190269 0
M  V30 52 O -7.814053 -3.673490 -0.984791 0
M  V30 53 C -6.674540 -0.465774 0.329821 0
M  V30 54 O -6.911965 -0.787677 1.546175 0
M  V30 55 H 6.600448 -5.787537 4.541112 0
M  V30 56 H 8.181867 -5.456969 3.707474 0
M  V30 57 H 7.083413 -6.702353 3.052511 0
M  V30 58 H 6.247246 -4.854263 1.697334 0
M  V30 59 H 3.735332 1.021576 -0.422622 0
M  V30 60 H 2.746750 3.346966 -0.596018 0
M  V30 61 H 2.749458 5.236758 3.513036 0
M  V30 62 H 2.761492 6.158148 5.671206 0
M  V30 63 H 2.568177 3.721026 7.698518 0
M  V30 64 H 1.769750 5.410877 7.805694 0
M  V30 65 H 4.837169 4.731908 7.621237 0
M  V30 66 H 4.124922 6.422050 7.733956 0
M  V30 67 H 4.245281 1.757222 3.714482 0
M  V30 68 H 3.765360 -2.644847 -0.875440 0
M  V30 69 H 5.406427 -2.165184 -1.403670 0
M  V30 70 H 4.245680 -4.992405 -1.343873 0
M  V30 71 H 5.936749 -4.603018 -1.867587 0
M  V30 72 H 4.440049 -5.017050 -3.730842 0
M  V30 73 H 5.114981 -3.351827 -3.793599 0
M  V30 74 H 2.334774 -4.233222 -2.740332 0
M  V30 75 H 3.034040 -2.525434 -2.770758 0
M  V30 76 H 2.401791 -4.336371 -5.184976 0
M  V30 77 H 3.020557 -2.657514 -5.277302 0
M  V30 78 H 0.326435 -3.520636 -4.058943 0
M  V30 79 H 0.622413 -2.760422 -5.637811 0
M  V30 80 H 1.572296 -0.766566 -4.563010 0
M  V30 81 H 1.398258 -1.439759 -2.942619 0
M  V30 82 H -1.115427 -1.541340 -3.232812 0
M  V30 83 H -0.308015 0.108041 -3.337579 0
M  V30 84 H -1.219982 -1.786224 -5.579331 0
M  V30 85 H -0.481377 -0.196924 -5.931746 0
M  V30 86 H -2.834549 -0.123408 -6.179347 0
M  V30 87 H -3.111407 -0.819212 -4.572418 0
M  V30 88 H -1.840234 1.316444 -3.687610 0
M  V30 89 H -1.878561 1.912837 -5.341552 0
M  V30 90 H -3.659087 2.964850 -4.130650 0
M  V30 91 H -4.310985 1.934369 -5.425565 0
M  V30 92 H -2.728325 2.148930 -1.786350 0
M  V30 93 H -2.626980 1.826113 0.574761 0
M  V30 94 H -4.406252 0.629968 1.706683 0
M  V30 95 H -9.220339 -1.608202 -1.651727 0
M  V30 96 H -9.104488 0.005555 0.909265 0
M  V30 97 H -10.372713 -0.205390 -0.302699 0
M  V30 98 H -10.878197 -1.037785 1.967809 0
M  V30 99 H -11.141243 -2.287293 0.645703 0
M  V30 100 H -7.818600 -3.919755 1.641178 0
M  V30 END ATOM
M  V30 BEGIN BOND
M  V30 1 1 1 2
M  V30 2 1 2 3
M  V30 3 2 3 4
M  V30 4 1 3 5
M  V30 5 1 5 6
M  V30 6 1 6 7
M  V30 7 1 7 8
M  V30 8 2 8 9
M  V30 9 1 9 10
M  V30 10 2 10 11
M  V30 11 1 11 12
M  V30 12 1 12 13
M  V30 13 1 13 14
M  V30 14 2 14 15
M  V30 15 1 14 16
M  V30 16 1 16 17
M  V30 17 1 17 18
M  V30 18 2 12 19
M  V30 19 2 7 20
M  V30 20 1 20 21
M  V30 21 1 21 22
M  V30 22 1 22 23
M  V30 23 1 23 24
M  V30 24 1 24 25
M  V30 25 1 25 26
M  V30 26 1 26 27
M  V30 27 1 27 28
M  V30 28 1 28 29
M  V30 29 1 29 30
M  V30 30 1 30 31
M  V30 31 1 31 32
M  V30 32 1 32 33
M  V30 33 1 33 34
M  V30 34 1 34 35
M  V30 35 1 35 36
M  V30 36 2 36 37
M  V30 37 1 37 38
M  V30 38 2 38 39
M  V30 39 1 39 40
M  V30 40 2 40 41
M  V30 41 1 41 42
M  V30 42 2 42 43
M  V30 43 1 42 44
M  V30 44 1 44 45
M  V30 45 1 45 46
M  V30 46 1 46 47
M  V30 47 1 47 48
M  V30 48 2 48 49
M  V30 49 1 48 50
M  V30 50 1 50 51
M  V30 51 2 51 52
M  V30 52 1 44 53
M  V30 53 2 53 54
M  V30 54 2 21 5
M  V30 55 1 41 36
M  V30 56 1 51 45
M  V30 57 1 19 8
M  V30 58 1 53 40
M  V30 59 1 18 16
M  V30 60 1 1 55
M  V30 61 1 1 56
M  V30 62 1 1 57
M  V30 63 1 2 58
M  V30 64 1 9 59
M  V30 65 1 10 60
M  V30 66 1 13 61
M  V30 67 1 16 62
M  V30 68 1 17 63
M  V30 69 1 17 64
M  V30 70 1 18 65
M  V30 71 1 18 66
M  V30 72 1 19 67
M  V30 73 1 23 68
M  V30 74 1 23 69
M  V30 75 1 24 70
M  V30 76 1 24 71
M  V30 77 1 25 72
M  V30 78 1 25 73
M  V30 79 1 26 74
M  V30 80 1 26 75
M  V30 81 1 27 76
M  V30 82 1 27 77
M  V30 83 1 28 78
M  V30 84 1 28 79
M  V30 85 1 29 80
M  V30 86 1 29 81
M  V30 87 1 30 82
M  V30 88 1 30 83
M  V30 89 1 31 84
M  V30 90 1 31 85
M  V30 91 1 32 86
M  V30 92 1 32 87
M  V30 93 1 33 88
M  V30 94 1 33 89
M  V30 95 1 34 90
M  V30 96 1 34 91
M  V30 97 1 37 92
M  V30 98 1 38 93
M  V30 99 1 39 94
M  V30 100 1 45 95
M  V30 101 1 46 96
M  V30 102 1 46 97
M  V30 103 1 47 98
M  V30 104 1 47 99
M  V30 105 1 50 100
M  V30 END BOND
M  V30 END CTAB
M  END
>  <Dataset>  (851) 
ChEMBL_Kinases

>  <Ligand_Instance>  (851) 
nan

>  <PDB_ID>  (851) 
nan

>  <Standardized_SMILES>  (851) 
CNC(=O)c1sc(-c2ccnc(NC(=O)C3CC3)c2)nc1OCCCCCCCCCCCCOc1cccc2c1C(=O)N(C1CCC(=O)NC1=O)C2=O

>  <Name>  (851) 
nan

>  <Pocket>  (851) 
nan

>  <ATP_Site>  (851) 
nan

>  <Peripheral>  (851) 
nan

>  <Num_H_Atoms_ProtBoundConf>  (851) 
nan

>  <Num_Resolved_Atoms>  (851) 
nan

>  <Num_Not_Resolved_Atoms>  (851) 
nan

$$$$
CHEMBL444160
     RDKit          3D

  0  0  0  0  0  0  0  0  0  0999 V3000
M  V30 BEGIN CTAB
M  V30 COUNTS 26 29 0 0 0
M  V30 BEGIN ATOM
M  V30 1 O -2.348295 -2.491174 1.101342 0
M  V30 2 C -1.104219 -2.423633 1.335172 0
M  V30 3 C -0.427305 -3.461055 1.968261 0
M  V30 4 C 0.931538 -3.418158 2.238201 0
M  V30 5 C 1.584365 -2.278940 1.841103 0
M  V30 6 N 2.896117 -2.033133 2.005430 0
M  V30 7 C 3.493841 -0.897495 1.598249 0
M  V30 8 C 2.783538 0.117329 0.968672 0
M  V30 9 C 1.434344 -0.118136 0.791479 0
M  V30 10 C 0.408189 0.612497 0.228293 0
M  V30 11 C 0.316614 1.828890 -0.364108 0
M  V30 12 C -0.857990 2.355099 -0.862733 0
M  V30 13 C -1.987692 1.561133 -0.730046 0
M  V30 14 O -3.212160 2.053749 -1.223499 0
M  V30 15 C -1.985156 0.309261 -0.139946 0
M  V30 16 C -0.768212 -0.140265 0.331605 0
M  V30 17 N -0.471333 -1.302334 0.942253 0
M  V30 18 C 0.848943 -1.291995 1.219292 0
M  V30 19 H -0.954302 -4.356241 2.277305 0
M  V30 20 H 1.491822 -4.180480 2.716831 0
M  V30 21 H 4.553147 -0.732529 1.746745 0
M  V30 22 H 3.198488 1.051836 0.617182 0
M  V30 23 H 1.217658 2.435935 -0.457594 0
M  V30 24 H -0.975294 3.308771 -1.336900 0
M  V30 25 H -3.409584 3.043313 -1.045009 0
M  V30 26 H -2.881106 -0.289170 -0.049434 0
M  V30 END ATOM
M  V30 BEGIN BOND
M  V30 1 2 1 2
M  V30 2 1 2 3
M  V30 3 2 3 4
M  V30 4 1 4 5
M  V30 5 1 5 6
M  V30 6 2 6 7
M  V30 7 1 7 8
M  V30 8 2 8 9
M  V30 9 1 9 10
M  V30 10 2 10 11
M  V30 11 1 11 12
M  V30 12 2 12 13
M  V30 13 1 13 14
M  V30 14 1 13 15
M  V30 15 2 15 16
M  V30 16 1 16 17
M  V30 17 1 17 18
M  V30 18 1 17 2
M  V30 19 2 18 5
M  V30 20 1 18 9
M  V30 21 1 16 10
M  V30 22 1 3 19
M  V30 23 1 4 20
M  V30 24 1 7 21
M  V30 25 1 8 22
M  V30 26 1 11 23
M  V30 27 1 12 24
M  V30 28 1 14 25
M  V30 29 1 15 26
M  V30 END BOND
M  V30 END CTAB
M  END
>  <Dataset>  (852) 
ChEMBL_Kinases

>  <Ligand_Instance>  (852) 
nan

>  <PDB_ID>  (852) 
nan

>  <Standardized_SMILES>  (852) 
O=c1ccc2nccc3c4ccc(O)cc4n1c23

>  <Name>  (852) 
nan

>  <Pocket>  (852) 
nan

>  <ATP_Site>  (852) 
nan

>  <Peripheral>  (852) 
nan

>  <Num_H_Atoms_ProtBoundConf>  (852) 
nan

>  <Num_Resolved_Atoms>  (852) 
nan

>  <Num_Not_Resolved_Atoms>  (852) 
nan

$$$$
CHEMBL4443253
     RDKit          3D

  0  0  0  0  0  0  0  0  0  0999 V3000
M  V30 BEGIN CTAB
M  V30 COUNTS 50 53 0 0 0
M  V30 BEGIN ATOM
M  V30 1 C -1.677726 -2.235702 -0.591448 0
M  V30 2 N -0.391177 -2.025863 0.019312 0
M  V30 3 C 0.522795 -3.005907 0.349735 0
M  V30 4 N 1.443877 -1.959413 0.515811 0
M  V30 5 C 2.717756 -1.945263 0.861124 0
M  V30 6 N 3.644332 -0.835665 1.016587 0
M  V30 7 C 3.352248 0.569052 0.856887 0
M  V30 8 C 4.371290 1.520470 0.774638 0
M  V30 9 N 4.038163 2.811997 0.633494 0
M  V30 10 C 2.761451 3.239480 0.566325 0
M  V30 11 C 2.606814 4.660343 0.413458 0
M  V30 12 N 2.481059 5.801005 0.285352 0
M  V30 13 C 1.714078 2.308230 0.646458 0
M  V30 14 O 0.509874 2.971291 0.558853 0
M  V30 15 C -0.697280 2.300998 0.674940 0
M  V30 16 C -1.638985 2.980554 1.669368 0
M  V30 17 C -2.709225 1.965034 1.999589 0
M  V30 18 C -2.989851 1.056676 0.821321 0
M  V30 19 N -2.750692 1.666775 -0.442209 0
M  V30 20 C -1.461638 2.251523 -0.637609 0
M  V30 21 C 2.041040 0.983631 0.790762 0
M  V30 22 N 3.347843 -3.102378 1.126432 0
M  V30 23 C 2.650937 -4.242498 1.030887 0
M  V30 24 C 1.394367 -3.940475 0.664831 0
M  V30 25 C 0.301773 -5.002126 0.608461 0
M  V30 26 C -1.044695 -5.324666 0.714509 0
M  V30 27 C -1.347017 -6.648740 0.525775 0
M  V30 28 C -0.090691 -7.124734 0.295976 0
M  V30 29 O 0.782308 -6.186767 0.351754 0
M  V30 30 H -2.520004 -2.308998 0.114983 0
M  V30 31 H -1.663740 -3.268069 -1.085551 0
M  V30 32 H -1.906523 -1.575464 -1.472869 0
M  V30 33 H -0.629139 -1.047055 0.029227 0
M  V30 34 H 4.636596 -0.990625 1.270672 0
M  V30 35 H 5.389245 1.165048 0.829236 0
M  V30 36 H -0.607301 1.244051 0.991769 0
M  V30 37 H -1.094942 3.334775 2.580108 0
M  V30 38 H -2.162714 3.836833 1.164932 0
M  V30 39 H -3.622267 2.483377 2.372084 0
M  V30 40 H -2.279650 1.310570 2.803837 0
M  V30 41 H -4.101539 0.862115 0.876869 0
M  V30 42 H -2.538513 0.049714 0.960902 0
M  V30 43 H -3.554393 2.288767 -0.665617 0
M  V30 44 H -1.570236 3.277590 -1.043443 0
M  V30 45 H -0.836583 1.672035 -1.350970 0
M  V30 46 H 1.193450 0.357533 0.843786 0
M  V30 47 H 2.894052 -5.265954 1.181969 0
M  V30 48 H -1.656108 -4.455171 0.964405 0
M  V30 49 H -2.376839 -6.931334 0.600640 0
M  V30 50 H 0.025644 -8.188037 0.100923 0
M  V30 END ATOM
M  V30 BEGIN BOND
M  V30 1 1 1 2
M  V30 2 1 2 3
M  V30 3 2 3 4
M  V30 4 1 4 5
M  V30 5 1 5 6
M  V30 6 1 6 7
M  V30 7 2 7 8
M  V30 8 1 8 9
M  V30 9 2 9 10
M  V30 10 1 10 11
M  V30 11 3 11 12
M  V30 12 1 10 13
M  V30 13 1 13 14
M  V30 14 1 14 15
M  V30 15 1 15 16
M  V30 16 1 16 17
M  V30 17 1 17 18
M  V30 18 1 18 19
M  V30 19 1 19 20
M  V30 20 2 13 21
M  V30 21 2 5 22
M  V30 22 1 22 23
M  V30 23 2 23 24
M  V30 24 1 24 25
M  V30 25 2 25 26
M  V30 26 1 26 27
M  V30 27 2 27 28
M  V30 28 1 28 29
M  V30 29 1 24 3
M  V30 30 1 29 25
M  V30 31 1 21 7
M  V30 32 1 20 15
M  V30 33 1 1 30
M  V30 34 1 1 31
M  V30 35 1 1 32
M  V30 36 1 2 33
M  V30 37 1 6 34
M  V30 38 1 8 35
M  V30 39 1 15 36
M  V30 40 1 16 37
M  V30 41 1 16 38
M  V30 42 1 17 39
M  V30 43 1 17 40
M  V30 44 1 18 41
M  V30 45 1 18 42
M  V30 46 1 19 43
M  V30 47 1 20 44
M  V30 48 1 20 45
M  V30 49 1 21 46
M  V30 50 1 23 47
M  V30 51 1 26 48
M  V30 52 1 27 49
M  V30 53 1 28 50
M  V30 END BOND
M  V30 END CTAB
M  END
>  <Dataset>  (853) 
ChEMBL_Kinases

>  <Ligand_Instance>  (853) 
nan

>  <PDB_ID>  (853) 
nan

>  <Standardized_SMILES>  (853) 
CNc1nc(Nc2cnc(C#N)c(OC3CCCNC3)c2)ncc1-c1ccco1

>  <Name>  (853) 
nan

>  <Pocket>  (853) 
nan

>  <ATP_Site>  (853) 
nan

>  <Peripheral>  (853) 
nan

>  <Num_H_Atoms_ProtBoundConf>  (853) 
nan

>  <Num_Resolved_Atoms>  (853) 
nan

>  <Num_Not_Resolved_Atoms>  (853) 
nan

$$$$
CHEMBL4443245
     RDKit          3D

  0  0  0  0  0  0  0  0  0  0999 V3000
M  V30 BEGIN CTAB
M  V30 COUNTS 50 53 0 0 0
M  V30 BEGIN ATOM
M  V30 1 O 0.830866 -2.055933 0.050616 0
M  V30 2 C 1.414694 -1.082694 0.661033 0
M  V30 3 N 2.745859 -1.147136 1.017298 0
M  V30 4 C 3.350684 -2.386916 0.628882 0
M  V30 5 C 3.880865 -2.326253 -0.639910 0
M  V30 6 C 4.519485 -3.405461 -1.232940 0
M  V30 7 N 4.577055 -4.515941 -0.463611 0
M  V30 8 N 4.074897 -4.590563 0.752227 0
M  V30 9 C 3.452696 -3.557508 1.344735 0
M  V30 10 C 0.088033 -0.590704 0.499122 0
M  V30 11 C 0.581882 0.660617 1.193287 0
M  V30 12 C -0.117940 1.865910 1.525776 0
M  V30 13 N 0.302307 3.063314 2.175356 0
M  V30 14 C 1.620949 3.525028 2.573119 0
M  V30 15 C 1.374509 3.651891 4.084414 0
M  V30 16 C 0.098058 4.501221 4.030466 0
M  V30 17 C -0.481842 4.159308 2.650740 0
M  V30 18 C -1.481151 1.933721 1.166170 0
M  V30 19 C -2.016222 0.856510 0.537055 0
M  V30 20 C -1.141266 -0.134762 0.349119 0
M  V30 21 O -1.410287 -1.391739 -0.282745 0
M  V30 22 C -2.658450 -1.712473 -0.779245 0
M  V30 23 C -2.629139 -3.070986 -1.372903 0
M  V30 24 C -2.920853 -4.170435 -0.579853 0
M  V30 25 C -2.911368 -5.454170 -1.082433 0
M  V30 26 C -2.600712 -5.618003 -2.408896 0
M  V30 27 C -2.300978 -4.532915 -3.239835 0
M  V30 28 C -2.317835 -3.245635 -2.705793 0
M  V30 29 H 2.865432 -0.229296 1.470982 0
M  V30 30 H 3.854861 -1.446274 -1.298931 0
M  V30 31 H 4.941135 -3.377127 -2.230051 0
M  V30 32 H 3.007834 -3.507329 2.326891 0
M  V30 33 H 1.537108 1.094346 1.657769 0
M  V30 34 H 1.849122 4.524907 2.173943 0
M  V30 35 H 2.426977 2.828860 2.341214 0
M  V30 36 H 1.164473 2.663838 4.520613 0
M  V30 37 H 2.187042 4.177624 4.600292 0
M  V30 38 H 0.465412 5.552632 4.030837 0
M  V30 39 H -0.587002 4.307166 4.849737 0
M  V30 40 H -0.454657 5.052111 1.971289 0
M  V30 41 H -1.539820 3.893682 2.851081 0
M  V30 42 H -2.230528 2.686894 1.284086 0
M  V30 43 H -2.966574 0.558694 0.133135 0
M  V30 44 H -3.465681 -1.718027 0.009495 0
M  V30 45 H -3.042989 -1.011754 -1.548457 0
M  V30 46 H -3.158970 -3.984638 0.457286 0
M  V30 47 H -3.148871 -6.278890 -0.416215 0
M  V30 48 H -2.581723 -6.612392 -2.846695 0
M  V30 49 H -2.054021 -4.656306 -4.292111 0
M  V30 50 H -2.091831 -2.387450 -3.328174 0
M  V30 END ATOM
M  V30 BEGIN BOND
M  V30 1 2 1 2
M  V30 2 1 2 3
M  V30 3 1 3 4
M  V30 4 2 4 5
M  V30 5 1 5 6
M  V30 6 2 6 7
M  V30 7 1 7 8
M  V30 8 2 8 9
M  V30 9 1 2 10
M  V30 10 2 10 11
M  V30 11 1 11 12
M  V30 12 1 12 13
M  V30 13 1 13 14
M  V30 14 1 14 15
M  V30 15 1 15 16
M  V30 16 1 16 17
M  V30 17 2 12 18
M  V30 18 1 18 19
M  V30 19 2 19 20
M  V30 20 1 20 21
M  V30 21 1 21 22
M  V30 22 1 22 23
M  V30 23 2 23 24
M  V30 24 1 24 25
M  V30 25 2 25 26
M  V30 26 1 26 27
M  V30 27 2 27 28
M  V30 28 1 9 4
M  V30 29 1 20 10
M  V30 30 1 28 23
M  V30 31 1 17 13
M  V30 32 1 3 29
M  V30 33 1 5 30
M  V30 34 1 6 31
M  V30 35 1 9 32
M  V30 36 1 11 33
M  V30 37 1 14 34
M  V30 38 1 14 35
M  V30 39 1 15 36
M  V30 40 1 15 37
M  V30 41 1 16 38
M  V30 42 1 16 39
M  V30 43 1 17 40
M  V30 44 1 17 41
M  V30 45 1 18 42
M  V30 46 1 19 43
M  V30 47 1 22 44
M  V30 48 1 22 45
M  V30 49 1 24 46
M  V30 50 1 25 47
M  V30 51 1 26 48
M  V30 52 1 27 49
M  V30 53 1 28 50
M  V30 END BOND
M  V30 END CTAB
M  END
>  <Dataset>  (854) 
ChEMBL_Kinases

>  <Ligand_Instance>  (854) 
nan

>  <PDB_ID>  (854) 
nan

>  <Standardized_SMILES>  (854) 
O=C(Nc1ccnnc1)c1cc(N2CCCC2)ccc1OCc1ccccc1

>  <Name>  (854) 
nan

>  <Pocket>  (854) 
nan

>  <ATP_Site>  (854) 
nan

>  <Peripheral>  (854) 
nan

>  <Num_H_Atoms_ProtBoundConf>  (854) 
nan

>  <Num_Resolved_Atoms>  (854) 
nan

>  <Num_Not_Resolved_Atoms>  (854) 
nan

$$$$
CHEMBL4443233
     RDKit          3D

  0  0  0  0  0  0  0  0  0  0999 V3000
M  V30 BEGIN CTAB
M  V30 COUNTS 49 53 0 0 0
M  V30 BEGIN ATOM
M  V30 1 O 2.157443 -0.135003 4.199354 0
M  V30 2 N 2.723329 -0.263149 3.070654 0 CHG=1 VAL=4
M  V30 3 O 1.792168 -0.121111 4.061627 0 CHG=-1 VAL=1
M  V30 4 C 3.845025 -0.428819 2.280569 0
M  V30 5 C 4.803066 -1.235490 2.837061 0
M  V30 6 C 5.971501 -1.433959 2.147425 0
M  V30 7 C 6.117687 -0.812302 0.936246 0
M  V30 8 C 5.090534 -0.015719 0.459971 0
M  V30 9 C 3.866179 0.237137 1.102698 0
M  V30 10 S 2.713173 1.248874 0.323004 0
M  V30 11 O 3.447869 1.928858 -0.852994 0
M  V30 12 O 2.426801 2.476465 1.240670 0
M  V30 13 N 1.298591 0.645978 -0.238210 0
M  V30 14 C 0.339167 0.070820 0.552442 0
M  V30 15 C -0.505414 -0.859680 -0.364094 0
M  V30 16 C -1.386502 0.041483 -1.116973 0
M  V30 17 C -0.507088 0.900255 -1.807370 0
M  V30 18 S -1.583412 1.956859 -2.780473 0
M  V30 19 C -3.093303 1.224119 -2.232208 0
M  V30 20 N -4.324633 1.524018 -2.574264 0
M  V30 21 C -5.376633 0.874916 -2.087539 0
M  V30 22 N -5.025451 -0.078076 -1.241172 0
M  V30 23 C -3.796749 -0.436720 -0.847084 0
M  V30 24 N -3.820551 -1.473981 0.076114 0
M  V30 25 C -3.328808 -2.296361 1.078888 0
M  V30 26 C -3.027324 -3.654823 1.266214 0
M  V30 27 C -2.528568 -4.076446 2.459670 0
M  V30 28 C -2.308022 -3.214223 3.500822 0
M  V30 29 F -1.811133 -3.801547 4.610993 0
M  V30 30 C -2.582554 -1.868404 3.386247 0
M  V30 31 C -3.098424 -1.429510 2.149479 0
M  V30 32 F -3.293330 -0.086853 2.258058 0
M  V30 33 C -2.705794 0.232281 -1.352876 0
M  V30 34 C 0.956529 0.787536 -1.608453 0
M  V30 35 H 4.701691 -1.725919 3.779323 0
M  V30 36 H 6.779927 -2.049536 2.505529 0
M  V30 37 H 7.022114 -0.959390 0.393563 0
M  V30 38 H 5.317718 0.431215 -0.523193 0
M  V30 39 H -0.398916 0.866261 0.905548 0
M  V30 40 H 0.594819 -0.459501 1.477029 0
M  V30 41 H 0.285080 -1.320069 -1.026588 0
M  V30 42 H -0.927323 -1.563124 0.316020 0
M  V30 43 H -6.340871 1.193474 -2.425941 0
M  V30 44 H -4.694833 -2.084416 0.118055 0
M  V30 45 H -3.278779 -4.140124 0.329130 0
M  V30 46 H -2.359534 -5.147948 2.412183 0
M  V30 47 H -2.362855 -1.306178 4.280424 0
M  V30 48 H 1.405240 1.748828 -1.970955 0
M  V30 49 H 1.404051 -0.018451 -2.219024 0
M  V30 END ATOM
M  V30 BEGIN BOND
M  V30 1 2 1 2
M  V30 2 1 2 3
M  V30 3 1 2 4
M  V30 4 2 4 5
M  V30 5 1 5 6
M  V30 6 2 6 7
M  V30 7 1 7 8
M  V30 8 2 8 9
M  V30 9 1 9 10
M  V30 10 2 10 11
M  V30 11 2 10 12
M  V30 12 1 10 13
M  V30 13 1 13 14
M  V30 14 1 14 15
M  V30 15 1 15 16
M  V30 16 2 16 17
M  V30 17 1 17 18
M  V30 18 1 18 19
M  V30 19 2 19 20
M  V30 20 1 20 21
M  V30 21 2 21 22
M  V30 22 1 22 23
M  V30 23 1 23 24
M  V30 24 1 24 25
M  V30 25 2 25 26
M  V30 26 1 26 27
M  V30 27 2 27 28
M  V30 28 1 28 29
M  V30 29 1 28 30
M  V30 30 2 30 31
M  V30 31 1 31 32
M  V30 32 2 23 33
M  V30 33 1 17 34
M  V30 34 1 9 4
M  V30 35 1 34 13
M  V30 36 1 33 16
M  V30 37 1 33 19
M  V30 38 1 31 25
M  V30 39 1 5 35
M  V30 40 1 6 36
M  V30 41 1 7 37
M  V30 42 1 8 38
M  V30 43 1 14 39
M  V30 44 1 14 40
M  V30 45 1 15 41
M  V30 46 1 15 42
M  V30 47 1 21 43
M  V30 48 1 24 44
M  V30 49 1 26 45
M  V30 50 1 27 46
M  V30 51 1 30 47
M  V30 52 1 34 48
M  V30 53 1 34 49
M  V30 END BOND
M  V30 END CTAB
M  END
>  <Dataset>  (855) 
ChEMBL_Kinases

>  <Ligand_Instance>  (855) 
nan

>  <PDB_ID>  (855) 
nan

>  <Standardized_SMILES>  (855) 
O=[N+]([O-])c1ccccc1S(=O)(=O)N1CCc2c(sc3ncnc(Nc4ccc(F)cc4F)c23)C1

>  <Name>  (855) 
nan

>  <Pocket>  (855) 
nan

>  <ATP_Site>  (855) 
nan

>  <Peripheral>  (855) 
nan

>  <Num_H_Atoms_ProtBoundConf>  (855) 
nan

>  <Num_Resolved_Atoms>  (855) 
nan

>  <Num_Not_Resolved_Atoms>  (855) 
nan

$$$$
CHEMBL4443172
     RDKit          3D

  0  0  0  0  0  0  0  0  0  0999 V3000
M  V30 BEGIN CTAB
M  V30 COUNTS 58 62 0 0 0
M  V30 BEGIN ATOM
M  V30 1 C 5.051602 -2.751270 2.365194 0
M  V30 2 N 5.823774 -1.792475 3.093553 0
M  V30 3 C 6.885861 -1.206181 2.295507 0
M  V30 4 C 6.390157 -0.544861 1.033097 0
M  V30 5 N 5.040258 -0.079028 1.323464 0
M  V30 6 C 3.935419 -0.090950 0.418394 0
M  V30 7 C 2.628221 0.225694 0.718516 0
M  V30 8 C 1.641046 0.183860 -0.243799 0
M  V30 9 C 1.911976 -0.175904 -1.551527 0
M  V30 10 N 0.863982 -0.204844 -2.514660 0
M  V30 11 C -0.440593 0.118235 -2.051008 0
M  V30 12 N -1.013207 1.345679 -1.957095 0
M  V30 13 C -2.255578 1.520287 -1.505972 0
M  V30 14 C -2.945923 0.385846 -1.133100 0
M  V30 15 C -4.234489 0.537598 -0.663138 0
M  V30 16 O -4.782876 1.645571 -0.566145 0
M  V30 17 C -4.989910 -0.559825 -0.270177 0
M  V30 18 C -6.358255 -0.497149 0.236215 0
M  V30 19 C -7.476290 -0.574227 -0.568465 0
M  V30 20 Cl -7.259149 -0.759451 -2.294401 0
M  V30 21 C -8.742230 -0.504832 -0.003753 0
M  V30 22 C -8.930749 -0.357360 1.371765 0
M  V30 23 C -7.810748 -0.278236 2.194828 0
M  V30 24 C -6.565277 -0.350777 1.599604 0
M  V30 25 Cl -5.150282 -0.248623 2.655355 0
M  V30 26 C -4.411131 -1.820375 -0.363234 0
M  V30 27 N -3.139865 -1.958716 -0.828001 0
M  V30 28 C -2.457475 -3.229946 -0.961040 0
M  V30 29 C -2.413747 -0.898240 -1.206211 0
M  V30 30 N -1.159105 -0.967677 -1.672241 0
M  V30 31 C 3.224667 -0.491016 -1.841386 0
M  V30 32 C 4.235600 -0.455449 -0.886453 0
M  V30 33 C 4.974264 0.412252 2.687354 0
M  V30 34 C 4.935905 -0.779536 3.623365 0
M  V30 35 H 5.200801 -3.793867 2.719258 0
M  V30 36 H 5.320822 -2.643097 1.288386 0
M  V30 37 H 3.972497 -2.529277 2.464945 0
M  V30 38 H 7.626159 -2.011205 2.099201 0
M  V30 39 H 7.368026 -0.425277 2.914242 0
M  V30 40 H 6.455695 -1.199561 0.154749 0
M  V30 41 H 7.039710 0.325326 0.829396 0
M  V30 42 H 2.412342 0.503849 1.728378 0
M  V30 43 H 0.660618 0.446875 0.091674 0
M  V30 44 H 1.086361 -0.458227 -3.504302 0
M  V30 45 H -2.668304 2.514375 -1.448533 0
M  V30 46 H -9.630275 -0.563623 -0.618745 0
M  V30 47 H -9.919386 -0.304487 1.808302 0
M  V30 48 H -7.911688 -0.163017 3.268673 0
M  V30 49 H -4.885133 -2.764437 -0.091423 0
M  V30 50 H -1.564903 -3.268062 -0.314616 0
M  V30 51 H -3.153661 -4.097141 -0.810952 0
M  V30 52 H -2.110321 -3.266925 -2.029670 0
M  V30 53 H 3.360788 -0.766572 -2.895937 0
M  V30 54 H 5.165267 -0.730878 -1.320200 0
M  V30 55 H 5.869658 1.014028 2.947484 0
M  V30 56 H 4.034779 0.978365 2.826613 0
M  V30 57 H 3.872770 -1.158566 3.598185 0
M  V30 58 H 5.136135 -0.474520 4.647750 0
M  V30 END ATOM
M  V30 BEGIN BOND
M  V30 1 1 1 2
M  V30 2 1 2 3
M  V30 3 1 3 4
M  V30 4 1 4 5
M  V30 5 1 5 6
M  V30 6 2 6 7
M  V30 7 1 7 8
M  V30 8 2 8 9
M  V30 9 1 9 10
M  V30 10 1 10 11
M  V30 11 2 11 12
M  V30 12 1 12 13
M  V30 13 2 13 14
M  V30 14 1 14 15
M  V30 15 2 15 16
M  V30 16 1 15 17
M  V30 17 1 17 18
M  V30 18 2 18 19
M  V30 19 1 19 20
M  V30 20 1 19 21
M  V30 21 2 21 22
M  V30 22 1 22 23
M  V30 23 2 23 24
M  V30 24 1 24 25
M  V30 25 2 17 26
M  V30 26 1 26 27
M  V30 27 1 27 28
M  V30 28 1 27 29
M  V30 29 2 29 30
M  V30 30 1 9 31
M  V30 31 2 31 32
M  V30 32 1 5 33
M  V30 33 1 33 34
M  V30 34 1 34 2
M  V30 35 1 32 6
M  V30 36 1 30 11
M  V30 37 1 29 14
M  V30 38 1 24 18
M  V30 39 1 1 35
M  V30 40 1 1 36
M  V30 41 1 1 37
M  V30 42 1 3 38
M  V30 43 1 3 39
M  V30 44 1 4 40
M  V30 45 1 4 41
M  V30 46 1 7 42
M  V30 47 1 8 43
M  V30 48 1 10 44
M  V30 49 1 13 45
M  V30 50 1 21 46
M  V30 51 1 22 47
M  V30 52 1 23 48
M  V30 53 1 26 49
M  V30 54 1 28 50
M  V30 55 1 28 51
M  V30 56 1 28 52
M  V30 57 1 31 53
M  V30 58 1 32 54
M  V30 59 1 33 55
M  V30 60 1 33 56
M  V30 61 1 34 57
M  V30 62 1 34 58
M  V30 END BOND
M  V30 END CTAB
M  END
>  <Dataset>  (856) 
ChEMBL_Kinases

>  <Ligand_Instance>  (856) 
nan

>  <PDB_ID>  (856) 
nan

>  <Standardized_SMILES>  (856) 
CN1CCN(c2ccc(Nc3ncc4c(=O)c(-c5c(Cl)cccc5Cl)cn(C)c4n3)cc2)CC1

>  <Name>  (856) 
nan

>  <Pocket>  (856) 
nan

>  <ATP_Site>  (856) 
nan

>  <Peripheral>  (856) 
nan

>  <Num_H_Atoms_ProtBoundConf>  (856) 
nan

>  <Num_Resolved_Atoms>  (856) 
nan

>  <Num_Not_Resolved_Atoms>  (856) 
nan

$$$$
CHEMBL4443142
     RDKit          3D

  0  0  0  0  0  0  0  0  0  0999 V3000
M  V30 BEGIN CTAB
M  V30 COUNTS 58 61 0 0 0
M  V30 BEGIN ATOM
M  V30 1 C 3.964018 2.226548 5.590706 0
M  V30 2 C 5.181342 1.481453 5.151354 0
M  V30 3 C 5.129220 0.077385 5.713417 0
M  V30 4 C 5.267288 1.436708 3.669194 0
M  V30 5 C 4.282071 0.839121 2.879715 0
M  V30 6 C 4.692159 0.986276 1.568940 0
M  V30 7 C 4.033199 0.544077 0.339692 0
M  V30 8 C 4.661674 0.824164 -0.856304 0
M  V30 9 C 4.060555 0.417184 -2.033086 0
M  V30 10 C 2.839010 -0.263718 -1.985313 0
M  V30 11 C 2.203336 -0.547399 -0.781257 0
M  V30 12 N 0.964852 -1.244587 -0.831481 0
M  V30 13 C -0.366769 -0.755679 -0.918998 0
M  V30 14 O -0.610047 0.471272 -0.965713 0
M  V30 15 C -1.482936 -1.692187 -0.956007 0
M  V30 16 C -2.756561 -1.206104 -1.039499 0
M  V30 17 C -3.864960 -2.003588 -1.080170 0
M  V30 18 N -5.187822 -1.491387 -1.166661 0
M  V30 19 C -5.587801 -0.104677 -1.212855 0
M  V30 20 C -6.119324 0.158813 -2.605386 0
M  V30 21 O -7.059069 -0.792172 -2.905042 0
M  V30 22 C -7.473704 -1.569378 -1.855950 0
M  V30 23 C -6.342130 -2.370481 -1.221257 0
M  V30 24 C -3.701538 -3.362964 -1.035482 0
M  V30 25 C -2.436152 -3.915569 -0.950697 0
M  V30 26 C -2.213037 -5.384589 -0.900031 0
M  V30 27 F -0.965701 -5.643096 -1.482790 0
M  V30 28 F -2.188306 -5.864086 0.386068 0
M  V30 29 F -3.151418 -6.073345 -1.645848 0
M  V30 30 C -1.354063 -3.062861 -0.912900 0
M  V30 31 C 2.828326 -0.127886 0.380829 0
M  V30 32 N 5.866488 1.642133 1.599461 0
M  V30 33 N 6.207577 1.909862 2.854960 0
M  V30 34 H 3.271225 1.562638 6.157292 0
M  V30 35 H 4.222319 3.045932 6.287387 0
M  V30 36 H 3.398354 2.676447 4.740066 0
M  V30 37 H 6.077635 1.995639 5.578564 0
M  V30 38 H 5.555002 -0.680694 4.999692 0
M  V30 39 H 5.668807 0.071523 6.677213 0
M  V30 40 H 4.064543 -0.170612 5.902990 0
M  V30 41 H 3.352455 0.340489 3.188993 0
M  V30 42 H 5.614258 1.350758 -0.969114 0
M  V30 43 H 4.469378 0.586573 -3.027387 0
M  V30 44 H 2.366893 -0.583650 -2.915233 0
M  V30 45 H 1.227752 -2.245677 -0.789586 0
M  V30 46 H -2.906616 -0.150591 -1.075841 0
M  V30 47 H -6.386659 0.057170 -0.434786 0
M  V30 48 H -4.788516 0.607355 -0.939964 0
M  V30 49 H -5.245206 -0.002083 -3.291173 0
M  V30 50 H -6.506248 1.189313 -2.687271 0
M  V30 51 H -8.004959 -0.991509 -1.081591 0
M  V30 52 H -8.217832 -2.302202 -2.286277 0
M  V30 53 H -6.102439 -3.203947 -1.934297 0
M  V30 54 H -6.684477 -2.736310 -0.254731 0
M  V30 55 H -4.496860 -4.102685 -1.060239 0
M  V30 56 H -0.366587 -3.495730 -0.846725 0
M  V30 57 H 2.338513 -0.345902 1.317611 0
M  V30 58 H 6.504096 1.950661 0.840064 0
M  V30 END ATOM
M  V30 BEGIN BOND
M  V30 1 1 1 2
M  V30 2 1 2 3
M  V30 3 1 2 4
M  V30 4 1 4 5
M  V30 5 2 5 6
M  V30 6 1 6 7
M  V30 7 2 7 8
M  V30 8 1 8 9
M  V30 9 2 9 10
M  V30 10 1 10 11
M  V30 11 1 11 12
M  V30 12 1 12 13
M  V30 13 2 13 14
M  V30 14 1 13 15
M  V30 15 2 15 16
M  V30 16 1 16 17
M  V30 17 1 17 18
M  V30 18 1 18 19
M  V30 19 1 19 20
M  V30 20 1 20 21
M  V30 21 1 21 22
M  V30 22 1 22 23
M  V30 23 2 17 24
M  V30 24 1 24 25
M  V30 25 1 25 26
M  V30 26 1 26 27
M  V30 27 1 26 28
M  V30 28 1 26 29
M  V30 29 2 25 30
M  V30 30 2 11 31
M  V30 31 1 6 32
M  V30 32 1 32 33
M  V30 33 2 33 4
M  V30 34 1 31 7
M  V30 35 1 30 15
M  V30 36 1 23 18
M  V30 37 1 1 34
M  V30 38 1 1 35
M  V30 39 1 1 36
M  V30 40 1 2 37
M  V30 41 1 3 38
M  V30 42 1 3 39
M  V30 43 1 3 40
M  V30 44 1 5 41
M  V30 45 1 8 42
M  V30 46 1 9 43
M  V30 47 1 10 44
M  V30 48 1 12 45
M  V30 49 1 16 46
M  V30 50 1 19 47
M  V30 51 1 19 48
M  V30 52 1 20 49
M  V30 53 1 20 50
M  V30 54 1 22 51
M  V30 55 1 22 52
M  V30 56 1 23 53
M  V30 57 1 23 54
M  V30 58 1 24 55
M  V30 59 1 30 56
M  V30 60 1 31 57
M  V30 61 1 32 58
M  V30 END BOND
M  V30 END CTAB
M  END
>  <Dataset>  (857) 
ChEMBL_Kinases

>  <Ligand_Instance>  (857) 
nan

>  <PDB_ID>  (857) 
nan

>  <Standardized_SMILES>  (857) 
CC(C)c1cc(-c2cccc(NC(=O)c3cc(N4CCOCC4)cc(C(F)(F)F)c3)c2)[nH]n1

>  <Name>  (857) 
nan

>  <Pocket>  (857) 
nan

>  <ATP_Site>  (857) 
nan

>  <Peripheral>  (857) 
nan

>  <Num_H_Atoms_ProtBoundConf>  (857) 
nan

>  <Num_Resolved_Atoms>  (857) 
nan

>  <Num_Not_Resolved_Atoms>  (857) 
nan

$$$$
CHEMBL4751389
     RDKit          3D

  0  0  0  0  0  0  0  0  0  0999 V3000
M  V30 BEGIN CTAB
M  V30 COUNTS 46 49 0 0 0
M  V30 BEGIN ATOM
M  V30 1 O 3.795695 -2.286284 1.917966 0
M  V30 2 C 2.768849 -1.767320 1.357664 0
M  V30 3 N 2.924219 -0.461196 0.907393 0
M  V30 4 C 1.884537 0.060437 0.343142 0
M  V30 5 N 1.896192 1.406034 -0.173649 0
M  V30 6 C 3.136025 1.831035 -0.768299 0
M  V30 7 C 3.016433 3.275302 -1.193261 0
M  V30 8 C 2.739688 4.095908 0.000955 0
M  V30 9 C 3.938858 4.446734 0.627412 0
M  V30 10 C 3.950310 5.228463 1.778354 0
M  V30 11 C 2.769374 5.684640 2.340576 0
M  V30 12 O 2.730713 6.465494 3.486815 0
M  V30 13 C 1.603627 5.325060 1.703852 0
M  V30 14 C 1.571175 4.552772 0.564842 0
M  V30 15 S 0.521215 -1.144025 0.349039 0
M  V30 16 C 1.480672 -2.423813 1.160578 0
M  V30 17 C 1.199877 -3.662245 1.523191 0
M  V30 18 C -0.137880 -4.141639 1.243303 0
M  V30 19 C -0.116443 -5.476685 0.777569 0
M  V30 20 C -1.399210 -5.899139 0.523013 0
M  V30 21 C -2.166895 -4.807658 0.842462 0
M  V30 22 C -3.625638 -4.660761 0.773347 0
M  V30 23 C -4.201520 -3.468082 1.157398 0
M  V30 24 C -5.593707 -3.353559 1.079078 0
M  V30 25 C -6.351775 -4.427509 0.623522 0
M  V30 26 C -5.704469 -5.604651 0.251104 0
M  V30 27 Cl -6.762399 -6.906283 -0.314034 0
M  V30 28 C -4.336625 -5.752689 0.315097 0
M  V30 29 O -1.400402 -3.856055 1.239457 0
M  V30 30 H 0.962767 1.893724 -0.039166 0
M  V30 31 H 3.356273 1.230358 -1.687343 0
M  V30 32 H 4.002861 1.673102 -0.094066 0
M  V30 33 H 2.139797 3.407318 -1.891491 0
M  V30 34 H 3.884267 3.639590 -1.773495 0
M  V30 35 H 4.954452 4.179024 0.328603 0
M  V30 36 H 4.843360 5.529839 2.306577 0
M  V30 37 H 3.586851 6.628292 4.033740 0
M  V30 38 H 0.633344 5.629254 2.060623 0
M  V30 39 H 0.708371 4.238461 0.010363 0
M  V30 40 H 1.982988 -4.218942 2.005018 0
M  V30 41 H 0.653634 -6.242118 0.572268 0
M  V30 42 H -1.834813 -6.819226 0.165314 0
M  V30 43 H -3.644006 -2.613870 1.515556 0
M  V30 44 H -6.157246 -2.462566 1.353643 0
M  V30 45 H -7.435957 -4.338414 0.563619 0
M  V30 46 H -3.879139 -6.672581 0.020253 0
M  V30 END ATOM
M  V30 BEGIN BOND
M  V30 1 2 1 2
M  V30 2 1 2 3
M  V30 3 2 3 4
M  V30 4 1 4 5
M  V30 5 1 5 6
M  V30 6 1 6 7
M  V30 7 1 7 8
M  V30 8 2 8 9
M  V30 9 1 9 10
M  V30 10 2 10 11
M  V30 11 1 11 12
M  V30 12 1 11 13
M  V30 13 2 13 14
M  V30 14 1 4 15
M  V30 15 1 15 16
M  V30 16 2 16 17
M  V30 17 1 17 18
M  V30 18 2 18 19
M  V30 19 1 19 20
M  V30 20 2 20 21
M  V30 21 1 21 22
M  V30 22 2 22 23
M  V30 23 1 23 24
M  V30 24 2 24 25
M  V30 25 1 25 26
M  V30 26 1 26 27
M  V30 27 2 26 28
M  V30 28 1 21 29
M  V30 29 1 16 2
M  V30 30 1 29 18
M  V30 31 1 14 8
M  V30 32 1 28 22
M  V30 33 1 5 30
M  V30 34 1 6 31
M  V30 35 1 6 32
M  V30 36 1 7 33
M  V30 37 1 7 34
M  V30 38 1 9 35
M  V30 39 1 10 36
M  V30 40 1 12 37
M  V30 41 1 13 38
M  V30 42 1 14 39
M  V30 43 1 17 40
M  V30 44 1 19 41
M  V30 45 1 20 42
M  V30 46 1 23 43
M  V30 47 1 24 44
M  V30 48 1 25 45
M  V30 49 1 28 46
M  V30 END BOND
M  V30 END CTAB
M  END
>  <Dataset>  (858) 
ChEMBL_Kinases

>  <Ligand_Instance>  (858) 
nan

>  <PDB_ID>  (858) 
nan

>  <Standardized_SMILES>  (858) 
O=C1N=C(NCCc2ccc(O)cc2)S/C1=C\c1ccc(-c2cccc(Cl)c2)o1

>  <Name>  (858) 
nan

>  <Pocket>  (858) 
nan

>  <ATP_Site>  (858) 
nan

>  <Peripheral>  (858) 
nan

>  <Num_H_Atoms_ProtBoundConf>  (858) 
nan

>  <Num_Resolved_Atoms>  (858) 
nan

>  <Num_Not_Resolved_Atoms>  (858) 
nan

$$$$
CHEMBL4443123
     RDKit          3D

  0  0  0  0  0  0  0  0  0  0999 V3000
M  V30 BEGIN CTAB
M  V30 COUNTS 37 40 0 0 0
M  V30 BEGIN ATOM
M  V30 1 C -1.705466 -3.811684 1.219465 0
M  V30 2 C -0.860618 -2.626871 0.784742 0
M  V30 3 N -0.982193 -1.445477 1.592981 0
M  V30 4 C -0.254084 -0.279528 1.349077 0
M  V30 5 N 0.629400 -0.141363 0.346733 0
M  V30 6 C 1.337929 0.972398 0.098131 0
M  V30 7 C 2.225562 0.849437 -1.053889 0
M  V30 8 C 2.111188 1.101760 -2.420201 0
M  V30 9 N 3.294667 0.785133 -2.978122 0
M  V30 10 N 4.130253 0.353419 -2.038674 0
M  V30 11 C 3.516258 0.375031 -0.835455 0
M  V30 12 N 1.208961 2.088350 0.873428 0
M  V30 13 C 0.330775 2.039605 1.918833 0
M  V30 14 C 0.178135 3.145166 2.717555 0
M  V30 15 N -0.678686 3.127378 3.754306 0
M  V30 16 C -1.402349 2.001036 4.014486 0
M  V30 17 C -1.220491 0.910994 3.188661 0
M  V30 18 C -0.361835 0.862881 2.113142 0
M  V30 19 C -1.165847 -2.270626 -0.675004 0
M  V30 20 C -0.105008 -3.284265 -1.051827 0
M  V30 21 C 0.473985 -3.067644 0.329314 0
M  V30 22 H -1.268028 -4.191868 2.173667 0
M  V30 23 H -1.608948 -4.597167 0.463472 0
M  V30 24 H -2.750624 -3.528912 1.426794 0
M  V30 25 H -1.663888 -1.555807 2.368503 0
M  V30 26 H 1.172212 1.481464 -2.800571 0
M  V30 27 H 5.063405 0.100276 -2.456244 0
M  V30 28 H 4.097346 0.045433 0.006018 0
M  V30 29 H 0.716600 4.052662 2.562413 0
M  V30 30 H -2.077064 2.017771 4.847928 0
M  V30 31 H -1.824356 0.073399 3.462750 0
M  V30 32 H -0.999030 -1.234642 -0.954459 0
M  V30 33 H -2.159788 -2.695295 -0.993873 0
M  V30 34 H 0.570486 -2.866404 -1.842217 0
M  V30 35 H -0.468873 -4.297566 -1.247673 0
M  V30 36 H 0.760683 -4.047610 0.793943 0
M  V30 37 H 1.336977 -2.397287 0.384839 0
M  V30 END ATOM
M  V30 BEGIN BOND
M  V30 1 1 1 2
M  V30 2 1 2 3
M  V30 3 1 3 4
M  V30 4 2 4 5
M  V30 5 1 5 6
M  V30 6 1 6 7
M  V30 7 1 7 8
M  V30 8 2 8 9
M  V30 9 1 9 10
M  V30 10 1 10 11
M  V30 11 2 6 12
M  V30 12 1 12 13
M  V30 13 2 13 14
M  V30 14 1 14 15
M  V30 15 2 15 16
M  V30 16 1 16 17
M  V30 17 2 17 18
M  V30 18 1 2 19
M  V30 19 1 19 20
M  V30 20 1 20 21
M  V30 21 1 21 2
M  V30 22 1 18 4
M  V30 23 2 11 7
M  V30 24 1 18 13
M  V30 25 1 1 22
M  V30 26 1 1 23
M  V30 27 1 1 24
M  V30 28 1 3 25
M  V30 29 1 8 26
M  V30 30 1 10 27
M  V30 31 1 11 28
M  V30 32 1 14 29
M  V30 33 1 16 30
M  V30 34 1 17 31
M  V30 35 1 19 32
M  V30 36 1 19 33
M  V30 37 1 20 34
M  V30 38 1 20 35
M  V30 39 1 21 36
M  V30 40 1 21 37
M  V30 END BOND
M  V30 END CTAB
M  END
>  <Dataset>  (859) 
ChEMBL_Kinases

>  <Ligand_Instance>  (859) 
nan

>  <PDB_ID>  (859) 
nan

>  <Standardized_SMILES>  (859) 
CC1(Nc2nc(-c3cn[nH]c3)nc3cnccc23)CCC1

>  <Name>  (859) 
nan

>  <Pocket>  (859) 
nan

>  <ATP_Site>  (859) 
nan

>  <Peripheral>  (859) 
nan

>  <Num_H_Atoms_ProtBoundConf>  (859) 
nan

>  <Num_Resolved_Atoms>  (859) 
nan

>  <Num_Not_Resolved_Atoms>  (859) 
nan

$$$$
CHEMBL4751396
     RDKit          3D

  0  0  0  0  0  0  0  0  0  0999 V3000
M  V30 BEGIN CTAB
M  V30 COUNTS 76 81 0 0 0
M  V30 BEGIN ATOM
M  V30 1 C 2.148443 2.906273 2.979538 0
M  V30 2 C 2.960036 3.447631 1.848185 0
M  V30 3 C 3.690098 2.354348 1.072998 0 CFG=2
M  V30 4 C 4.426365 3.130138 -0.006762 0
M  V30 5 N 5.589973 3.783107 0.141686 0
M  V30 6 N 5.786395 4.435086 -0.991209 0
M  V30 7 C 4.768370 4.209367 -1.865817 0
M  V30 8 C 4.732020 4.812369 -3.215598 0
M  V30 9 N 3.929564 3.383285 -1.222538 0
M  V30 10 C 2.776302 2.696461 -1.659428 0
M  V30 11 C 2.267470 3.007583 -2.890794 0
M  V30 12 N 1.166376 2.345866 -3.265346 0
M  V30 13 C 0.558099 1.424813 -2.518927 0
M  V30 14 N -0.606855 0.786028 -3.025259 0
M  V30 15 C -1.426635 -0.195597 -2.481064 0
M  V30 16 C -1.215208 -0.760069 -1.239549 0
M  V30 17 C -1.993154 -1.735215 -0.650526 0
M  V30 18 C -3.081075 -2.210491 -1.327969 0
M  V30 19 C -4.009328 -3.233904 -0.862198 0
M  V30 20 O -4.997919 -3.638908 -1.517904 0
M  V30 21 N -3.838904 -3.852319 0.408130 0
M  V30 22 C -4.671387 -4.877496 1.006609 0
M  V30 23 C -3.869241 -6.163896 1.164846 0
M  V30 24 C -2.640778 -5.915997 2.036119 0
M  V30 25 N -2.981136 -5.302673 3.281089 0
M  V30 26 C -2.094435 -4.261785 3.711847 0
M  V30 27 C -4.368770 -5.063153 3.495778 0
M  V30 28 C -5.094297 -4.402980 2.358878 0
M  V30 29 C -3.332881 -1.676369 -2.573141 0
M  V30 30 C -2.546613 -0.706012 -3.142743 0
M  V30 31 O -2.831782 -0.191780 -4.399739 0
M  V30 32 C -3.962370 -0.701544 -5.077034 0
M  V30 33 N 1.065989 1.132859 -1.320978 0
M  V30 34 C 2.161059 1.732134 -0.847883 0
M  V30 35 N 2.761329 1.452334 0.447200 0
M  V30 36 C 2.281402 0.139548 0.907430 0
M  V30 37 C 3.019622 -0.298721 2.106435 0
M  V30 38 C 2.912826 -0.296094 3.491352 0
M  V30 39 C 3.989185 -0.887987 4.097847 0
M  V30 40 C 4.750886 -1.249032 3.031154 0
M  V30 41 O 4.190316 -0.909515 1.908629 0
M  V30 42 H 1.447260 2.117303 2.650690 0
M  V30 43 H 2.852675 2.570682 3.766299 0
M  V30 44 H 1.560433 3.741191 3.437473 0
M  V30 45 H 2.334347 4.028927 1.123948 0
M  V30 46 H 3.742675 4.110446 2.267963 0
M  V30 47 H 4.370685 1.843164 1.745643 0
M  V30 48 H 5.687356 5.419016 -3.342254 0
M  V30 49 H 4.820082 4.072161 -4.040216 0
M  V30 50 H 3.935781 5.555397 -3.326598 0
M  V30 51 H 2.601624 3.707134 -3.620752 0
M  V30 52 H -0.923826 1.102625 -3.992797 0
M  V30 53 H -0.394378 -0.478480 -0.598350 0
M  V30 54 H -1.816634 -2.165350 0.316270 0
M  V30 55 H -3.055714 -3.605860 1.052642 0
M  V30 56 H -5.511739 -5.148052 0.329185 0
M  V30 57 H -3.511730 -6.552298 0.205352 0
M  V30 58 H -4.512371 -6.871777 1.725768 0
M  V30 59 H -1.834238 -5.386710 1.493716 0
M  V30 60 H -2.239041 -6.935897 2.266541 0
M  V30 61 H -2.609794 -3.265866 3.655000 0
M  V30 62 H -1.641300 -4.416164 4.702098 0
M  V30 63 H -1.258174 -4.192928 2.961255 0
M  V30 64 H -4.883443 -6.013130 3.738032 0
M  V30 65 H -4.470932 -4.413434 4.387968 0
M  V30 66 H -5.021109 -3.298094 2.415469 0
M  V30 67 H -6.172433 -4.642334 2.485012 0
M  V30 68 H -4.180227 -2.013718 -3.156213 0
M  V30 69 H -4.903701 -0.633079 -4.474439 0
M  V30 70 H -4.113610 -0.097852 -5.994774 0
M  V30 71 H -3.848662 -1.771285 -5.349709 0
M  V30 72 H 2.370386 -0.638640 0.132283 0
M  V30 73 H 1.203896 0.239317 1.188968 0
M  V30 74 H 2.003843 0.164832 3.890903 0
M  V30 75 H 4.112336 -0.993553 5.149066 0
M  V30 76 H 5.722923 -1.765217 3.102669 0
M  V30 END ATOM
M  V30 BEGIN BOND
M  V30 1 1 1 2
M  V30 2 1 2 3
M  V30 3 1 3 4
M  V30 4 2 4 5
M  V30 5 1 5 6
M  V30 6 2 6 7
M  V30 7 1 7 8
M  V30 8 1 7 9
M  V30 9 1 9 10
M  V30 10 2 10 11
M  V30 11 1 11 12
M  V30 12 2 12 13
M  V30 13 1 13 14
M  V30 14 1 14 15
M  V30 15 2 15 16
M  V30 16 1 16 17
M  V30 17 2 17 18
M  V30 18 1 18 19
M  V30 19 2 19 20
M  V30 20 1 19 21
M  V30 21 1 21 22
M  V30 22 1 22 23
M  V30 23 1 23 24
M  V30 24 1 24 25
M  V30 25 1 25 26
M  V30 26 1 25 27
M  V30 27 1 27 28
M  V30 28 1 18 29
M  V30 29 2 29 30
M  V30 30 1 30 31
M  V30 31 1 31 32
M  V30 32 1 13 33
M  V30 33 2 33 34
M  V30 34 1 34 35
M  V30 35 1 35 36
M  V30 36 1 36 37
M  V30 37 2 37 38
M  V30 38 1 38 39
M  V30 39 2 39 40
M  V30 40 1 40 41
M  V30 41 1 35 3
M  V30 42 1 41 37
M  V30 43 1 9 4
M  V30 44 1 34 10
M  V30 45 1 30 15
M  V30 46 1 28 22
M  V30 47 1 1 42
M  V30 48 1 1 43
M  V30 49 1 1 44
M  V30 50 1 2 45
M  V30 51 1 2 46
M  V30 52 1 3 47 CFG=1
M  V30 53 1 8 48
M  V30 54 1 8 49
M  V30 55 1 8 50
M  V30 56 1 11 51
M  V30 57 1 14 52
M  V30 58 1 16 53
M  V30 59 1 17 54
M  V30 60 1 21 55
M  V30 61 1 22 56
M  V30 62 1 23 57
M  V30 63 1 23 58
M  V30 64 1 24 59
M  V30 65 1 24 60
M  V30 66 1 26 61
M  V30 67 1 26 62
M  V30 68 1 26 63
M  V30 69 1 27 64
M  V30 70 1 27 65
M  V30 71 1 28 66
M  V30 72 1 28 67
M  V30 73 1 29 68
M  V30 74 1 32 69
M  V30 75 1 32 70
M  V30 76 1 32 71
M  V30 77 1 36 72
M  V30 78 1 36 73
M  V30 79 1 38 74
M  V30 80 1 39 75
M  V30 81 1 40 76
M  V30 END BOND
M  V30 END CTAB
M  END
>  <Dataset>  (860) 
ChEMBL_Kinases

>  <Ligand_Instance>  (860) 
nan

>  <PDB_ID>  (860) 
nan

>  <Standardized_SMILES>  (860) 
CC[C@@H]1c2nnc(C)n2-c2cnc(Nc3ccc(C(=O)NC4CCN(C)CC4)cc3OC)nc2N1Cc1ccco1

>  <Name>  (860) 
nan

>  <Pocket>  (860) 
nan

>  <ATP_Site>  (860) 
nan

>  <Peripheral>  (860) 
nan

>  <Num_H_Atoms_ProtBoundConf>  (860) 
nan

>  <Num_Resolved_Atoms>  (860) 
nan

>  <Num_Not_Resolved_Atoms>  (860) 
nan

$$$$
CHEMBL4442898
     RDKit          3D

  0  0  0  0  0  0  0  0  0  0999 V3000
M  V30 BEGIN CTAB
M  V30 COUNTS 56 60 0 0 0
M  V30 BEGIN ATOM
M  V30 1 O -1.393411 -3.149119 1.590838 0
M  V30 2 C -1.829437 -2.224450 2.283654 0
M  V30 3 C -1.282645 -0.866790 2.387713 0
M  V30 4 C -0.092379 -0.597988 1.594156 0
M  V30 5 C 0.740764 -1.182897 0.758330 0
M  V30 6 C 1.909024 -0.639288 0.080371 0
M  V30 7 C 2.590197 -1.509447 -0.741644 0
M  V30 8 N 3.673580 -1.026122 -1.379799 0
M  V30 9 C 4.118946 0.231311 -1.262904 0
M  V30 10 N 5.136099 0.962544 -1.762400 0
M  V30 11 C 5.095102 2.225206 -1.279375 0
M  V30 12 C 4.010991 2.330194 -0.430163 0
M  V30 13 C 3.687150 3.583111 0.257202 0
M  V30 14 C 4.572667 4.406931 0.921682 0
M  V30 15 C 4.114071 5.567382 1.524351 0
M  V30 16 C 2.784055 5.930461 1.481217 0
M  V30 17 C 1.893047 5.097305 0.810121 0
M  V30 18 C 2.351778 3.925435 0.200554 0
M  V30 19 C 3.425480 1.069397 -0.443304 0
M  V30 20 C 2.300173 0.669702 0.256438 0
M  V30 21 N -2.980846 -2.583149 3.030685 0
M  V30 22 C -3.786070 -3.742934 3.173507 0
M  V30 23 C -4.598689 -4.233559 2.049418 0
M  V30 24 C -4.014392 -4.594908 0.785912 0
M  V30 25 C -3.684899 -5.900174 0.431676 0
M  V30 26 N -3.142483 -5.990857 -0.795247 0
M  V30 27 C -3.074059 -4.772341 -1.335584 0
M  V30 28 C -2.649932 -4.193327 -2.504804 0
M  V30 29 C -2.717069 -2.835037 -2.781391 0
M  V30 30 C -3.258812 -2.025537 -1.781013 0
M  V30 31 C -3.700765 -2.552401 -0.586568 0
M  V30 32 C -3.600988 -3.933724 -0.378368 0
M  V30 33 H -1.167603 -0.544300 3.462530 0
M  V30 34 H -2.103965 -0.184683 2.006928 0
M  V30 35 H 0.170706 0.461413 1.781563 0
M  V30 36 H 0.413083 -2.199843 0.635404 0
M  V30 37 H 2.303497 -2.556777 -0.902013 0
M  V30 38 H 5.847309 0.571467 -2.434836 0
M  V30 39 H 5.808290 3.015320 -1.530441 0
M  V30 40 H 5.599466 4.078292 0.926428 0
M  V30 41 H 4.839101 6.196733 2.041330 0
M  V30 42 H 2.466286 6.856545 1.971888 0
M  V30 43 H 0.875620 5.464044 0.830353 0
M  V30 44 H 1.511952 3.423916 -0.264235 0
M  V30 45 H 1.765117 1.351280 0.902297 0
M  V30 46 H -3.321245 -1.762619 3.634473 0
M  V30 47 H -3.129603 -4.571436 3.610224 0
M  V30 48 H -4.510565 -3.582472 4.037789 0
M  V30 49 H -5.385672 -3.409840 1.860551 0
M  V30 50 H -5.247383 -5.119500 2.382491 0
M  V30 51 H -3.824855 -6.799548 1.037576 0
M  V30 52 H -2.815276 -6.851659 -1.282818 0
M  V30 53 H -2.231503 -4.849735 -3.267159 0
M  V30 54 H -2.375568 -2.401624 -3.711930 0
M  V30 55 H -3.338620 -0.956995 -1.936454 0
M  V30 56 H -4.121314 -1.878774 0.175647 0
M  V30 END ATOM
M  V30 BEGIN BOND
M  V30 1 2 1 2
M  V30 2 1 2 3
M  V30 3 1 3 4
M  V30 4 2 4 5
M  V30 5 1 5 6
M  V30 6 2 6 7
M  V30 7 1 7 8
M  V30 8 2 8 9
M  V30 9 1 9 10
M  V30 10 1 10 11
M  V30 11 2 11 12
M  V30 12 1 12 13
M  V30 13 2 13 14
M  V30 14 1 14 15
M  V30 15 2 15 16
M  V30 16 1 16 17
M  V30 17 2 17 18
M  V30 18 1 12 19
M  V30 19 2 19 20
M  V30 20 1 2 21
M  V30 21 1 21 22
M  V30 22 1 22 23
M  V30 23 1 23 24
M  V30 24 2 24 25
M  V30 25 1 25 26
M  V30 26 1 26 27
M  V30 27 2 27 28
M  V30 28 1 28 29
M  V30 29 2 29 30
M  V30 30 1 30 31
M  V30 31 2 31 32
M  V30 32 1 20 6
M  V30 33 1 32 24
M  V30 34 1 19 9
M  V30 35 1 32 27
M  V30 36 1 18 13
M  V30 37 1 3 33
M  V30 38 1 3 34
M  V30 39 1 4 35
M  V30 40 1 5 36
M  V30 41 1 7 37
M  V30 42 1 10 38
M  V30 43 1 11 39
M  V30 44 1 14 40
M  V30 45 1 15 41
M  V30 46 1 16 42
M  V30 47 1 17 43
M  V30 48 1 18 44
M  V30 49 1 20 45
M  V30 50 1 21 46
M  V30 51 1 22 47
M  V30 52 1 22 48
M  V30 53 1 23 49
M  V30 54 1 23 50
M  V30 55 1 25 51
M  V30 56 1 26 52
M  V30 57 1 28 53
M  V30 58 1 29 54
M  V30 59 1 30 55
M  V30 60 1 31 56
M  V30 END BOND
M  V30 END CTAB
M  END
>  <Dataset>  (861) 
ChEMBL_Kinases

>  <Ligand_Instance>  (861) 
nan

>  <PDB_ID>  (861) 
nan

>  <Standardized_SMILES>  (861) 
O=C(C/C=C/c1cnc2[nH]cc(-c3ccccc3)c2c1)NCCc1c[nH]c2ccccc12

>  <Name>  (861) 
nan

>  <Pocket>  (861) 
nan

>  <ATP_Site>  (861) 
nan

>  <Peripheral>  (861) 
nan

>  <Num_H_Atoms_ProtBoundConf>  (861) 
nan

>  <Num_Resolved_Atoms>  (861) 
nan

>  <Num_Not_Resolved_Atoms>  (861) 
nan

$$$$
CHEMBL4442834
     RDKit          3D

  0  0  0  0  0  0  0  0  0  0999 V3000
M  V30 BEGIN CTAB
M  V30 COUNTS 37 39 0 0 0
M  V30 BEGIN ATOM
M  V30 1 N 1.352024 -3.934658 3.640287 0
M  V30 2 C 1.677294 -4.522636 2.400937 0
M  V30 3 N 2.028950 -5.809070 2.216585 0
M  V30 4 C 2.326319 -6.286746 0.977223 0
M  V30 5 C 2.275240 -5.453959 -0.142963 0
M  V30 6 C 1.910913 -4.114546 0.036260 0
M  V30 7 C 1.614531 -3.666102 1.320598 0
M  V30 8 N 1.266383 -2.286083 1.314034 0
M  V30 9 C 2.103907 -1.171307 1.459729 0
M  V30 10 O 3.347417 -1.271881 1.624630 0
M  V30 11 C 1.575126 0.188896 1.428192 0
M  V30 12 C 2.433446 1.260490 1.575582 0
M  V30 13 C 2.057875 2.595555 1.563978 0
M  V30 14 N 0.730616 2.858142 1.392346 0
M  V30 15 C -0.128267 1.828599 1.246111 0
M  V30 16 N -1.538704 2.060283 1.062324 0
M  V30 17 C -1.807925 2.172843 -0.321249 0
M  V30 18 O -0.819300 2.055912 -1.089334 0
M  V30 19 C -3.123477 2.413101 -0.969660 0
M  V30 20 C -3.295727 1.931926 -2.373112 0
M  V30 21 C -3.096713 3.388149 -2.146982 0
M  V30 22 C 0.242031 0.502509 1.257266 0
M  V30 23 H 0.430498 -3.700103 4.087186 0
M  V30 24 H 2.225006 -3.714601 4.163796 0
M  V30 25 H 2.604882 -7.335746 0.884428 0
M  V30 26 H 2.520172 -5.869270 -1.124981 0
M  V30 27 H 1.901012 -3.558828 -0.881023 0
M  V30 28 H 0.235261 -2.207527 1.177182 0
M  V30 29 H 3.513289 1.107112 1.716996 0
M  V30 30 H 2.774940 3.391126 1.684174 0
M  V30 31 H -2.389844 2.162634 1.690531 0
M  V30 32 H -4.014815 2.520561 -0.317127 0
M  V30 33 H -2.445929 1.349611 -2.783228 0
M  V30 34 H -4.282143 1.555366 -2.724236 0
M  V30 35 H -4.001192 4.004479 -2.352128 0
M  V30 36 H -2.147833 3.888597 -2.390901 0
M  V30 37 H -0.457618 -0.289253 1.139520 0
M  V30 END ATOM
M  V30 BEGIN BOND
M  V30 1 1 1 2
M  V30 2 2 2 3
M  V30 3 1 3 4
M  V30 4 2 4 5
M  V30 5 1 5 6
M  V30 6 2 6 7
M  V30 7 1 7 8
M  V30 8 1 8 9
M  V30 9 2 9 10
M  V30 10 1 9 11
M  V30 11 2 11 12
M  V30 12 1 12 13
M  V30 13 2 13 14
M  V30 14 1 14 15
M  V30 15 1 15 16
M  V30 16 1 16 17
M  V30 17 2 17 18
M  V30 18 1 17 19
M  V30 19 1 19 20
M  V30 20 1 20 21
M  V30 21 2 15 22
M  V30 22 1 7 2
M  V30 23 1 22 11
M  V30 24 1 21 19
M  V30 25 1 1 23
M  V30 26 1 1 24
M  V30 27 1 4 25
M  V30 28 1 5 26
M  V30 29 1 6 27
M  V30 30 1 8 28
M  V30 31 1 12 29
M  V30 32 1 13 30
M  V30 33 1 16 31
M  V30 34 1 19 32
M  V30 35 1 20 33
M  V30 36 1 20 34
M  V30 37 1 21 35
M  V30 38 1 21 36
M  V30 39 1 22 37
M  V30 END BOND
M  V30 END CTAB
M  END
>  <Dataset>  (862) 
ChEMBL_Kinases

>  <Ligand_Instance>  (862) 
nan

>  <PDB_ID>  (862) 
nan

>  <Standardized_SMILES>  (862) 
Nc1ncccc1NC(=O)c1ccnc(NC(=O)C2CC2)c1

>  <Name>  (862) 
nan

>  <Pocket>  (862) 
nan

>  <ATP_Site>  (862) 
nan

>  <Peripheral>  (862) 
nan

>  <Num_H_Atoms_ProtBoundConf>  (862) 
nan

>  <Num_Resolved_Atoms>  (862) 
nan

>  <Num_Not_Resolved_Atoms>  (862) 
nan

$$$$
CHEMBL4442821
     RDKit          3D

  0  0  0  0  0  0  0  0  0  0999 V3000
M  V30 BEGIN CTAB
M  V30 COUNTS 62 68 0 0 0
M  V30 BEGIN ATOM
M  V30 1 C 0.448961 -2.421099 3.284200 0
M  V30 2 C 0.023343 -1.212880 2.529997 0
M  V30 3 N 0.741778 -0.054971 2.615372 0
M  V30 4 C 0.388171 1.046510 1.952530 0
M  V30 5 N 1.218025 2.189252 2.123213 0
M  V30 6 C 2.380978 2.087755 2.988895 0
M  V30 7 C 3.546090 2.590784 2.156673 0
M  V30 8 N 3.224394 2.723657 0.765922 0
M  V30 9 C 4.384347 3.054075 0.017134 0
M  V30 10 C 4.098782 4.087627 -1.058243 0
M  V30 11 O 3.546476 5.237593 -0.547471 0
M  V30 12 C 2.526796 5.061342 0.353834 0
M  V30 13 C 2.139060 3.606236 0.469763 0 CFG=2
M  V30 14 C 1.012626 3.485397 1.500019 0
M  V30 15 C -0.730096 1.058044 1.145892 0
M  V30 16 C -1.432582 -0.111380 1.076236 0
M  V30 17 N -2.611376 -0.209237 0.266814 0
M  V30 18 N -3.355823 0.788891 -0.166577 0
M  V30 19 C -4.393948 0.354269 -0.904948 0
M  V30 20 C -4.307893 -1.025348 -0.947612 0
M  V30 21 C -5.033557 -2.029912 -1.515161 0
M  V30 22 N -4.692827 -3.337835 -1.379251 0
M  V30 23 C -3.603588 -3.704590 -0.664899 0
M  V30 24 C -3.312703 -5.130178 -0.571552 0
M  V30 25 C -4.563928 -5.923332 -0.538332 0
M  V30 26 N -5.547044 -6.567803 -0.513390 0
M  V30 27 C -2.406454 -5.590764 -1.703583 0
M  V30 28 C -1.376487 -5.895964 -0.697900 0
M  V30 29 C -0.450346 -7.024808 -0.745064 0
M  V30 30 C 0.024216 -5.535224 -0.746472 0
M  V30 31 C -2.315753 -5.603340 0.416007 0
M  V30 32 C -2.862692 -2.686428 -0.085982 0
M  V30 33 C -3.181430 -1.343489 -0.204354 0
M  V30 34 N -1.057299 -1.225113 1.759181 0
M  V30 35 H 1.508469 -2.330548 3.624821 0
M  V30 36 H 0.438547 -3.336389 2.653239 0
M  V30 37 H -0.192941 -2.569993 4.184099 0
M  V30 38 H 2.236623 2.768426 3.862205 0
M  V30 39 H 2.510590 1.074983 3.378432 0
M  V30 40 H 4.313121 1.767595 2.210179 0
M  V30 41 H 4.045008 3.463763 2.601765 0
M  V30 42 H 5.290343 3.296287 0.598208 0
M  V30 43 H 4.666183 2.123613 -0.558252 0
M  V30 44 H 5.073249 4.352121 -1.517644 0
M  V30 45 H 3.497922 3.632616 -1.866709 0
M  V30 46 H 2.807385 5.510462 1.314803 0
M  V30 47 H 1.591536 5.586700 0.007054 0
M  V30 48 H 1.694968 3.302784 -0.500384 0
M  V30 49 H 0.021784 3.637552 1.076700 0
M  V30 50 H 1.174008 4.295904 2.261507 0
M  V30 51 H -1.017671 1.950729 0.607821 0
M  V30 52 H -5.172234 0.926504 -1.392589 0
M  V30 53 H -5.920382 -1.764118 -2.099172 0
M  V30 54 H -2.802153 -6.440753 -2.291782 0
M  V30 55 H -2.106225 -4.760824 -2.381125 0
M  V30 56 H -0.354265 -7.540659 -1.725612 0
M  V30 57 H -0.210241 -7.617839 0.163259 0
M  V30 58 H 0.515338 -5.208647 -1.688444 0
M  V30 59 H 0.586194 -5.228006 0.160836 0
M  V30 60 H -1.874448 -4.913282 1.133825 0
M  V30 61 H -2.579731 -6.553143 0.963740 0
M  V30 62 H -2.010378 -2.985816 0.472038 0
M  V30 END ATOM
M  V30 BEGIN BOND
M  V30 1 1 1 2
M  V30 2 2 2 3
M  V30 3 1 3 4
M  V30 4 1 4 5
M  V30 5 1 5 6
M  V30 6 1 6 7
M  V30 7 1 7 8
M  V30 8 1 8 9
M  V30 9 1 9 10
M  V30 10 1 10 11
M  V30 11 1 11 12
M  V30 12 1 12 13
M  V30 13 1 13 14
M  V30 14 2 4 15
M  V30 15 1 15 16
M  V30 16 1 16 17
M  V30 17 1 17 18
M  V30 18 2 18 19
M  V30 19 1 19 20
M  V30 20 2 20 21
M  V30 21 1 21 22
M  V30 22 2 22 23
M  V30 23 1 23 24
M  V30 24 1 24 25
M  V30 25 3 25 26
M  V30 26 1 24 27
M  V30 27 1 27 28
M  V30 28 1 28 29
M  V30 29 1 29 30
M  V30 30 1 28 31
M  V30 31 1 23 32
M  V30 32 2 32 33
M  V30 33 2 16 34
M  V30 34 1 34 2
M  V30 35 1 14 5
M  V30 36 1 33 17
M  V30 37 1 13 8
M  V30 38 1 33 20
M  V30 39 1 31 24
M  V30 40 1 30 28
M  V30 41 1 1 35
M  V30 42 1 1 36
M  V30 43 1 1 37
M  V30 44 1 6 38
M  V30 45 1 6 39
M  V30 46 1 7 40
M  V30 47 1 7 41
M  V30 48 1 9 42
M  V30 49 1 9 43
M  V30 50 1 10 44
M  V30 51 1 10 45
M  V30 52 1 12 46
M  V30 53 1 12 47
M  V30 54 1 13 48 CFG=3
M  V30 55 1 14 49
M  V30 56 1 14 50
M  V30 57 1 15 51
M  V30 58 1 19 52
M  V30 59 1 21 53
M  V30 60 1 27 54
M  V30 61 1 27 55
M  V30 62 1 29 56
M  V30 63 1 29 57
M  V30 64 1 30 58
M  V30 65 1 30 59
M  V30 66 1 31 60
M  V30 67 1 31 61
M  V30 68 1 32 62
M  V30 END BOND
M  V30 END CTAB
M  END
>  <Dataset>  (863) 
ChEMBL_Kinases

>  <Ligand_Instance>  (863) 
nan

>  <PDB_ID>  (863) 
nan

>  <Standardized_SMILES>  (863) 
Cc1nc(N2CCN3CCOC[C@@H]3C2)cc(-n2ncc3cnc(C4(C#N)CC5(CC5)C4)cc32)n1

>  <Name>  (863) 
nan

>  <Pocket>  (863) 
nan

>  <ATP_Site>  (863) 
nan

>  <Peripheral>  (863) 
nan

>  <Num_H_Atoms_ProtBoundConf>  (863) 
nan

>  <Num_Resolved_Atoms>  (863) 
nan

>  <Num_Not_Resolved_Atoms>  (863) 
nan

$$$$
CHEMBL4442377
     RDKit          3D

  0  0  0  0  0  0  0  0  0  0999 V3000
M  V30 BEGIN CTAB
M  V30 COUNTS 55 58 0 0 0
M  V30 BEGIN ATOM
M  V30 1 C -1.680188 -5.368672 3.211609 0
M  V30 2 C -1.168860 -4.123048 2.617712 0
M  V30 3 C -0.518521 -3.104616 3.323908 0
M  V30 4 C -0.059205 -1.954431 2.708396 0
M  V30 5 O 0.535789 -1.147566 3.677470 0
M  V30 6 C -0.244656 -1.787781 1.325088 0
M  V30 7 C 0.354475 -0.509467 1.067334 0
M  V30 8 C 1.738180 -0.496604 0.757318 0
M  V30 9 C 2.297733 0.753119 0.600345 0
M  V30 10 C 1.578651 1.947929 0.730953 0
M  V30 11 C 2.223145 3.253913 0.553041 0 CFG=1
M  V30 12 C 2.073133 3.832143 -0.838688 0
M  V30 13 N 1.910769 4.245758 1.523853 0
M  V30 14 C 2.008253 3.767647 2.879536 0
M  V30 15 C 0.696416 4.964049 1.343664 0
M  V30 16 C 0.235439 1.861360 1.033805 0
M  V30 17 C -0.418688 0.670460 1.210458 0
M  V30 18 C -0.875696 -2.784407 0.663947 0
M  V30 19 C -1.332132 -3.923192 1.263658 0
M  V30 20 N -1.946749 -4.856105 0.519045 0
M  V30 21 C -2.137272 -4.721888 -0.804353 0
M  V30 22 O -2.718031 -5.656931 -1.370997 0
M  V30 23 C -1.664032 -3.550246 -1.399493 0
M  V30 24 C -1.871293 -3.436674 -2.736893 0
M  V30 25 C -2.553537 -4.489264 -3.522292 0
M  V30 26 C -1.409913 -2.281846 -3.329403 0
M  V30 27 C -0.758011 -1.247488 -2.651277 0
M  V30 28 C -0.620454 -1.502564 -1.308562 0
M  V30 29 C -1.045391 -2.606122 -0.663407 0
M  V30 30 H -1.527917 -5.348126 4.321899 0
M  V30 31 H -2.768114 -5.513382 3.075406 0
M  V30 32 H -1.110063 -6.279641 2.868144 0
M  V30 33 H -0.449637 -3.372778 4.371460 0
M  V30 34 H 1.518062 -1.189191 3.871497 0
M  V30 35 H 2.252284 -1.420668 0.665718 0
M  V30 36 H 3.365109 0.767110 0.361090 0
M  V30 37 H 3.335246 3.067286 0.655678 0
M  V30 38 H 1.182506 3.333751 -1.295265 0
M  V30 39 H 2.939472 3.589339 -1.504780 0
M  V30 40 H 1.926231 4.929816 -0.790483 0
M  V30 41 H 0.983021 3.614605 3.289326 0
M  V30 42 H 2.486375 4.522084 3.536638 0
M  V30 43 H 2.617667 2.850639 2.873619 0
M  V30 44 H 0.230542 4.873442 0.342086 0
M  V30 45 H 0.972794 6.059156 1.407161 0
M  V30 46 H -0.041913 4.847239 2.180484 0
M  V30 47 H -0.408774 2.714906 1.156036 0
M  V30 48 H -1.463692 0.527583 1.448008 0
M  V30 49 H -2.290596 -5.731886 1.015631 0
M  V30 50 H -1.992478 -5.447896 -3.573513 0
M  V30 51 H -3.626488 -4.614997 -3.244699 0
M  V30 52 H -2.607289 -4.163834 -4.605108 0
M  V30 53 H -1.593984 -2.221966 -4.414075 0
M  V30 54 H -0.481592 -0.438024 -3.303746 0
M  V30 55 H -0.131041 -0.642966 -0.986744 0
M  V30 END ATOM
M  V30 BEGIN BOND
M  V30 1 1 1 2
M  V30 2 2 2 3
M  V30 3 1 3 4
M  V30 4 1 4 5
M  V30 5 2 4 6
M  V30 6 1 6 7
M  V30 7 2 7 8
M  V30 8 1 8 9
M  V30 9 2 9 10
M  V30 10 1 10 11
M  V30 11 1 11 12
M  V30 12 1 11 13
M  V30 13 1 13 14
M  V30 14 1 13 15
M  V30 15 1 10 16
M  V30 16 2 16 17
M  V30 17 1 6 18
M  V30 18 2 18 19
M  V30 19 1 19 20
M  V30 20 1 20 21
M  V30 21 2 21 22
M  V30 22 1 21 23
M  V30 23 2 23 24
M  V30 24 1 24 25
M  V30 25 1 24 26
M  V30 26 2 26 27
M  V30 27 1 27 28
M  V30 28 2 28 29
M  V30 29 1 19 2
M  V30 30 1 29 23
M  V30 31 1 17 7
M  V30 32 1 29 18
M  V30 33 1 1 30
M  V30 34 1 1 31
M  V30 35 1 1 32
M  V30 36 1 3 33
M  V30 37 1 5 34
M  V30 38 1 8 35
M  V30 39 1 9 36
M  V30 40 1 11 37 CFG=1
M  V30 41 1 12 38
M  V30 42 1 12 39
M  V30 43 1 12 40
M  V30 44 1 14 41
M  V30 45 1 14 42
M  V30 46 1 14 43
M  V30 47 1 15 44
M  V30 48 1 15 45
M  V30 49 1 15 46
M  V30 50 1 16 47
M  V30 51 1 17 48
M  V30 52 1 20 49
M  V30 53 1 25 50
M  V30 54 1 25 51
M  V30 55 1 25 52
M  V30 56 1 26 53
M  V30 57 1 27 54
M  V30 58 1 28 55
M  V30 END BOND
M  V30 END CTAB
M  END
>  <Dataset>  (864) 
ChEMBL_Kinases

>  <Ligand_Instance>  (864) 
nan

>  <PDB_ID>  (864) 
nan

>  <Standardized_SMILES>  (864) 
Cc1cc(O)c(-c2ccc([C@@H](C)N(C)C)cc2)c2c1[nH]c(=O)c1c(C)cccc12

>  <Name>  (864) 
nan

>  <Pocket>  (864) 
nan

>  <ATP_Site>  (864) 
nan

>  <Peripheral>  (864) 
nan

>  <Num_H_Atoms_ProtBoundConf>  (864) 
nan

>  <Num_Resolved_Atoms>  (864) 
nan

>  <Num_Not_Resolved_Atoms>  (864) 
nan

$$$$
CHEMBL4442806
     RDKit          3D

  0  0  0  0  0  0  0  0  0  0999 V3000
M  V30 BEGIN CTAB
M  V30 COUNTS 34 37 0 0 0
M  V30 BEGIN ATOM
M  V30 1 O -1.820967 -2.866349 2.532646 0
M  V30 2 C -0.725641 -2.394455 2.150035 0
M  V30 3 N 0.510204 -3.059243 1.979266 0
M  V30 4 C 1.574604 -2.216915 1.540194 0
M  V30 5 N 2.620492 -2.390585 0.804523 0
M  V30 6 C 3.532981 -1.301104 0.539726 0
M  V30 7 C 4.702213 -0.974948 1.194101 0
M  V30 8 C 5.405210 0.118798 0.753796 0
M  V30 9 C 5.009571 0.895985 -0.291996 0
M  V30 10 C 3.828942 0.558548 -0.945224 0
M  V30 11 Cl 3.308451 1.560844 -2.302328 0
M  V30 12 C 3.090715 -0.540039 -0.529266 0
M  V30 13 S 1.057239 -0.654673 2.354969 0
M  V30 14 C -0.663377 -0.994017 1.838476 0
M  V30 15 C -1.406105 -0.084554 1.289354 0
M  V30 16 C -1.184532 1.334038 1.058093 0
M  V30 17 O -0.116903 1.861833 1.467603 0
M  V30 18 N -2.322238 1.827305 0.366652 0
M  V30 19 C -3.205455 0.703475 0.191530 0
M  V30 20 C -4.413156 0.800219 -0.465022 0
M  V30 21 C -5.166029 -0.333569 -0.603658 0
M  V30 22 C -4.694475 -1.544897 -0.082308 0
M  V30 23 I -5.925626 -3.224097 -0.351093 0
M  V30 24 C -3.479599 -1.528703 0.553260 0
M  V30 25 C -2.679325 -0.445346 0.731721 0
M  V30 26 H 0.708825 -4.099763 2.138811 0
M  V30 27 H 4.930458 -1.647640 2.005771 0
M  V30 28 H 6.326398 0.330311 1.311563 0
M  V30 29 H 5.604079 1.750017 -0.598478 0
M  V30 30 H 2.182295 -0.709221 -1.115903 0
M  V30 31 H -2.405780 2.828232 0.084329 0
M  V30 32 H -4.812709 1.704402 -0.879303 0
M  V30 33 H -6.115107 -0.288083 -1.111869 0
M  V30 34 H -3.257256 -2.519290 0.848271 0
M  V30 END ATOM
M  V30 BEGIN BOND
M  V30 1 2 1 2
M  V30 2 1 2 3
M  V30 3 1 3 4
M  V30 4 2 4 5
M  V30 5 1 5 6
M  V30 6 2 6 7
M  V30 7 1 7 8
M  V30 8 2 8 9
M  V30 9 1 9 10
M  V30 10 1 10 11
M  V30 11 2 10 12
M  V30 12 1 4 13
M  V30 13 1 13 14
M  V30 14 2 14 15
M  V30 15 1 15 16
M  V30 16 2 16 17
M  V30 17 1 16 18
M  V30 18 1 18 19
M  V30 19 2 19 20
M  V30 20 1 20 21
M  V30 21 2 21 22
M  V30 22 1 22 23
M  V30 23 1 22 24
M  V30 24 2 24 25
M  V30 25 1 14 2
M  V30 26 1 25 15
M  V30 27 1 12 6
M  V30 28 1 25 19
M  V30 29 1 3 26
M  V30 30 1 7 27
M  V30 31 1 8 28
M  V30 32 1 9 29
M  V30 33 1 12 30
M  V30 34 1 18 31
M  V30 35 1 20 32
M  V30 36 1 21 33
M  V30 37 1 24 34
M  V30 END BOND
M  V30 END CTAB
M  END
>  <Dataset>  (865) 
ChEMBL_Kinases

>  <Ligand_Instance>  (865) 
nan

>  <PDB_ID>  (865) 
nan

>  <Standardized_SMILES>  (865) 
O=C1N/C(=N/c2cccc(Cl)c2)S/C1=C1\C(=O)Nc2ccc(I)cc21

>  <Name>  (865) 
nan

>  <Pocket>  (865) 
nan

>  <ATP_Site>  (865) 
nan

>  <Peripheral>  (865) 
nan

>  <Num_H_Atoms_ProtBoundConf>  (865) 
nan

>  <Num_Resolved_Atoms>  (865) 
nan

>  <Num_Not_Resolved_Atoms>  (865) 
nan

$$$$
CHEMBL4751438
     RDKit          3D

  0  0  0  0  0  0  0  0  0  0999 V3000
M  V30 BEGIN CTAB
M  V30 COUNTS 68 72 0 0 0
M  V30 BEGIN ATOM
M  V30 1 C 6.795833 -3.695552 6.313812 0
M  V30 2 C 5.440026 -3.128319 6.451671 0
M  V30 3 C 4.622557 -3.574571 7.464417 0
M  V30 4 C 3.373253 -3.052707 7.591951 0
M  V30 5 C 2.926318 -2.090281 6.722813 0
M  V30 6 C 3.679786 -1.587535 5.681610 0
M  V30 7 N 3.179234 -0.605871 4.823316 0
M  V30 8 C 3.795586 0.014034 3.703905 0
M  V30 9 C 3.145838 0.969224 2.973943 0
M  V30 10 C 3.688816 1.604304 1.881660 0
M  V30 11 C 2.907909 2.613989 1.167910 0
M  V30 12 N 2.936064 3.971622 1.010069 0
M  V30 13 O 1.956176 4.323943 0.235205 0
M  V30 14 C 1.252653 3.288963 -0.151454 0
M  V30 15 C 0.076613 3.187661 -1.012318 0
M  V30 16 C -0.513716 1.970815 -1.288881 0
M  V30 17 C -1.607615 1.929142 -2.097174 0
M  V30 18 C -2.207087 3.019324 -2.688855 0
M  V30 19 N -3.331968 2.900818 -3.515965 0
M  V30 20 S -4.813445 2.057637 -3.361861 0
M  V30 21 O -5.634795 2.362539 -4.590200 0
M  V30 22 O -5.607362 2.565231 -2.168520 0
M  V30 23 C -4.643067 0.336599 -3.236566 0
M  V30 24 C -4.554899 -0.330289 -2.011582 0
M  V30 25 C -4.418842 -1.683734 -1.828513 0
M  V30 26 C -4.363489 -2.464958 -2.973612 0
M  V30 27 C -4.215601 -3.929099 -2.713915 0
M  V30 28 C -2.730690 -4.264341 -2.650829 0
M  V30 29 C -4.891701 -4.731931 -3.813623 0
M  V30 30 C -4.868836 -4.312356 -1.409578 0
M  V30 31 C -4.443971 -1.880582 -4.224029 0
M  V30 32 C -4.580907 -0.508066 -4.346878 0
M  V30 33 C -1.575755 4.229619 -2.380927 0
M  V30 34 C -0.468547 4.325348 -1.570048 0
M  V30 35 N 1.851509 2.215782 0.435011 0
M  V30 36 C 4.963949 1.282023 1.470340 0
M  V30 37 C 5.614406 0.323456 2.203766 0
M  V30 38 N 5.029757 -0.252802 3.252247 0
M  V30 39 C 4.931018 -2.160174 5.612562 0
M  V30 40 H 7.508388 -2.957345 5.859916 0
M  V30 41 H 7.248030 -3.979661 7.292332 0
M  V30 42 H 6.770838 -4.568509 5.622530 0
M  V30 43 H 4.958687 -4.331317 8.157922 0
M  V30 44 H 2.723105 -3.402196 8.390301 0
M  V30 45 H 1.908031 -1.711609 6.881095 0
M  V30 46 H 2.194887 -0.271129 5.035165 0
M  V30 47 H 2.131101 1.262705 3.257218 0
M  V30 48 H -0.048529 1.113432 -0.828123 0
M  V30 49 H -1.978561 0.924114 -2.242716 0
M  V30 50 H -3.110663 3.486269 -4.374846 0
M  V30 51 H -4.605252 0.344589 -1.147799 0
M  V30 52 H -4.366279 -2.028718 -0.813865 0
M  V30 53 H -2.423291 -4.087421 -1.586725 0
M  V30 54 H -2.613165 -5.342220 -2.914478 0
M  V30 55 H -2.138987 -3.612140 -3.295642 0
M  V30 56 H -5.828647 -4.196199 -4.065282 0
M  V30 57 H -4.240069 -4.814331 -4.721477 0
M  V30 58 H -5.136743 -5.751656 -3.434314 0
M  V30 59 H -5.832427 -3.760799 -1.340586 0
M  V30 60 H -5.005334 -5.410750 -1.413921 0
M  V30 61 H -4.240559 -4.046463 -0.520256 0
M  V30 62 H -4.394201 -2.547681 -5.078209 0
M  V30 63 H -4.642429 -0.066368 -5.336766 0
M  V30 64 H -2.020831 5.129477 -2.832187 0
M  V30 65 H -0.004657 5.267990 -1.350580 0
M  V30 66 H 5.434961 1.746860 0.625112 0
M  V30 67 H 6.620873 0.042572 1.910710 0
M  V30 68 H 5.619490 -1.851263 4.839361 0
M  V30 END ATOM
M  V30 BEGIN BOND
M  V30 1 1 1 2
M  V30 2 2 2 3
M  V30 3 1 3 4
M  V30 4 2 4 5
M  V30 5 1 5 6
M  V30 6 1 6 7
M  V30 7 1 7 8
M  V30 8 2 8 9
M  V30 9 1 9 10
M  V30 10 1 10 11
M  V30 11 2 11 12
M  V30 12 1 12 13
M  V30 13 1 13 14
M  V30 14 1 14 15
M  V30 15 2 15 16
M  V30 16 1 16 17
M  V30 17 2 17 18
M  V30 18 1 18 19
M  V30 19 1 19 20
M  V30 20 2 20 21
M  V30 21 2 20 22
M  V30 22 1 20 23
M  V30 23 2 23 24
M  V30 24 1 24 25
M  V30 25 2 25 26
M  V30 26 1 26 27
M  V30 27 1 27 28
M  V30 28 1 27 29
M  V30 29 1 27 30
M  V30 30 1 26 31
M  V30 31 2 31 32
M  V30 32 1 18 33
M  V30 33 2 33 34
M  V30 34 2 14 35
M  V30 35 2 10 36
M  V30 36 1 36 37
M  V30 37 2 37 38
M  V30 38 2 6 39
M  V30 39 1 39 2
M  V30 40 1 38 8
M  V30 41 1 35 11
M  V30 42 1 34 15
M  V30 43 1 32 23
M  V30 44 1 1 40
M  V30 45 1 1 41
M  V30 46 1 1 42
M  V30 47 1 3 43
M  V30 48 1 4 44
M  V30 49 1 5 45
M  V30 50 1 7 46
M  V30 51 1 9 47
M  V30 52 1 16 48
M  V30 53 1 17 49
M  V30 54 1 19 50
M  V30 55 1 24 51
M  V30 56 1 25 52
M  V30 57 1 28 53
M  V30 58 1 28 54
M  V30 59 1 28 55
M  V30 60 1 29 56
M  V30 61 1 29 57
M  V30 62 1 29 58
M  V30 63 1 30 59
M  V30 64 1 30 60
M  V30 65 1 30 61
M  V30 66 1 31 62
M  V30 67 1 32 63
M  V30 68 1 33 64
M  V30 69 1 34 65
M  V30 70 1 36 66
M  V30 71 1 37 67
M  V30 72 1 39 68
M  V30 END BOND
M  V30 END CTAB
M  END
>  <Dataset>  (866) 
ChEMBL_Kinases

>  <Ligand_Instance>  (866) 
nan

>  <PDB_ID>  (866) 
nan

>  <Standardized_SMILES>  (866) 
Cc1cccc(Nc2cc(-c3noc(-c4ccc(NS(=O)(=O)c5ccc(C(C)(C)C)cc5)cc4)n3)ccn2)c1

>  <Name>  (866) 
nan

>  <Pocket>  (866) 
nan

>  <ATP_Site>  (866) 
nan

>  <Peripheral>  (866) 
nan

>  <Num_H_Atoms_ProtBoundConf>  (866) 
nan

>  <Num_Resolved_Atoms>  (866) 
nan

>  <Num_Not_Resolved_Atoms>  (866) 
nan

$$$$
CHEMBL4442656
     RDKit          3D

  0  0  0  0  0  0  0  0  0  0999 V3000
M  V30 BEGIN CTAB
M  V30 COUNTS 49 51 0 0 0
M  V30 BEGIN ATOM
M  V30 1 C 3.208398 -4.564168 3.116065 0
M  V30 2 C 2.385504 -3.637254 2.283262 0
M  V30 3 C 0.914203 -3.685243 2.684257 0
M  V30 4 C 2.456137 -4.034847 0.838370 0
M  V30 5 O 2.792269 -2.275367 2.490172 0
M  V30 6 C 2.201372 -1.228503 1.849280 0
M  V30 7 O 1.320026 -1.684242 1.120307 0
M  V30 8 N 2.476611 0.139209 1.939071 0
M  V30 9 C 1.909840 1.280645 1.307477 0
M  V30 10 C 1.966833 1.371935 -0.162955 0
M  V30 11 N 1.298468 0.382214 -0.933250 0
M  V30 12 C -0.121272 0.326404 -0.864575 0
M  V30 13 N -0.817891 1.180946 -0.096272 0
M  V30 14 C -2.143250 1.195003 0.022889 0
M  V30 15 C -2.808226 2.165344 0.885076 0
M  V30 16 C -2.070571 3.088032 1.593836 0
M  V30 17 C -2.782187 3.968530 2.384962 0
M  V30 18 N -4.136431 3.985552 2.508947 0
M  V30 19 C -4.863031 3.069349 1.804692 0
M  V30 20 C -4.182095 2.178854 1.007724 0
M  V30 21 N -2.877244 0.299732 -0.663356 0
M  V30 22 C -2.283385 -0.616979 -1.475114 0
M  V30 23 C -3.010675 -1.547982 -2.191649 0
M  V30 24 N -2.383986 -2.437523 -2.983420 0
M  V30 25 C -1.027290 -2.416713 -3.076076 0
M  V30 26 C -0.317767 -1.494840 -2.365705 0
M  V30 27 C -0.907269 -0.568171 -1.546025 0
M  V30 28 H 4.271377 -4.229098 3.027708 0
M  V30 29 H 2.902766 -4.562565 4.179830 0
M  V30 30 H 3.100069 -5.581067 2.651141 0
M  V30 31 H 0.246127 -3.672369 1.794626 0
M  V30 32 H 0.614015 -2.816835 3.294407 0
M  V30 33 H 0.735941 -4.592781 3.300452 0
M  V30 34 H 1.446634 -4.048328 0.342798 0
M  V30 35 H 2.800894 -5.087871 0.786859 0
M  V30 36 H 3.194033 -3.417454 0.290558 0
M  V30 37 H 3.279881 0.247961 2.639077 0
M  V30 38 H 0.868000 1.366991 1.708697 0
M  V30 39 H 2.430955 2.169488 1.718027 0
M  V30 40 H 1.471951 2.355346 -0.437607 0
M  V30 41 H 3.017869 1.515901 -0.490883 0
M  V30 42 H 1.899996 -0.244779 -1.503626 0
M  V30 43 H -1.001052 3.143423 1.553256 0
M  V30 44 H -2.319787 4.738310 2.988665 0
M  V30 45 H -5.928000 2.986468 1.822000 0
M  V30 46 H -4.722969 1.424161 0.422950 0
M  V30 47 H -4.093099 -1.550136 -2.105685 0
M  V30 48 H -0.555734 -3.156021 -3.730127 0
M  V30 49 H 0.735942 -1.536111 -2.485510 0
M  V30 END ATOM
M  V30 BEGIN BOND
M  V30 1 1 1 2
M  V30 2 1 2 3
M  V30 3 1 2 4
M  V30 4 1 2 5
M  V30 5 1 5 6
M  V30 6 2 6 7
M  V30 7 1 6 8
M  V30 8 1 8 9
M  V30 9 1 9 10
M  V30 10 1 10 11
M  V30 11 1 11 12
M  V30 12 2 12 13
M  V30 13 1 13 14
M  V30 14 1 14 15
M  V30 15 2 15 16
M  V30 16 1 16 17
M  V30 17 2 17 18
M  V30 18 1 18 19
M  V30 19 2 19 20
M  V30 20 2 14 21
M  V30 21 1 21 22
M  V30 22 2 22 23
M  V30 23 1 23 24
M  V30 24 2 24 25
M  V30 25 1 25 26
M  V30 26 2 26 27
M  V30 27 1 27 12
M  V30 28 1 20 15
M  V30 29 1 27 22
M  V30 30 1 1 28
M  V30 31 1 1 29
M  V30 32 1 1 30
M  V30 33 1 3 31
M  V30 34 1 3 32
M  V30 35 1 3 33
M  V30 36 1 4 34
M  V30 37 1 4 35
M  V30 38 1 4 36
M  V30 39 1 8 37
M  V30 40 1 9 38
M  V30 41 1 9 39
M  V30 42 1 10 40
M  V30 43 1 10 41
M  V30 44 1 11 42
M  V30 45 1 16 43
M  V30 46 1 17 44
M  V30 47 1 19 45
M  V30 48 1 20 46
M  V30 49 1 23 47
M  V30 50 1 25 48
M  V30 51 1 26 49
M  V30 END BOND
M  V30 END CTAB
M  END
>  <Dataset>  (867) 
ChEMBL_Kinases

>  <Ligand_Instance>  (867) 
nan

>  <PDB_ID>  (867) 
nan

>  <Standardized_SMILES>  (867) 
CC(C)(C)OC(=O)NCCNc1nc(-c2ccncc2)nc2cnccc12

>  <Name>  (867) 
nan

>  <Pocket>  (867) 
nan

>  <ATP_Site>  (867) 
nan

>  <Peripheral>  (867) 
nan

>  <Num_H_Atoms_ProtBoundConf>  (867) 
nan

>  <Num_Resolved_Atoms>  (867) 
nan

>  <Num_Not_Resolved_Atoms>  (867) 
nan

$$$$
CHEMBL4751494
     RDKit          3D

  0  0  0  0  0  0  0  0  0  0999 V3000
M  V30 BEGIN CTAB
M  V30 COUNTS 63 67 0 0 0
M  V30 BEGIN ATOM
M  V30 1 C 4.784344 -1.329239 4.890749 0
M  V30 2 N 4.895021 -2.058414 3.691424 0
M  V30 3 C 6.046409 -1.817711 2.877968 0
M  V30 4 C 5.743663 -1.714995 1.401112 0
M  V30 5 N 4.612278 -0.876514 1.117625 0
M  V30 6 C 4.485804 0.372175 0.375291 0
M  V30 7 O 5.603429 0.691262 -0.043636 0
M  V30 8 C 3.083454 0.849374 0.360064 0
M  V30 9 C 2.207945 0.093517 -0.391351 0
M  V30 10 C 0.870318 0.471549 -0.404974 0
M  V30 11 C 0.416260 1.558107 0.297827 0
M  V30 12 C -0.991020 1.910204 0.313137 0
M  V30 13 C -1.325059 3.149532 0.883733 0
M  V30 14 N -2.612981 3.531356 1.016099 0
M  V30 15 C -3.630634 2.752271 0.610117 0
M  V30 16 N -4.968809 2.853016 0.640272 0
M  V30 17 C -5.460264 1.745295 0.106973 0
M  V30 18 C -4.493698 0.857464 -0.304222 0
M  V30 19 C -4.824168 -0.359026 -0.955736 0
M  V30 20 C -6.111408 -0.511807 -1.475592 0
M  V30 21 C -6.615376 -1.605568 -2.125902 0
M  V30 22 C -7.948166 -1.720023 -2.599031 0
M  V30 23 N -9.055064 -1.795743 -3.000305 0
M  V30 24 C -5.759496 -2.675323 -2.285648 0
M  V30 25 C -4.455201 -2.660581 -1.818849 0
M  V30 26 N -3.619803 -3.747320 -2.069556 0
M  V30 27 S -2.123737 -4.256325 -1.468549 0
M  V30 28 C -0.887056 -3.008000 -1.875169 0
M  V30 29 O -2.267548 -4.351054 0.049486 0
M  V30 30 O -1.698392 -5.607075 -1.996828 0
M  V30 31 C -4.119259 -1.480385 -1.191227 0
M  V30 32 C -3.340577 1.523518 0.035650 0
M  V30 33 C -2.038860 1.125970 -0.105425 0
M  V30 34 C 1.316947 2.275756 1.020546 0
M  V30 35 C 2.684750 1.961317 1.086960 0
M  V30 36 C 3.468368 -1.515308 1.727555 0
M  V30 37 C 3.703935 -2.319747 2.942726 0
M  V30 38 H 3.723077 -1.076963 5.111522 0
M  V30 39 H 5.106399 -2.013451 5.734384 0
M  V30 40 H 5.436462 -0.436008 4.965767 0
M  V30 41 H 6.757552 -2.685688 3.045951 0
M  V30 42 H 6.568810 -0.921510 3.227539 0
M  V30 43 H 5.531039 -2.783591 1.086974 0
M  V30 44 H 6.669362 -1.420264 0.892440 0
M  V30 45 H 2.501874 -0.792283 -0.981138 0
M  V30 46 H 0.209070 -0.131129 -0.981917 0
M  V30 47 H -0.700904 3.915888 1.272006 0
M  V30 48 H -5.479551 3.665826 1.029931 0
M  V30 49 H -6.556871 1.627421 0.049664 0
M  V30 50 H -6.848595 0.293154 -1.401959 0
M  V30 51 H -6.151941 -3.561016 -2.814137 0
M  V30 52 H -3.957138 -4.437130 -2.773880 0
M  V30 53 H -1.201677 -2.392771 -2.746028 0
M  V30 54 H -0.756827 -2.397201 -0.968700 0
M  V30 55 H 0.058079 -3.546969 -2.164994 0
M  V30 56 H -3.088196 -1.523696 -0.843336 0
M  V30 57 H -1.761664 0.214032 -0.542702 0
M  V30 58 H 1.068932 3.133914 1.606573 0
M  V30 59 H 3.437614 2.508875 1.642547 0
M  V30 60 H 3.001483 -2.199999 0.976115 0
M  V30 61 H 2.698014 -0.691767 1.895873 0
M  V30 62 H 3.687510 -3.421339 2.732195 0
M  V30 63 H 2.816275 -2.170428 3.636288 0
M  V30 END ATOM
M  V30 BEGIN BOND
M  V30 1 1 1 2
M  V30 2 1 2 3
M  V30 3 1 3 4
M  V30 4 1 4 5
M  V30 5 1 5 6
M  V30 6 2 6 7
M  V30 7 1 6 8
M  V30 8 2 8 9
M  V30 9 1 9 10
M  V30 10 2 10 11
M  V30 11 1 11 12
M  V30 12 2 12 13
M  V30 13 1 13 14
M  V30 14 2 14 15
M  V30 15 1 15 16
M  V30 16 1 16 17
M  V30 17 2 17 18
M  V30 18 1 18 19
M  V30 19 2 19 20
M  V30 20 1 20 21
M  V30 21 1 21 22
M  V30 22 3 22 23
M  V30 23 2 21 24
M  V30 24 1 24 25
M  V30 25 1 25 26
M  V30 26 1 26 27
M  V30 27 1 27 28
M  V30 28 2 27 29
M  V30 29 2 27 30
M  V30 30 2 25 31
M  V30 31 1 18 32
M  V30 32 2 32 33
M  V30 33 1 11 34
M  V30 34 2 34 35
M  V30 35 1 5 36
M  V30 36 1 36 37
M  V30 37 1 37 2
M  V30 38 1 35 8
M  V30 39 1 33 12
M  V30 40 1 32 15
M  V30 41 1 31 19
M  V30 42 1 1 38
M  V30 43 1 1 39
M  V30 44 1 1 40
M  V30 45 1 3 41
M  V30 46 1 3 42
M  V30 47 1 4 43
M  V30 48 1 4 44
M  V30 49 1 9 45
M  V30 50 1 10 46
M  V30 51 1 13 47
M  V30 52 1 16 48
M  V30 53 1 17 49
M  V30 54 1 20 50
M  V30 55 1 24 51
M  V30 56 1 26 52
M  V30 57 1 28 53
M  V30 58 1 28 54
M  V30 59 1 28 55
M  V30 60 1 31 56
M  V30 61 1 33 57
M  V30 62 1 34 58
M  V30 63 1 35 59
M  V30 64 1 36 60
M  V30 65 1 36 61
M  V30 66 1 37 62
M  V30 67 1 37 63
M  V30 END BOND
M  V30 END CTAB
M  END
>  <Dataset>  (868) 
ChEMBL_Kinases

>  <Ligand_Instance>  (868) 
nan

>  <PDB_ID>  (868) 
nan

>  <Standardized_SMILES>  (868) 
CN1CCN(C(=O)c2ccc(-c3cnc4[nH]cc(-c5cc(C#N)cc(NS(C)(=O)=O)c5)c4c3)cc2)CC1

>  <Name>  (868) 
nan

>  <Pocket>  (868) 
nan

>  <ATP_Site>  (868) 
nan

>  <Peripheral>  (868) 
nan

>  <Num_H_Atoms_ProtBoundConf>  (868) 
nan

>  <Num_Resolved_Atoms>  (868) 
nan

>  <Num_Not_Resolved_Atoms>  (868) 
nan

$$$$
CHEMBL4442613
     RDKit          3D

  0  0  0  0  0  0  0  0  0  0999 V3000
M  V30 BEGIN CTAB
M  V30 COUNTS 34 36 0 0 0
M  V30 BEGIN ATOM
M  V30 1 O 0.633845 -5.233960 3.296263 0
M  V30 2 C 1.419310 -5.050779 2.297427 0
M  V30 3 O 2.538272 -5.889166 2.471388 0
M  V30 4 C 1.251218 -4.158417 1.159327 0
M  V30 5 C 2.242152 -4.125874 0.201325 0
M  V30 6 C 2.008320 -3.234427 -0.852503 0
M  V30 7 C 0.898054 -2.450933 -0.946532 0
M  V30 8 N 0.730540 -1.546350 -2.055084 0
M  V30 9 C -0.382395 -0.569915 -1.809688 0
M  V30 10 N -0.361215 0.213568 -1.019022 0
M  V30 11 C -1.188986 1.166537 -0.615580 0
M  V30 12 C -0.979653 2.132771 0.458434 0
M  V30 13 C 0.239314 2.137104 1.155570 0
M  V30 14 C 0.481413 3.025550 2.179208 0
M  V30 15 Br 2.207418 2.850402 2.984507 0
M  V30 16 C -0.445260 3.948700 2.573530 0
M  V30 17 C -1.649966 3.961234 1.902977 0
M  V30 18 C -1.870876 3.069033 0.887641 0
M  V30 19 O -3.102619 3.151989 0.270887 0
M  V30 20 C -2.323106 1.167616 -1.359285 0
M  V30 21 S -2.074314 -0.221990 -2.571613 0
M  V30 22 C -0.044350 -2.561778 0.075744 0
M  V30 23 C 0.107408 -3.417332 1.154763 0
M  V30 24 H 2.926848 -6.085334 3.405571 0
M  V30 25 H 3.133680 -4.718471 0.224954 0
M  V30 26 H 2.701605 -3.112887 -1.666260 0
M  V30 27 H 1.356718 -1.644093 -2.861204 0
M  V30 28 H 0.969771 1.390388 0.823176 0
M  V30 29 H -0.239794 4.640206 3.368738 0
M  V30 30 H -2.413002 4.680336 2.184436 0
M  V30 31 H -3.901239 2.629664 0.671498 0
M  V30 32 H -3.263538 1.701826 -1.446610 0
M  V30 33 H -0.930474 -1.953525 0.019805 0
M  V30 34 H -0.676703 -3.435177 1.894453 0
M  V30 END ATOM
M  V30 BEGIN BOND
M  V30 1 2 1 2
M  V30 2 1 2 3
M  V30 3 1 2 4
M  V30 4 2 4 5
M  V30 5 1 5 6
M  V30 6 2 6 7
M  V30 7 1 7 8
M  V30 8 1 8 9
M  V30 9 2 9 10
M  V30 10 1 10 11
M  V30 11 1 11 12
M  V30 12 2 12 13
M  V30 13 1 13 14
M  V30 14 1 14 15
M  V30 15 2 14 16
M  V30 16 1 16 17
M  V30 17 2 17 18
M  V30 18 1 18 19
M  V30 19 2 11 20
M  V30 20 1 20 21
M  V30 21 1 7 22
M  V30 22 2 22 23
M  V30 23 1 23 4
M  V30 24 1 21 9
M  V30 25 1 18 12
M  V30 26 1 3 24
M  V30 27 1 5 25
M  V30 28 1 6 26
M  V30 29 1 8 27
M  V30 30 1 13 28
M  V30 31 1 16 29
M  V30 32 1 17 30
M  V30 33 1 19 31
M  V30 34 1 20 32
M  V30 35 1 22 33
M  V30 36 1 23 34
M  V30 END BOND
M  V30 END CTAB
M  END
>  <Dataset>  (869) 
ChEMBL_Kinases

>  <Ligand_Instance>  (869) 
nan

>  <PDB_ID>  (869) 
nan

>  <Standardized_SMILES>  (869) 
O=C(O)c1ccc(Nc2nc(-c3cc(Br)ccc3O)cs2)cc1

>  <Name>  (869) 
nan

>  <Pocket>  (869) 
nan

>  <ATP_Site>  (869) 
nan

>  <Peripheral>  (869) 
nan

>  <Num_H_Atoms_ProtBoundConf>  (869) 
nan

>  <Num_Resolved_Atoms>  (869) 
nan

>  <Num_Not_Resolved_Atoms>  (869) 
nan

$$$$
CHEMBL4442577
     RDKit          3D

  0  0  0  0  0  0  0  0  0  0999 V3000
M  V30 BEGIN CTAB
M  V30 COUNTS 58 62 0 0 0
M  V30 BEGIN ATOM
M  V30 1 O 0.650475 -4.812700 -0.417071 0
M  V30 2 C -0.278917 -3.951168 -0.224887 0
M  V30 3 C 0.207073 -2.649774 0.286582 0
M  V30 4 C 1.381510 -2.043315 0.656347 0
M  V30 5 C 1.407689 -0.754216 1.127253 0
M  V30 6 C 2.650855 -0.105897 1.521201 0
M  V30 7 C 3.887531 -0.693912 1.466582 0
M  V30 8 C 5.066527 -0.090548 1.836463 0
M  V30 9 N 5.003128 1.174521 2.286944 0
M  V30 10 C 3.790904 1.798804 2.357835 0
M  V30 11 N 3.739218 3.149418 2.842114 0
M  V30 12 C 2.502530 3.939149 2.967557 0
M  V30 13 C 2.770821 5.300570 3.511349 0
M  V30 14 C 2.001263 6.397117 2.832721 0
M  V30 15 O 2.207162 6.228267 1.443331 0
M  V30 16 C 1.384689 5.189692 1.074804 0
M  V30 17 C 1.685088 3.881703 1.725125 0
M  V30 18 N 2.672586 1.163718 1.984231 0
M  V30 19 C 0.234782 -0.037379 1.237663 0
M  V30 20 C -0.982034 -0.623000 0.869520 0
M  V30 21 C -0.960318 -1.930598 0.397495 0
M  V30 22 C -2.211420 -2.626275 -0.046497 0
M  V30 23 N -1.717936 -3.942928 -0.390457 0
M  V30 24 C -2.330829 -5.184282 -0.829359 0
M  V30 25 C -3.279639 -5.651939 0.272640 0
M  V30 26 O -4.264095 -4.729858 0.527499 0
M  V30 27 C -3.055108 -5.043479 -2.114683 0
M  V30 28 C -2.738273 -5.907243 -3.173647 0
M  V30 29 C -3.307335 -5.932768 -4.410094 0
M  V30 30 C -4.303916 -5.016011 -4.661936 0
M  V30 31 Cl -5.112769 -4.947908 -6.212773 0
M  V30 32 C -4.673032 -4.131795 -3.670305 0
M  V30 33 Cl -5.937980 -2.932048 -3.917954 0
M  V30 34 C -4.056079 -4.159529 -2.439229 0
M  V30 35 H 2.271511 -2.641627 0.552848 0
M  V30 36 H 3.980369 -1.707523 1.111036 0
M  V30 37 H 6.025600 -0.581820 1.781329 0
M  V30 38 H 4.621626 3.625205 3.130445 0
M  V30 39 H 1.937527 3.389555 3.776017 0
M  V30 40 H 3.871350 5.551784 3.479684 0
M  V30 41 H 2.527986 5.394682 4.605466 0
M  V30 42 H 2.365378 7.395999 3.073716 0
M  V30 43 H 0.930782 6.236625 3.037257 0
M  V30 44 H 1.444648 5.124922 -0.050977 0
M  V30 45 H 0.306644 5.434057 1.260054 0
M  V30 46 H 2.250339 3.277283 0.982777 0
M  V30 47 H 0.744638 3.288648 1.895969 0
M  V30 48 H 0.271227 0.957391 1.603696 0
M  V30 49 H -1.845204 0.010175 0.989123 0
M  V30 50 H -2.862202 -2.704116 0.833667 0
M  V30 51 H -2.666855 -2.080401 -0.902865 0
M  V30 52 H -1.520630 -5.926905 -0.961248 0
M  V30 53 H -2.717356 -5.948572 1.176097 0
M  V30 54 H -3.771246 -6.569149 -0.114149 0
M  V30 55 H -5.149840 -5.135521 0.735257 0
M  V30 56 H -1.952591 -6.640656 -2.996303 0
M  V30 57 H -2.988411 -6.642372 -5.157878 0
M  V30 58 H -4.364832 -3.469900 -1.670116 0
M  V30 END ATOM
M  V30 BEGIN BOND
M  V30 1 2 1 2
M  V30 2 1 2 3
M  V30 3 2 3 4
M  V30 4 1 4 5
M  V30 5 1 5 6
M  V30 6 2 6 7
M  V30 7 1 7 8
M  V30 8 2 8 9
M  V30 9 1 9 10
M  V30 10 1 10 11
M  V30 11 1 11 12
M  V30 12 1 12 13
M  V30 13 1 13 14
M  V30 14 1 14 15
M  V30 15 1 15 16
M  V30 16 1 16 17
M  V30 17 2 10 18
M  V30 18 2 5 19
M  V30 19 1 19 20
M  V30 20 2 20 21
M  V30 21 1 21 22
M  V30 22 1 22 23
M  V30 23 1 23 24
M  V30 24 1 24 25
M  V30 25 1 25 26
M  V30 26 1 24 27
M  V30 27 2 27 28
M  V30 28 1 28 29
M  V30 29 2 29 30
M  V30 30 1 30 31
M  V30 31 1 30 32
M  V30 32 1 32 33
M  V30 33 2 32 34
M  V30 34 1 23 2
M  V30 35 1 34 27
M  V30 36 1 21 3
M  V30 37 1 18 6
M  V30 38 1 17 12
M  V30 39 1 4 35
M  V30 40 1 7 36
M  V30 41 1 8 37
M  V30 42 1 11 38
M  V30 43 1 12 39
M  V30 44 1 13 40
M  V30 45 1 13 41
M  V30 46 1 14 42
M  V30 47 1 14 43
M  V30 48 1 16 44
M  V30 49 1 16 45
M  V30 50 1 17 46
M  V30 51 1 17 47
M  V30 52 1 19 48
M  V30 53 1 20 49
M  V30 54 1 22 50
M  V30 55 1 22 51
M  V30 56 1 24 52
M  V30 57 1 25 53
M  V30 58 1 25 54
M  V30 59 1 26 55
M  V30 60 1 28 56
M  V30 61 1 29 57
M  V30 62 1 34 58
M  V30 END BOND
M  V30 END CTAB
M  END
>  <Dataset>  (870) 
ChEMBL_Kinases

>  <Ligand_Instance>  (870) 
nan

>  <PDB_ID>  (870) 
nan

>  <Standardized_SMILES>  (870) 
O=C1c2cc(-c3ccnc(NC4CCOCC4)n3)ccc2CN1C(CO)c1ccc(Cl)c(Cl)c1

>  <Name>  (870) 
nan

>  <Pocket>  (870) 
nan

>  <ATP_Site>  (870) 
nan

>  <Peripheral>  (870) 
nan

>  <Num_H_Atoms_ProtBoundConf>  (870) 
nan

>  <Num_Resolved_Atoms>  (870) 
nan

>  <Num_Not_Resolved_Atoms>  (870) 
nan

$$$$
CHEMBL4442570
     RDKit          3D

  0  0  0  0  0  0  0  0  0  0999 V3000
M  V30 BEGIN CTAB
M  V30 COUNTS 53 55 0 0 0
M  V30 BEGIN ATOM
M  V30 1 C -1.218847 -3.051094 6.306409 0
M  V30 2 C -1.227443 -3.290077 4.846386 0
M  V30 3 C -0.389225 -2.820741 3.819734 0
M  V30 4 C -0.488573 -3.115024 2.440392 0
M  V30 5 O 0.487993 -2.462301 1.898190 0
M  V30 6 C 1.098855 -1.606562 1.162301 0
M  V30 7 C 1.821343 -0.839486 2.113160 0
M  V30 8 C 2.666117 0.249691 1.812410 0
M  V30 9 C 2.795468 0.594128 0.460114 0
M  V30 10 C 3.633672 1.706879 -0.021761 0
M  V30 11 C 2.847053 3.012223 -0.089883 0
M  V30 12 C 1.690840 2.867204 -1.020668 0
M  V30 13 C 0.855256 4.084435 -1.160750 0
M  V30 14 O 1.204391 5.096034 -0.494492 0
M  V30 15 N -0.236322 3.848260 -2.073910 0
M  V30 16 C -0.564203 2.618998 -2.810673 0
M  V30 17 C -1.083173 5.035527 -2.236212 0
M  V30 18 C 2.116546 -0.117889 -0.502621 0
M  V30 19 C 1.324128 -1.155660 -0.103343 0
M  V30 20 F 0.669956 -1.842050 -1.050180 0
M  V30 21 C -1.537450 -3.954873 2.149248 0
M  V30 22 C -1.745618 -4.333887 0.853232 0
M  V30 23 N -1.071267 -4.044052 -0.350606 0
M  V30 24 C -2.828642 -5.196764 0.644566 0
M  V30 25 C -3.382870 -5.823118 -0.558217 0
M  V30 26 N -4.510623 -6.658777 -0.404102 0
M  V30 27 O -2.861932 -5.611634 -1.662068 0
M  V30 28 S -3.499996 -5.432366 2.287688 0
M  V30 29 C -2.357103 -4.415298 3.141531 0
M  V30 30 N -2.229578 -4.114928 4.417275 0
M  V30 31 H -0.455500 -2.308676 6.615308 0
M  V30 32 H -2.227703 -2.792313 6.672400 0
M  V30 33 H -0.937276 -4.009906 6.811058 0
M  V30 34 H 0.322357 -2.194832 4.387602 0
M  V30 35 H 1.908761 -0.884549 3.221155 0
M  V30 36 H 3.253984 0.896359 2.420325 0
M  V30 37 H 4.556088 1.840155 0.599712 0
M  V30 38 H 3.994748 1.482791 -1.038228 0
M  V30 39 H 2.523527 3.217677 0.956531 0
M  V30 40 H 3.504620 3.847168 -0.395463 0
M  V30 41 H 0.997153 2.078198 -0.623359 0
M  V30 42 H 2.108166 2.589892 -2.026603 0
M  V30 43 H -0.991307 2.992127 -3.787149 0
M  V30 44 H 0.375665 2.072757 -2.970283 0
M  V30 45 H -1.267038 1.998453 -2.243326 0
M  V30 46 H -1.884978 5.049819 -1.447967 0
M  V30 47 H -1.602000 4.916582 -3.204868 0
M  V30 48 H -0.504812 5.974202 -2.170291 0
M  V30 49 H 2.194478 0.121265 -1.550975 0
M  V30 50 H -1.568165 -3.337523 -0.957959 0
M  V30 51 H -0.185104 -4.398804 -0.739821 0
M  V30 52 H -5.312955 -6.783699 -1.057446 0
M  V30 53 H -5.195396 -6.607925 -1.215900 0
M  V30 END ATOM
M  V30 BEGIN BOND
M  V30 1 1 1 2
M  V30 2 2 2 3
M  V30 3 1 3 4
M  V30 4 1 4 5
M  V30 5 1 5 6
M  V30 6 2 6 7
M  V30 7 1 7 8
M  V30 8 2 8 9
M  V30 9 1 9 10
M  V30 10 1 10 11
M  V30 11 1 11 12
M  V30 12 1 12 13
M  V30 13 2 13 14
M  V30 14 1 13 15
M  V30 15 1 15 16
M  V30 16 1 15 17
M  V30 17 1 9 18
M  V30 18 2 18 19
M  V30 19 1 19 20
M  V30 20 2 4 21
M  V30 21 1 21 22
M  V30 22 1 22 23
M  V30 23 2 22 24
M  V30 24 1 24 25
M  V30 25 1 25 26
M  V30 26 2 25 27
M  V30 27 1 24 28
M  V30 28 1 28 29
M  V30 29 2 29 30
M  V30 30 1 30 2
M  V30 31 1 19 6
M  V30 32 1 29 21
M  V30 33 1 1 31
M  V30 34 1 1 32
M  V30 35 1 1 33
M  V30 36 1 3 34
M  V30 37 1 7 35
M  V30 38 1 8 36
M  V30 39 1 10 37
M  V30 40 1 10 38
M  V30 41 1 11 39
M  V30 42 1 11 40
M  V30 43 1 12 41
M  V30 44 1 12 42
M  V30 45 1 16 43
M  V30 46 1 16 44
M  V30 47 1 16 45
M  V30 48 1 17 46
M  V30 49 1 17 47
M  V30 50 1 17 48
M  V30 51 1 18 49
M  V30 52 1 23 50
M  V30 53 1 23 51
M  V30 54 1 26 52
M  V30 55 1 26 53
M  V30 END BOND
M  V30 END CTAB
M  END
>  <Dataset>  (871) 
ChEMBL_Kinases

>  <Ligand_Instance>  (871) 
nan

>  <PDB_ID>  (871) 
nan

>  <Standardized_SMILES>  (871) 
Cc1cc(Oc2ccc(CCCC(=O)N(C)C)cc2F)c2c(N)c(C(N)=O)sc2n1

>  <Name>  (871) 
nan

>  <Pocket>  (871) 
nan

>  <ATP_Site>  (871) 
nan

>  <Peripheral>  (871) 
nan

>  <Num_H_Atoms_ProtBoundConf>  (871) 
nan

>  <Num_Resolved_Atoms>  (871) 
nan

>  <Num_Not_Resolved_Atoms>  (871) 
nan

$$$$
CHEMBL4442477
     RDKit          3D

  0  0  0  0  0  0  0  0  0  0999 V3000
M  V30 BEGIN CTAB
M  V30 COUNTS 40 42 0 0 0
M  V30 BEGIN ATOM
M  V30 1 O 0.715813 -5.598363 2.609005 0
M  V30 2 C 0.213513 -5.408472 1.333710 0
M  V30 3 C 1.217891 -4.728087 0.439653 0
M  V30 4 O 1.625047 -3.491679 0.854782 0
M  V30 5 C 0.599718 -2.561755 0.965754 0
M  V30 6 C -0.110740 -2.329045 -0.342586 0
M  V30 7 N -1.187645 -1.364349 -0.256541 0
M  V30 8 C -0.891614 -0.017693 0.097721 0
M  V30 9 N 0.342820 0.418706 0.349025 0
M  V30 10 C 0.691067 1.670999 0.680690 0
M  V30 11 C 2.086379 2.023417 0.932173 0
M  V30 12 C 2.400664 3.324117 1.270843 0
M  V30 13 C 3.725541 3.634224 1.503943 0
M  V30 14 N 4.694728 2.678603 1.401405 0
M  V30 15 C 4.325933 1.423420 1.066599 0
M  V30 16 C 3.023495 1.016009 0.813764 0
M  V30 17 N -0.285812 2.619861 0.780708 0
M  V30 18 C -1.582742 2.289234 0.546258 0
M  V30 19 C -2.585104 3.233955 0.642787 0
M  V30 20 N -3.877841 2.887002 0.405703 0
M  V30 21 C -4.185697 1.602881 0.071726 0
M  V30 22 C -3.163840 0.693552 -0.014277 0
M  V30 23 C -1.839497 0.976483 0.211800 0
M  V30 24 H 0.606083 -4.812902 3.196283 0
M  V30 25 H -0.745810 -4.878061 1.405668 0
M  V30 26 H 0.003784 -6.400982 0.886300 0
M  V30 27 H 0.901235 -4.796924 -0.621543 0
M  V30 28 H 2.136326 -5.382436 0.493068 0
M  V30 29 H -0.105303 -2.778662 1.792742 0
M  V30 30 H 1.100510 -1.614146 1.246959 0
M  V30 31 H -0.528567 -3.297515 -0.654189 0
M  V30 32 H 0.578511 -1.981291 -1.138624 0
M  V30 33 H -2.142034 -1.699633 -0.459385 0
M  V30 34 H 1.600905 4.049838 1.340942 0
M  V30 35 H 3.909151 4.668131 1.765066 0
M  V30 36 H 5.160587 0.732567 1.008806 0
M  V30 37 H 2.794318 -0.005513 0.549935 0
M  V30 38 H -2.293712 4.247588 0.912299 0
M  V30 39 H -5.224061 1.402948 -0.100496 0
M  V30 40 H -3.500518 -0.294473 -0.282647 0
M  V30 END ATOM
M  V30 BEGIN BOND
M  V30 1 1 1 2
M  V30 2 1 2 3
M  V30 3 1 3 4
M  V30 4 1 4 5
M  V30 5 1 5 6
M  V30 6 1 6 7
M  V30 7 1 7 8
M  V30 8 2 8 9
M  V30 9 1 9 10
M  V30 10 1 10 11
M  V30 11 2 11 12
M  V30 12 1 12 13
M  V30 13 2 13 14
M  V30 14 1 14 15
M  V30 15 2 15 16
M  V30 16 2 10 17
M  V30 17 1 17 18
M  V30 18 2 18 19
M  V30 19 1 19 20
M  V30 20 2 20 21
M  V30 21 1 21 22
M  V30 22 2 22 23
M  V30 23 1 23 8
M  V30 24 1 16 11
M  V30 25 1 23 18
M  V30 26 1 1 24
M  V30 27 1 2 25
M  V30 28 1 2 26
M  V30 29 1 3 27
M  V30 30 1 3 28
M  V30 31 1 5 29
M  V30 32 1 5 30
M  V30 33 1 6 31
M  V30 34 1 6 32
M  V30 35 1 7 33
M  V30 36 1 12 34
M  V30 37 1 13 35
M  V30 38 1 15 36
M  V30 39 1 16 37
M  V30 40 1 19 38
M  V30 41 1 21 39
M  V30 42 1 22 40
M  V30 END BOND
M  V30 END CTAB
M  END
>  <Dataset>  (872) 
ChEMBL_Kinases

>  <Ligand_Instance>  (872) 
nan

>  <PDB_ID>  (872) 
nan

>  <Standardized_SMILES>  (872) 
OCCOCCNc1nc(-c2ccncc2)nc2cnccc12

>  <Name>  (872) 
nan

>  <Pocket>  (872) 
nan

>  <ATP_Site>  (872) 
nan

>  <Peripheral>  (872) 
nan

>  <Num_H_Atoms_ProtBoundConf>  (872) 
nan

>  <Num_Resolved_Atoms>  (872) 
nan

>  <Num_Not_Resolved_Atoms>  (872) 
nan

$$$$
CHEMBL4751497
     RDKit          3D

  0  0  0  0  0  0  0  0  0  0999 V3000
M  V30 BEGIN CTAB
M  V30 COUNTS 29 31 0 0 0
M  V30 BEGIN ATOM
M  V30 1 N -2.779055 -2.012368 0.941244 0
M  V30 2 C -2.338634 -2.015177 2.330096 0
M  V30 3 C -0.878608 -2.423431 2.368625 0
M  V30 4 N -0.065325 -1.497037 1.609399 0
M  V30 5 C 0.128741 -1.750514 0.315268 0
M  V30 6 O -0.377258 -2.756260 -0.219364 0
M  V30 7 C 0.894293 -0.889538 -0.425362 0
M  V30 8 C 1.075737 -1.186343 -1.775593 0
M  V30 9 C 1.854414 -0.298543 -2.500618 0
M  V30 10 F 2.023400 -0.595919 -3.807238 0
M  V30 11 C 2.436199 0.820404 -1.973720 0
M  V30 12 C 2.239245 1.095936 -0.617467 0
M  V30 13 C 1.479847 0.236206 0.103903 0
M  V30 14 N 1.262974 0.455223 1.399430 0
M  V30 15 C 1.675014 1.434520 2.210829 0
M  V30 16 S 2.595012 2.753580 1.987766 0
M  V30 17 N 1.178503 1.193433 3.435417 0
M  V30 18 N 0.460433 0.067282 3.382899 0
M  V30 19 C 0.513074 -0.392808 2.113999 0
M  V30 20 H -3.132146 -1.042652 0.699148 0
M  V30 21 H -3.527305 -2.740150 0.805696 0
M  V30 22 H -2.367772 -0.978511 2.732461 0
M  V30 23 H -2.934337 -2.715849 2.918902 0
M  V30 24 H -0.546132 -2.461161 3.437886 0
M  V30 25 H -0.797873 -3.448499 1.955270 0
M  V30 26 H 0.638241 -2.059014 -2.245071 0
M  V30 27 H 3.035091 1.468663 -2.612386 0
M  V30 28 H 2.724708 1.982748 -0.287735 0
M  V30 29 H 1.252414 1.703381 4.365011 0
M  V30 END ATOM
M  V30 BEGIN BOND
M  V30 1 1 1 2
M  V30 2 1 2 3
M  V30 3 1 3 4
M  V30 4 1 4 5
M  V30 5 2 5 6
M  V30 6 1 5 7
M  V30 7 2 7 8
M  V30 8 1 8 9
M  V30 9 1 9 10
M  V30 10 2 9 11
M  V30 11 1 11 12
M  V30 12 2 12 13
M  V30 13 1 13 14
M  V30 14 1 14 15
M  V30 15 2 15 16
M  V30 16 1 15 17
M  V30 17 1 17 18
M  V30 18 2 18 19
M  V30 19 1 19 4
M  V30 20 1 13 7
M  V30 21 1 19 14
M  V30 22 1 1 20
M  V30 23 1 1 21
M  V30 24 1 2 22
M  V30 25 1 2 23
M  V30 26 1 3 24
M  V30 27 1 3 25
M  V30 28 1 8 26
M  V30 29 1 11 27
M  V30 30 1 12 28
M  V30 31 1 17 29
M  V30 END BOND
M  V30 END CTAB
M  END
>  <Dataset>  (873) 
ChEMBL_Kinases

>  <Ligand_Instance>  (873) 
nan

>  <PDB_ID>  (873) 
nan

>  <Standardized_SMILES>  (873) 
NCCn1c(=O)c2cc(F)ccc2n2c(=S)[nH]nc12

>  <Name>  (873) 
nan

>  <Pocket>  (873) 
nan

>  <ATP_Site>  (873) 
nan

>  <Peripheral>  (873) 
nan

>  <Num_H_Atoms_ProtBoundConf>  (873) 
nan

>  <Num_Resolved_Atoms>  (873) 
nan

>  <Num_Not_Resolved_Atoms>  (873) 
nan

$$$$
CHEMBL4442441
     RDKit          3D

  0  0  0  0  0  0  0  0  0  0999 V3000
M  V30 BEGIN CTAB
M  V30 COUNTS 43 46 0 0 0
M  V30 BEGIN ATOM
M  V30 1 C -0.531938 -6.257258 1.943741 0
M  V30 2 C -0.380587 -4.919809 2.574755 0
M  V30 3 C -0.499819 -3.757717 1.841529 0
M  V30 4 C -0.357482 -2.501549 2.440564 0
M  V30 5 C -0.470883 -1.242267 1.709733 0
M  V30 6 C -0.960836 -0.136029 2.377821 0
M  V30 7 C -1.083277 1.077968 1.729993 0
M  V30 8 C -0.701158 1.151117 0.395809 0
M  V30 9 N -0.674481 2.137997 -0.547058 0
M  V30 10 C -0.194604 1.644095 -1.711793 0
M  V30 11 N -0.159969 2.662871 -2.705519 0
M  V30 12 C 0.997792 3.493223 -2.894915 0
M  V30 13 C 1.057742 4.502601 -3.862463 0
M  V30 14 C 2.200740 5.262969 -3.991476 0
M  V30 15 C 3.273481 5.028740 -3.173708 0
M  V30 16 C 3.287276 4.053996 -2.200432 0
M  V30 17 C 2.125025 3.302885 -2.090749 0
M  V30 18 N 0.082318 0.341010 -1.503527 0
M  V30 19 N -0.221595 0.035657 -0.229845 0
M  V30 20 C -0.090691 -1.161224 0.374509 0
M  V30 21 C -0.094050 -2.522509 3.795917 0
M  V30 22 C 0.037000 -3.646964 4.585580 0
M  V30 23 C 0.322532 -3.561909 6.041019 0
M  V30 24 C -0.118233 -4.865179 3.915416 0
M  V30 25 O 0.015751 -6.003369 4.720982 0
M  V30 26 H -1.579671 -6.589407 1.921172 0
M  V30 27 H -0.227152 -6.139445 0.866040 0
M  V30 28 H 0.147677 -6.965160 2.467185 0
M  V30 29 H -0.706289 -3.773752 0.783773 0
M  V30 30 H -1.270985 -0.138967 3.413486 0
M  V30 31 H -1.448888 2.016883 2.129704 0
M  V30 32 H -0.965842 2.867947 -3.351734 0
M  V30 33 H 0.145313 4.611234 -4.467698 0
M  V30 34 H 2.191172 6.042434 -4.769517 0
M  V30 35 H 4.154563 5.662341 -3.318583 0
M  V30 36 H 4.132996 3.864900 -1.551444 0
M  V30 37 H 2.142385 2.526462 -1.310509 0
M  V30 38 H 0.294395 -2.012929 -0.166340 0
M  V30 39 H 0.021763 -1.549584 4.289770 0
M  V30 40 H -0.606362 -3.377239 6.642851 0
M  V30 41 H 1.081066 -2.773436 6.242288 0
M  V30 42 H 0.687116 -4.562241 6.383553 0
M  V30 43 H 0.921656 -6.208769 5.148910 0
M  V30 END ATOM
M  V30 BEGIN BOND
M  V30 1 1 1 2
M  V30 2 2 2 3
M  V30 3 1 3 4
M  V30 4 1 4 5
M  V30 5 1 5 6
M  V30 6 2 6 7
M  V30 7 1 7 8
M  V30 8 2 8 9
M  V30 9 1 9 10
M  V30 10 1 10 11
M  V30 11 1 11 12
M  V30 12 2 12 13
M  V30 13 1 13 14
M  V30 14 2 14 15
M  V30 15 1 15 16
M  V30 16 2 16 17
M  V30 17 2 10 18
M  V30 18 1 18 19
M  V30 19 1 19 20
M  V30 20 2 4 21
M  V30 21 1 21 22
M  V30 22 1 22 23
M  V30 23 2 22 24
M  V30 24 1 24 25
M  V30 25 1 24 2
M  V30 26 2 20 5
M  V30 27 1 19 8
M  V30 28 1 17 12
M  V30 29 1 1 26
M  V30 30 1 1 27
M  V30 31 1 1 28
M  V30 32 1 3 29
M  V30 33 1 6 30
M  V30 34 1 7 31
M  V30 35 1 11 32
M  V30 36 1 13 33
M  V30 37 1 14 34
M  V30 38 1 15 35
M  V30 39 1 16 36
M  V30 40 1 17 37
M  V30 41 1 20 38
M  V30 42 1 21 39
M  V30 43 1 23 40
M  V30 44 1 23 41
M  V30 45 1 23 42
M  V30 46 1 25 43
M  V30 END BOND
M  V30 END CTAB
M  END
>  <Dataset>  (874) 
ChEMBL_Kinases

>  <Ligand_Instance>  (874) 
nan

>  <PDB_ID>  (874) 
nan

>  <Standardized_SMILES>  (874) 
Cc1cc(-c2ccc3nc(Nc4ccccc4)nn3c2)cc(C)c1O

>  <Name>  (874) 
nan

>  <Pocket>  (874) 
nan

>  <ATP_Site>  (874) 
nan

>  <Peripheral>  (874) 
nan

>  <Num_H_Atoms_ProtBoundConf>  (874) 
nan

>  <Num_Resolved_Atoms>  (874) 
nan

>  <Num_Not_Resolved_Atoms>  (874) 
nan

$$$$
CHEMBL4442392
     RDKit          3D

  0  0  0  0  0  0  0  0  0  0999 V3000
M  V30 BEGIN CTAB
M  V30 COUNTS 67 72 0 0 0
M  V30 BEGIN ATOM
M  V30 1 C 2.597524 1.343289 4.884226 0
M  V30 2 C 1.499633 0.737941 4.124091 0
M  V30 3 C 1.549799 0.688689 2.744941 0
M  V30 4 C 0.499404 0.118676 2.019458 0
M  V30 5 C 0.527235 0.037747 0.556523 0
M  V30 6 C 0.940599 1.040083 -0.331164 0
M  V30 7 N 0.819433 0.576341 -1.588769 0
M  V30 8 N 0.351109 -0.662470 -1.577410 0
M  V30 9 C 0.027834 -1.616793 -2.496874 0
M  V30 10 N 0.268617 -1.155180 -3.830981 0
M  V30 11 C 1.319429 -1.468272 -4.749819 0
M  V30 12 C 1.204146 -0.718866 -6.040126 0 CFG=1
M  V30 13 C -0.059886 -0.957296 -6.821942 0
M  V30 14 C -0.172296 0.538400 -7.041077 0 CFG=2
M  V30 15 C -1.539323 1.025344 -6.678995 0
M  V30 16 O 0.293734 0.956382 -8.292776 0
M  V30 17 C 0.871772 0.730577 -5.938189 0
M  V30 18 C -0.459701 -2.870797 -2.135987 0
M  V30 19 C -0.615887 -3.141555 -0.772615 0
M  V30 20 O -1.097984 -4.403302 -0.513897 0
M  V30 21 C -1.372237 -4.942297 0.721474 0
M  V30 22 C -1.605500 -6.313964 0.833967 0
M  V30 23 C -1.889501 -6.859872 2.068219 0
M  V30 24 C -1.959977 -6.134045 3.227121 0
M  V30 25 N -1.736247 -4.816917 3.124114 0
M  V30 26 C -1.459964 -4.278783 1.924374 0
M  V30 27 N -0.293108 -2.187711 0.118423 0
M  V30 28 C 0.171367 -0.996599 -0.283709 0
M  V30 29 C -0.610762 -0.406531 2.693543 0
M  V30 30 C -0.694936 -0.375420 4.078247 0
M  V30 31 C 0.380574 0.204949 4.726107 0
M  V30 32 C 0.283697 0.239109 6.202853 0
M  V30 33 O 0.493733 -0.724686 7.004507 0
M  V30 34 N -0.082097 1.465814 6.825959 0
M  V30 35 C -0.243759 1.744080 8.259858 0
M  V30 36 C 0.082968 3.120503 8.710762 0
M  V30 37 C -1.362999 2.759288 8.583947 0
M  V30 38 H 2.743115 0.751428 5.814675 0
M  V30 39 H 3.564945 1.316484 4.325026 0
M  V30 40 H 2.353840 2.374397 5.194808 0
M  V30 41 H 2.399545 1.087024 2.200524 0
M  V30 42 H 1.304182 2.024743 -0.062770 0
M  V30 43 H -0.483870 -0.486914 -4.111032 0
M  V30 44 H 2.341277 -1.385956 -4.346204 0
M  V30 45 H 1.191009 -2.554425 -5.014926 0
M  V30 46 H 2.069458 -0.910245 -6.722136 0
M  V30 47 H 0.055195 -1.551097 -7.751786 0
M  V30 48 H -0.867088 -1.354792 -6.173415 0
M  V30 49 H -1.517700 1.744279 -5.830523 0
M  V30 50 H -1.997602 1.495300 -7.573184 0
M  V30 51 H -2.238943 0.195810 -6.410139 0
M  V30 52 H -0.150621 1.832819 -8.540636 0
M  V30 53 H 0.447716 1.100614 -4.994007 0
M  V30 54 H 1.725877 1.366268 -6.306932 0
M  V30 55 H -0.669192 -3.517722 -2.988267 0
M  V30 56 H -1.573465 -6.982661 -0.028658 0
M  V30 57 H -2.063240 -7.936773 2.110759 0
M  V30 58 H -2.183582 -6.571256 4.184921 0
M  V30 59 H -1.296851 -3.218267 1.950392 0
M  V30 60 H -1.432818 -0.857945 2.174319 0
M  V30 61 H -1.533049 -0.773031 4.634911 0
M  V30 62 H -0.266466 2.302655 6.191949 0
M  V30 63 H -0.064176 0.923390 8.966492 0
M  V30 64 H 0.526865 3.225758 9.739148 0
M  V30 65 H 0.572627 3.769711 7.955573 0
M  V30 66 H -1.903787 3.173866 7.691217 0
M  V30 67 H -1.968885 2.620465 9.486287 0
M  V30 END ATOM
M  V30 BEGIN BOND
M  V30 1 1 1 2
M  V30 2 2 2 3
M  V30 3 1 3 4
M  V30 4 1 4 5
M  V30 5 1 5 6
M  V30 6 2 6 7
M  V30 7 1 7 8
M  V30 8 1 8 9
M  V30 9 1 9 10
M  V30 10 1 10 11
M  V30 11 1 11 12
M  V30 12 1 12 13
M  V30 13 1 13 14
M  V30 14 1 14 15
M  V30 15 1 14 16 CFG=3
M  V30 16 1 14 17
M  V30 17 2 9 18
M  V30 18 1 18 19
M  V30 19 1 19 20
M  V30 20 1 20 21
M  V30 21 2 21 22
M  V30 22 1 22 23
M  V30 23 2 23 24
M  V30 24 1 24 25
M  V30 25 2 25 26
M  V30 26 2 19 27
M  V30 27 1 27 28
M  V30 28 2 4 29
M  V30 29 1 29 30
M  V30 30 2 30 31
M  V30 31 1 31 32
M  V30 32 2 32 33
M  V30 33 1 32 34
M  V30 34 1 34 35
M  V30 35 1 35 36
M  V30 36 1 36 37
M  V30 37 1 31 2
M  V30 38 1 37 35
M  V30 39 2 28 5
M  V30 40 1 28 8
M  V30 41 1 17 12
M  V30 42 1 26 21
M  V30 43 1 1 38
M  V30 44 1 1 39
M  V30 45 1 1 40
M  V30 46 1 3 41
M  V30 47 1 6 42
M  V30 48 1 10 43
M  V30 49 1 11 44
M  V30 50 1 11 45
M  V30 51 1 12 46 CFG=3
M  V30 52 1 13 47
M  V30 53 1 13 48
M  V30 54 1 15 49
M  V30 55 1 15 50
M  V30 56 1 15 51
M  V30 57 1 16 52
M  V30 58 1 17 53
M  V30 59 1 17 54
M  V30 60 1 18 55
M  V30 61 1 22 56
M  V30 62 1 23 57
M  V30 63 1 24 58
M  V30 64 1 26 59
M  V30 65 1 29 60
M  V30 66 1 30 61
M  V30 67 1 34 62
M  V30 68 1 35 63
M  V30 69 1 36 64
M  V30 70 1 36 65
M  V30 71 1 37 66
M  V30 72 1 37 67
M  V30 END BOND
M  V30 END CTAB
M  END
>  <Dataset>  (875) 
ChEMBL_Kinases

>  <Ligand_Instance>  (875) 
nan

>  <PDB_ID>  (875) 
nan

>  <Standardized_SMILES>  (875) 
Cc1cc(-c2cnn3c(NC[C@H]4C[C@](C)(O)C4)cc(Oc4cccnc4)nc23)ccc1C(=O)NC1CC1

>  <Name>  (875) 
nan

>  <Pocket>  (875) 
nan

>  <ATP_Site>  (875) 
nan

>  <Peripheral>  (875) 
nan

>  <Num_H_Atoms_ProtBoundConf>  (875) 
nan

>  <Num_Resolved_Atoms>  (875) 
nan

>  <Num_Not_Resolved_Atoms>  (875) 
nan

$$$$
CHEMBL4442379
     RDKit          3D

  0  0  0  0  0  0  0  0  0  0999 V3000
M  V30 BEGIN CTAB
M  V30 COUNTS 48 51 0 0 0
M  V30 BEGIN ATOM
M  V30 1 N 3.821351 -7.577353 2.146659 0
M  V30 2 C 3.387719 -6.785750 1.407612 0
M  V30 3 C 2.853739 -5.792386 0.488393 0
M  V30 4 C 2.483244 -4.577364 1.081268 0
M  V30 5 C 1.982023 -3.664423 0.181779 0
M  V30 6 C 1.851210 -3.902082 -1.157620 0
M  V30 7 N 1.332663 -2.932383 -2.022772 0
M  V30 8 C 0.937413 -1.615716 -1.666393 0
M  V30 9 N 1.814940 -0.603058 -1.805959 0
M  V30 10 C 1.487323 0.658258 -1.477899 0
M  V30 11 C 0.225920 0.924403 -0.986912 0
M  V30 12 C -0.417509 2.165014 -0.563789 0
M  V30 13 C -0.275400 3.185596 -1.495957 0
M  V30 14 C -0.843025 4.439647 -1.263531 0
M  V30 15 C -1.537517 4.610758 -0.086643 0
M  V30 16 C -1.661876 3.579816 0.819694 0
M  V30 17 C -1.117987 2.330108 0.629329 0
M  V30 18 O -1.189433 1.255165 1.469311 0
M  V30 19 C -1.837510 1.182448 2.697251 0
M  V30 20 C -0.879417 0.946789 3.870472 0
M  V30 21 C -0.202615 -0.368779 3.732776 0
M  V30 22 C -0.705311 -1.271951 2.667933 0
M  V30 23 N -2.092291 -1.200464 2.393457 0
M  V30 24 C -2.777553 0.003833 2.695900 0
M  V30 25 C -0.693259 -0.122815 -0.838179 0
M  V30 26 N -0.316532 -1.391339 -1.185174 0
M  V30 27 C 2.233312 -5.115815 -1.675943 0
M  V30 28 N 2.725291 -6.024624 -0.825283 0
M  V30 29 H 2.575559 -4.367670 2.136227 0
M  V30 30 H 1.668985 -2.703337 0.530884 0
M  V30 31 H 1.173281 -3.061679 -3.042860 0
M  V30 32 H 2.067325 1.568073 -1.530575 0
M  V30 33 H 0.255131 3.098613 -2.422816 0
M  V30 34 H -0.746083 5.242154 -1.967743 0
M  V30 35 H -1.987884 5.575823 0.115372 0
M  V30 36 H -2.213978 3.755257 1.730050 0
M  V30 37 H -2.411625 2.119666 2.888213 0
M  V30 38 H -0.209076 1.814750 4.038393 0
M  V30 39 H -1.557323 0.894893 4.769905 0
M  V30 40 H 0.882347 -0.140307 3.506457 0
M  V30 41 H -0.132046 -0.909605 4.721739 0
M  V30 42 H -0.516217 -2.329870 3.026422 0
M  V30 43 H -0.041855 -1.204865 1.762337 0
M  V30 44 H -2.277287 -1.468840 1.406453 0
M  V30 45 H -3.661070 0.167149 2.047078 0
M  V30 46 H -3.165385 -0.091010 3.749758 0
M  V30 47 H -1.701227 -0.102950 -0.478291 0
M  V30 48 H 2.153536 -5.358988 -2.722059 0
M  V30 END ATOM
M  V30 BEGIN BOND
M  V30 1 3 1 2
M  V30 2 1 2 3
M  V30 3 2 3 4
M  V30 4 1 4 5
M  V30 5 2 5 6
M  V30 6 1 6 7
M  V30 7 1 7 8
M  V30 8 2 8 9
M  V30 9 1 9 10
M  V30 10 2 10 11
M  V30 11 1 11 12
M  V30 12 2 12 13
M  V30 13 1 13 14
M  V30 14 2 14 15
M  V30 15 1 15 16
M  V30 16 2 16 17
M  V30 17 1 17 18
M  V30 18 1 18 19
M  V30 19 1 19 20
M  V30 20 1 20 21
M  V30 21 1 21 22
M  V30 22 1 22 23
M  V30 23 1 23 24
M  V30 24 1 11 25
M  V30 25 2 25 26
M  V30 26 1 6 27
M  V30 27 2 27 28
M  V30 28 1 28 3
M  V30 29 1 26 8
M  V30 30 1 17 12
M  V30 31 1 24 19
M  V30 32 1 4 29
M  V30 33 1 5 30
M  V30 34 1 7 31
M  V30 35 1 10 32
M  V30 36 1 13 33
M  V30 37 1 14 34
M  V30 38 1 15 35
M  V30 39 1 16 36
M  V30 40 1 19 37
M  V30 41 1 20 38
M  V30 42 1 20 39
M  V30 43 1 21 40
M  V30 44 1 21 41
M  V30 45 1 22 42
M  V30 46 1 22 43
M  V30 47 1 23 44
M  V30 48 1 24 45
M  V30 49 1 24 46
M  V30 50 1 25 47
M  V30 51 1 27 48
M  V30 END BOND
M  V30 END CTAB
M  END
>  <Dataset>  (876) 
ChEMBL_Kinases

>  <Ligand_Instance>  (876) 
nan

>  <PDB_ID>  (876) 
nan

>  <Standardized_SMILES>  (876) 
N#Cc1ccc(Nc2ncc(-c3ccccc3OC3CCCNC3)cn2)cn1

>  <Name>  (876) 
nan

>  <Pocket>  (876) 
nan

>  <ATP_Site>  (876) 
nan

>  <Peripheral>  (876) 
nan

>  <Num_H_Atoms_ProtBoundConf>  (876) 
nan

>  <Num_Resolved_Atoms>  (876) 
nan

>  <Num_Not_Resolved_Atoms>  (876) 
nan

$$$$
CHEMBL4442812
     RDKit          3D

  0  0  0  0  0  0  0  0  0  0999 V3000
M  V30 BEGIN CTAB
M  V30 COUNTS 43 46 0 0 0
M  V30 BEGIN ATOM
M  V30 1 C 0.623577 -5.441696 3.383685 0
M  V30 2 O 1.441482 -5.366576 2.234695 0
M  V30 3 C 1.524265 -4.225712 1.453966 0
M  V30 4 C 0.766830 -3.151177 1.847224 0
M  V30 5 C 0.835548 -1.988899 1.072940 0
M  V30 6 C 1.647707 -1.960146 -0.041108 0
M  V30 7 C 1.673238 -0.715456 -0.805387 0
M  V30 8 C 2.419826 -0.494505 -1.943505 0
M  V30 9 N 2.396193 0.679624 -2.599985 0
M  V30 10 C 1.634097 1.700800 -2.169189 0
M  V30 11 N 1.381960 2.969886 -2.572664 0
M  V30 12 C 0.497899 3.540207 -1.712774 0
M  V30 13 C 0.148491 2.645355 -0.716091 0
M  V30 14 C -0.756620 2.860363 0.380545 0
M  V30 15 C -1.530432 3.054852 1.292543 0
M  V30 16 C -2.466622 3.270322 2.369511 0
M  V30 17 C -2.704015 2.338656 3.360257 0
M  V30 18 C -3.624480 2.642198 4.352436 0
M  V30 19 C -4.329001 3.835169 4.412868 0
M  V30 20 N -4.080607 4.741781 3.425853 0
M  V30 21 C -3.190114 4.462425 2.455574 0
M  V30 22 C 0.876590 1.507892 -1.032764 0
M  V30 23 N 0.913914 0.308856 -0.380175 0
M  V30 24 C 2.384209 -3.073917 -0.383083 0
M  V30 25 C 2.336534 -4.220280 0.353440 0
M  V30 26 O 3.053885 -5.372430 0.059834 0
M  V30 27 C 3.920513 -5.502013 -1.034968 0
M  V30 28 H 0.883578 -4.631714 4.090459 0
M  V30 29 H 0.831396 -6.409752 3.890559 0
M  V30 30 H -0.461644 -5.435891 3.092669 0
M  V30 31 H 0.132566 -3.197196 2.731074 0
M  V30 32 H 0.230364 -1.149979 1.398657 0
M  V30 33 H 3.036803 -1.304323 -2.302167 0
M  V30 34 H 1.817364 3.404837 -3.415868 0
M  V30 35 H 0.136366 4.550043 -1.816463 0
M  V30 36 H -2.170173 1.399968 3.339734 0
M  V30 37 H -3.834942 1.921982 5.153840 0
M  V30 38 H -5.035098 4.011486 5.215110 0
M  V30 39 H -2.999682 5.188258 1.676487 0
M  V30 40 H 3.020812 -3.050534 -1.256819 0
M  V30 41 H 4.412073 -4.542628 -1.270341 0
M  V30 42 H 4.749988 -6.213814 -0.774123 0
M  V30 43 H 3.430326 -5.965701 -1.927694 0
M  V30 END ATOM
M  V30 BEGIN BOND
M  V30 1 1 1 2
M  V30 2 1 2 3
M  V30 3 2 3 4
M  V30 4 1 4 5
M  V30 5 2 5 6
M  V30 6 1 6 7
M  V30 7 2 7 8
M  V30 8 1 8 9
M  V30 9 2 9 10
M  V30 10 1 10 11
M  V30 11 1 11 12
M  V30 12 2 12 13
M  V30 13 1 13 14
M  V30 14 3 14 15
M  V30 15 1 15 16
M  V30 16 2 16 17
M  V30 17 1 17 18
M  V30 18 2 18 19
M  V30 19 1 19 20
M  V30 20 2 20 21
M  V30 21 1 13 22
M  V30 22 2 22 23
M  V30 23 1 6 24
M  V30 24 2 24 25
M  V30 25 1 25 26
M  V30 26 1 26 27
M  V30 27 1 25 3
M  V30 28 1 23 7
M  V30 29 1 22 10
M  V30 30 1 21 16
M  V30 31 1 1 28
M  V30 32 1 1 29
M  V30 33 1 1 30
M  V30 34 1 4 31
M  V30 35 1 5 32
M  V30 36 1 8 33
M  V30 37 1 11 34
M  V30 38 1 12 35
M  V30 39 1 17 36
M  V30 40 1 18 37
M  V30 41 1 19 38
M  V30 42 1 21 39
M  V30 43 1 24 40
M  V30 44 1 27 41
M  V30 45 1 27 42
M  V30 46 1 27 43
M  V30 END BOND
M  V30 END CTAB
M  END
>  <Dataset>  (877) 
ChEMBL_Kinases

>  <Ligand_Instance>  (877) 
nan

>  <PDB_ID>  (877) 
nan

>  <Standardized_SMILES>  (877) 
COc1ccc(-c2cnc3[nH]cc(C#Cc4cccnc4)c3n2)cc1OC

>  <Name>  (877) 
nan

>  <Pocket>  (877) 
nan

>  <ATP_Site>  (877) 
nan

>  <Peripheral>  (877) 
nan

>  <Num_H_Atoms_ProtBoundConf>  (877) 
nan

>  <Num_Resolved_Atoms>  (877) 
nan

>  <Num_Not_Resolved_Atoms>  (877) 
nan

$$$$
CHEMBL4446884
     RDKit          3D

  0  0  0  0  0  0  0  0  0  0999 V3000
M  V30 BEGIN CTAB
M  V30 COUNTS 52 55 0 0 0
M  V30 BEGIN ATOM
M  V30 1 C 4.943125 -2.774170 1.700448 0
M  V30 2 N 5.055043 -3.456461 0.426238 0
M  V30 3 N 6.228402 -4.045109 0.125795 0
M  V30 4 C 6.181853 -4.626026 -1.071031 0
M  V30 5 C 4.901054 -4.353767 -1.483582 0
M  V30 6 Cl 4.568783 -5.017614 -3.056567 0
M  V30 7 C 4.184473 -3.630360 -0.571971 0
M  V30 8 C 2.826036 -3.160408 -0.655321 0
M  V30 9 C 2.151796 -2.437968 0.297040 0
M  V30 10 C 0.859641 -2.125842 -0.067373 0
M  V30 11 C -0.010905 -1.367729 0.807923 0
M  V30 12 O 0.297644 -0.954849 1.950740 0
M  V30 13 N -1.320486 -0.954245 0.573598 0
M  V30 14 C -2.131518 -0.205531 1.480788 0 CFG=2
M  V30 15 C -3.306399 -1.078821 1.881603 0
M  V30 16 N -4.320902 -0.923473 0.857273 0
M  V30 17 C -5.027060 0.306495 1.164401 0
M  V30 18 C -4.033514 1.392438 1.504818 0
M  V30 19 C -2.657376 1.087225 0.917780 0 CFG=1
M  V30 20 C -1.808752 2.254437 1.279844 0
M  V30 21 C -1.291575 3.167590 0.353398 0
M  V30 22 C -0.508482 4.228794 0.777665 0
M  V30 23 C -0.239515 4.379800 2.136736 0
M  V30 24 Cl 0.758689 5.758092 2.532232 0
M  V30 25 C -0.748461 3.477573 3.068937 0
M  V30 26 C -1.523316 2.433117 2.617390 0
M  V30 27 N 0.686470 -2.654630 -1.280629 0
M  V30 28 C -0.532886 -2.578032 -2.062684 0
M  V30 29 C 1.847457 -3.255276 -1.607297 0
M  V30 30 Cl 1.973871 -4.054127 -3.146969 0
M  V30 31 H 4.181557 -3.269767 2.308065 0
M  V30 32 H 5.937411 -2.780011 2.218945 0
M  V30 33 H 4.720145 -1.693206 1.596391 0
M  V30 34 H 7.061429 -5.126680 -1.415296 0
M  V30 35 H 2.530840 -2.117971 1.247825 0
M  V30 36 H -1.804815 -1.174262 -0.314236 0
M  V30 37 H -1.614258 0.038942 2.444398 0
M  V30 38 H -3.688573 -0.824707 2.884848 0
M  V30 39 H -2.922621 -2.120094 1.921097 0
M  V30 40 H -3.877757 -0.913329 -0.078188 0
M  V30 41 H -5.624208 0.113527 2.079863 0
M  V30 42 H -5.700967 0.596501 0.336300 0
M  V30 43 H -3.998386 1.623180 2.577666 0
M  V30 44 H -4.386474 2.315647 0.997171 0
M  V30 45 H -2.830592 1.028687 -0.177767 0
M  V30 46 H -1.538708 2.994530 -0.700353 0
M  V30 47 H -0.159547 4.872933 -0.006787 0
M  V30 48 H -0.493397 3.663359 4.115721 0
M  V30 49 H -1.857507 1.803763 3.439387 0
M  V30 50 H -0.404191 -3.178902 -3.020349 0
M  V30 51 H -1.404615 -3.049863 -1.579359 0
M  V30 52 H -0.763614 -1.529938 -2.342878 0
M  V30 END ATOM
M  V30 BEGIN BOND
M  V30 1 1 1 2
M  V30 2 1 2 3
M  V30 3 2 3 4
M  V30 4 1 4 5
M  V30 5 1 5 6
M  V30 6 2 5 7
M  V30 7 1 7 8
M  V30 8 1 8 9
M  V30 9 2 9 10
M  V30 10 1 10 11
M  V30 11 2 11 12
M  V30 12 1 11 13
M  V30 13 1 13 14
M  V30 14 1 14 15
M  V30 15 1 15 16
M  V30 16 1 16 17
M  V30 17 1 17 18
M  V30 18 1 18 19
M  V30 19 1 19 20
M  V30 20 2 20 21
M  V30 21 1 21 22
M  V30 22 2 22 23
M  V30 23 1 23 24
M  V30 24 1 23 25
M  V30 25 2 25 26
M  V30 26 1 10 27
M  V30 27 1 27 28
M  V30 28 1 27 29
M  V30 29 1 29 30
M  V30 30 1 7 2
M  V30 31 2 29 8
M  V30 32 1 19 14
M  V30 33 1 26 20
M  V30 34 1 1 31
M  V30 35 1 1 32
M  V30 36 1 1 33
M  V30 37 1 4 34
M  V30 38 1 9 35
M  V30 39 1 13 36
M  V30 40 1 14 37 CFG=1
M  V30 41 1 15 38
M  V30 42 1 15 39
M  V30 43 1 16 40
M  V30 44 1 17 41
M  V30 45 1 17 42
M  V30 46 1 18 43
M  V30 47 1 18 44
M  V30 48 1 19 45 CFG=3
M  V30 49 1 21 46
M  V30 50 1 22 47
M  V30 51 1 25 48
M  V30 52 1 26 49
M  V30 53 1 28 50
M  V30 54 1 28 51
M  V30 55 1 28 52
M  V30 END BOND
M  V30 END CTAB
M  END
>  <Dataset>  (878) 
ChEMBL_Kinases

>  <Ligand_Instance>  (878) 
nan

>  <PDB_ID>  (878) 
nan

>  <Standardized_SMILES>  (878) 
Cn1ncc(Cl)c1-c1cc(C(=O)N[C@@H]2CNCC[C@H]2c2ccc(Cl)cc2)n(C)c1Cl

>  <Name>  (878) 
nan

>  <Pocket>  (878) 
nan

>  <ATP_Site>  (878) 
nan

>  <Peripheral>  (878) 
nan

>  <Num_H_Atoms_ProtBoundConf>  (878) 
nan

>  <Num_Resolved_Atoms>  (878) 
nan

>  <Num_Not_Resolved_Atoms>  (878) 
nan

$$$$
CHEMBL4446730
     RDKit          3D

  0  0  0  0  0  0  0  0  0  0999 V3000
M  V30 BEGIN CTAB
M  V30 COUNTS 42 45 0 0 0
M  V30 BEGIN ATOM
M  V30 1 C 0.381416 -4.646742 1.047778 0
M  V30 2 C 1.390193 -3.702271 1.608282 0
M  V30 3 C 1.284017 -3.766650 3.135978 0
M  V30 4 C 0.243840 -2.716449 3.440124 0
M  V30 5 C 0.652505 -1.599464 2.479449 0
M  V30 6 C 1.179492 -2.274309 1.241001 0
M  V30 7 N 0.305339 -2.066265 0.105209 0
M  V30 8 C 0.062876 -0.727361 -0.297532 0
M  V30 9 N 0.658683 0.251489 0.399701 0
M  V30 10 C 0.473269 1.565366 0.071906 0
M  V30 11 C 1.132268 2.613609 0.845383 0
M  V30 12 C 1.942135 2.267542 1.907605 0
M  V30 13 C 2.591223 3.214013 2.675274 0
M  V30 14 N 2.396212 4.511737 2.336474 0
M  V30 15 C 1.606154 4.846332 1.300442 0
M  V30 16 C 0.948561 3.941904 0.518989 0
M  V30 17 N -0.319172 1.888046 -0.966668 0
M  V30 18 C -0.949433 0.959115 -1.711519 0
M  V30 19 C -1.773099 1.224899 -2.786307 0
M  V30 20 N -2.359562 0.226098 -3.470242 0
M  V30 21 C -2.187658 -1.064559 -3.161366 0
M  V30 22 C -1.366145 -1.349949 -2.087993 0
M  V30 23 C -0.740833 -0.365988 -1.353211 0
M  V30 24 H 0.500311 -5.623550 1.593518 0
M  V30 25 H -0.637079 -4.229787 1.181695 0
M  V30 26 H 0.517748 -4.900065 -0.018544 0
M  V30 27 H 2.416104 -4.065832 1.362454 0
M  V30 28 H 0.985179 -4.785173 3.462523 0
M  V30 29 H 2.230670 -3.486494 3.607557 0
M  V30 30 H -0.792776 -3.065604 3.239773 0
M  V30 31 H 0.387519 -2.419122 4.500286 0
M  V30 32 H -0.192353 -0.906435 2.296698 0
M  V30 33 H 1.466687 -1.042707 2.985153 0
M  V30 34 H 2.170312 -1.824822 0.988790 0
M  V30 35 H -0.062806 -2.947499 -0.306781 0
M  V30 36 H 2.116536 1.223399 2.202630 0
M  V30 37 H 3.222387 2.911301 3.505355 0
M  V30 38 H 1.486683 5.912818 1.074337 0
M  V30 39 H 0.307462 4.178920 -0.319345 0
M  V30 40 H -1.878450 2.273753 -2.993241 0
M  V30 41 H -2.694425 -1.832859 -3.758854 0
M  V30 42 H -1.237096 -2.392933 -1.851044 0
M  V30 END ATOM
M  V30 BEGIN BOND
M  V30 1 1 1 2
M  V30 2 1 2 3
M  V30 3 1 3 4
M  V30 4 1 4 5
M  V30 5 1 5 6
M  V30 6 1 6 7
M  V30 7 1 7 8
M  V30 8 2 8 9
M  V30 9 1 9 10
M  V30 10 1 10 11
M  V30 11 2 11 12
M  V30 12 1 12 13
M  V30 13 2 13 14
M  V30 14 1 14 15
M  V30 15 2 15 16
M  V30 16 2 10 17
M  V30 17 1 17 18
M  V30 18 2 18 19
M  V30 19 1 19 20
M  V30 20 2 20 21
M  V30 21 1 21 22
M  V30 22 2 22 23
M  V30 23 1 6 2
M  V30 24 1 23 8
M  V30 25 1 16 11
M  V30 26 1 23 18
M  V30 27 1 1 24
M  V30 28 1 1 25
M  V30 29 1 1 26
M  V30 30 1 2 27
M  V30 31 1 3 28
M  V30 32 1 3 29
M  V30 33 1 4 30
M  V30 34 1 4 31
M  V30 35 1 5 32
M  V30 36 1 5 33
M  V30 37 1 6 34
M  V30 38 1 7 35
M  V30 39 1 12 36
M  V30 40 1 13 37
M  V30 41 1 15 38
M  V30 42 1 16 39
M  V30 43 1 19 40
M  V30 44 1 21 41
M  V30 45 1 22 42
M  V30 END BOND
M  V30 END CTAB
M  END
>  <Dataset>  (879) 
ChEMBL_Kinases

>  <Ligand_Instance>  (879) 
nan

>  <PDB_ID>  (879) 
nan

>  <Standardized_SMILES>  (879) 
CC1CCCC1Nc1nc(-c2ccncc2)nc2cnccc12

>  <Name>  (879) 
nan

>  <Pocket>  (879) 
nan

>  <ATP_Site>  (879) 
nan

>  <Peripheral>  (879) 
nan

>  <Num_H_Atoms_ProtBoundConf>  (879) 
nan

>  <Num_Resolved_Atoms>  (879) 
nan

>  <Num_Not_Resolved_Atoms>  (879) 
nan

$$$$
CHEMBL4446681
     RDKit          3D

  0  0  0  0  0  0  0  0  0  0999 V3000
M  V30 BEGIN CTAB
M  V30 COUNTS 67 71 0 0 0
M  V30 BEGIN ATOM
M  V30 1 C 2.084627 -0.880111 4.204581 0
M  V30 2 N 1.798237 -1.643263 2.976732 0
M  V30 3 C 3.132184 -2.032481 2.485378 0
M  V30 4 C 3.895700 -0.820823 1.999813 0
M  V30 5 C 3.196761 -0.164483 0.881312 0
M  V30 6 C 3.588299 -0.670930 -0.346144 0
M  V30 7 C 3.073937 -0.215937 -1.545414 0
M  V30 8 C 2.129957 0.783327 -1.544360 0
M  V30 9 C 1.574416 1.275399 -2.798519 0
M  V30 10 C 1.495947 0.301102 -3.785203 0
M  V30 11 C 0.990846 0.626966 -5.021081 0
M  V30 12 C 0.559630 1.910235 -5.296213 0
M  V30 13 C 0.631703 2.897315 -4.318184 0
M  V30 14 C 1.139740 2.545822 -3.094161 0
M  V30 15 C 1.737692 1.290523 -0.319339 0
M  V30 16 C 2.254951 0.832362 0.873866 0
M  V30 17 C 1.078935 -2.819583 3.379075 0
M  V30 18 C 0.649424 -3.655027 2.207749 0
M  V30 19 C 1.076639 -4.838228 1.621976 0
M  V30 20 N 0.272427 -5.080341 0.574108 0
M  V30 21 C 0.439162 -6.248118 -0.266350 0
M  V30 22 C -0.643701 -4.132215 0.446104 0
M  V30 23 C -1.660488 -3.971318 -0.472272 0
M  V30 24 C -2.487484 -2.860632 -0.365143 0
M  V30 25 C -2.335609 -1.905118 0.625390 0
M  V30 26 C -3.235527 -0.783145 0.666887 0
M  V30 27 O -4.101461 -0.730833 -0.251922 0
M  V30 28 N -3.246161 0.249604 1.619595 0
M  V30 29 C -4.064892 1.370937 1.751341 0
M  V30 30 C -5.098183 1.759673 0.934215 0
M  V30 31 C -5.885825 2.872805 1.101290 0
M  V30 32 C -5.643276 3.689957 2.171643 0
M  V30 33 F -6.374223 4.792322 2.394381 0
M  V30 34 C -4.617997 3.350625 3.027179 0
M  V30 35 C -3.865261 2.229301 2.811858 0
M  V30 36 C -1.304489 -2.137256 1.496338 0
M  V30 37 C -0.442394 -3.212958 1.456463 0
M  V30 38 H 2.204523 0.187255 4.024751 0
M  V30 39 H 1.266937 -1.059372 4.954747 0
M  V30 40 H 3.025342 -1.244286 4.672784 0
M  V30 41 H 3.751524 -2.491346 3.283558 0
M  V30 42 H 2.999857 -2.793530 1.709186 0
M  V30 43 H 3.935325 -0.108965 2.871576 0
M  V30 44 H 4.919817 -1.110503 1.773179 0
M  V30 45 H 4.326116 -1.463472 -0.501306 0
M  V30 46 H 3.372068 -0.602642 -2.520014 0
M  V30 47 H 1.778359 -0.757401 -3.772383 0
M  V30 48 H 0.875570 -0.041760 -5.881405 0
M  V30 49 H 0.150491 2.211578 -6.268624 0
M  V30 50 H 0.308699 3.915487 -4.481536 0
M  V30 51 H 1.234511 3.241935 -2.275409 0
M  V30 52 H 0.995824 2.080526 -0.272090 0
M  V30 53 H 1.993786 1.184096 1.861726 0
M  V30 54 H 1.786177 -3.477068 3.951761 0
M  V30 55 H 0.242590 -2.609870 4.072500 0
M  V30 56 H 1.918510 -5.334591 2.065717 0
M  V30 57 H 1.492316 -6.509799 -0.464328 0
M  V30 58 H -0.010791 -6.051183 -1.267881 0
M  V30 59 H -0.137294 -7.107149 0.153173 0
M  V30 60 H -1.809726 -4.703608 -1.266353 0
M  V30 61 H -3.272015 -2.797292 -1.126697 0
M  V30 62 H -2.487790 0.096492 2.325501 0
M  V30 63 H -5.335875 1.154006 0.073523 0
M  V30 64 H -6.686373 3.134738 0.430477 0
M  V30 65 H -4.405661 3.975413 3.876975 0
M  V30 66 H -3.061569 2.019207 3.535112 0
M  V30 67 H -1.154728 -1.412584 2.283579 0
M  V30 END ATOM
M  V30 BEGIN BOND
M  V30 1 1 1 2
M  V30 2 1 2 3
M  V30 3 1 3 4
M  V30 4 1 4 5
M  V30 5 2 5 6
M  V30 6 1 6 7
M  V30 7 2 7 8
M  V30 8 1 8 9
M  V30 9 2 9 10
M  V30 10 1 10 11
M  V30 11 2 11 12
M  V30 12 1 12 13
M  V30 13 2 13 14
M  V30 14 1 8 15
M  V30 15 2 15 16
M  V30 16 1 2 17
M  V30 17 1 17 18
M  V30 18 2 18 19
M  V30 19 1 19 20
M  V30 20 1 20 21
M  V30 21 1 20 22
M  V30 22 2 22 23
M  V30 23 1 23 24
M  V30 24 2 24 25
M  V30 25 1 25 26
M  V30 26 2 26 27
M  V30 27 1 26 28
M  V30 28 1 28 29
M  V30 29 2 29 30
M  V30 30 1 30 31
M  V30 31 2 31 32
M  V30 32 1 32 33
M  V30 33 1 32 34
M  V30 34 2 34 35
M  V30 35 1 25 36
M  V30 36 2 36 37
M  V30 37 1 16 5
M  V30 38 1 37 18
M  V30 39 1 14 9
M  V30 40 1 37 22
M  V30 41 1 35 29
M  V30 42 1 1 38
M  V30 43 1 1 39
M  V30 44 1 1 40
M  V30 45 1 3 41
M  V30 46 1 3 42
M  V30 47 1 4 43
M  V30 48 1 4 44
M  V30 49 1 6 45
M  V30 50 1 7 46
M  V30 51 1 10 47
M  V30 52 1 11 48
M  V30 53 1 12 49
M  V30 54 1 13 50
M  V30 55 1 14 51
M  V30 56 1 15 52
M  V30 57 1 16 53
M  V30 58 1 17 54
M  V30 59 1 17 55
M  V30 60 1 19 56
M  V30 61 1 21 57
M  V30 62 1 21 58
M  V30 63 1 21 59
M  V30 64 1 23 60
M  V30 65 1 24 61
M  V30 66 1 28 62
M  V30 67 1 30 63
M  V30 68 1 31 64
M  V30 69 1 34 65
M  V30 70 1 35 66
M  V30 71 1 36 67
M  V30 END BOND
M  V30 END CTAB
M  END
>  <Dataset>  (880) 
ChEMBL_Kinases

>  <Ligand_Instance>  (880) 
nan

>  <PDB_ID>  (880) 
nan

>  <Standardized_SMILES>  (880) 
CN(CCc1ccc(-c2ccccc2)cc1)Cc1cn(C)c2ccc(C(=O)Nc3ccc(F)cc3)cc12

>  <Name>  (880) 
nan

>  <Pocket>  (880) 
nan

>  <ATP_Site>  (880) 
nan

>  <Peripheral>  (880) 
nan

>  <Num_H_Atoms_ProtBoundConf>  (880) 
nan

>  <Num_Resolved_Atoms>  (880) 
nan

>  <Num_Not_Resolved_Atoms>  (880) 
nan

$$$$
CHEMBL4749989
     RDKit          3D

  0  0  0  0  0  0  0  0  0  0999 V3000
M  V30 BEGIN CTAB
M  V30 COUNTS 34 37 0 0 0
M  V30 BEGIN ATOM
M  V30 1 O 0.401933 -0.743804 0.821386 0
M  V30 2 C 0.554182 -0.031892 1.879825 0
M  V30 3 N 1.325926 1.052254 1.309369 0
M  V30 4 C 1.555671 0.831675 -0.138654 0
M  V30 5 N 2.425599 0.284348 -0.631129 0
M  V30 6 C 2.726867 0.031910 -1.881464 0
M  V30 7 C 3.774141 -0.628702 -2.494006 0
M  V30 8 C 3.793730 -0.721117 -3.870564 0
M  V30 9 N 2.870432 -0.221619 -4.744630 0
M  V30 10 C 1.825959 0.432480 -4.217034 0
M  V30 11 C 1.814462 0.521563 -2.814710 0
M  V30 12 S 0.537965 1.348239 -1.688214 0
M  V30 13 C 0.273945 0.094468 3.309806 0
M  V30 14 C 0.045940 -1.094461 4.196295 0
M  V30 15 C -1.159499 -0.310686 3.704558 0
M  V30 16 C -2.021021 -0.970589 2.703328 0
M  V30 17 C -1.809236 -2.135440 1.999023 0
M  V30 18 C -2.710653 -2.621274 1.077510 0
M  V30 19 C -3.882972 -1.980260 0.795998 0
M  V30 20 C -4.132817 -0.811325 1.479748 0
M  V30 21 C -3.229495 -0.330009 2.398994 0
M  V30 22 H 1.714327 1.913908 1.765480 0
M  V30 23 H 4.575164 -1.073612 -1.929992 0
M  V30 24 H 4.642674 -1.253953 -4.322997 0
M  V30 25 H 0.967411 0.917744 -4.679441 0
M  V30 26 H 0.661481 0.994400 3.855774 0
M  V30 27 H 0.303482 -0.981216 5.290395 0
M  V30 28 H 0.223768 -2.109587 3.825419 0
M  V30 29 H -1.661816 0.376325 4.422033 0
M  V30 30 H -0.888190 -2.651014 2.225403 0
M  V30 31 H -2.450136 -3.552317 0.571951 0
M  V30 32 H -4.513866 -2.435537 0.068001 0
M  V30 33 H -5.060226 -0.287917 1.268581 0
M  V30 34 H -3.496738 0.603533 2.902200 0
M  V30 END ATOM
M  V30 BEGIN BOND
M  V30 1 2 1 2
M  V30 2 1 2 3
M  V30 3 1 3 4
M  V30 4 2 4 5
M  V30 5 1 5 6
M  V30 6 2 6 7
M  V30 7 1 7 8
M  V30 8 2 8 9
M  V30 9 1 9 10
M  V30 10 2 10 11
M  V30 11 1 11 12
M  V30 12 1 2 13
M  V30 13 1 13 14
M  V30 14 1 14 15
M  V30 15 1 15 16
M  V30 16 2 16 17
M  V30 17 1 17 18
M  V30 18 2 18 19
M  V30 19 1 19 20
M  V30 20 2 20 21
M  V30 21 1 12 4
M  V30 22 1 15 13
M  V30 23 1 21 16
M  V30 24 1 11 6
M  V30 25 1 3 22
M  V30 26 1 7 23
M  V30 27 1 8 24
M  V30 28 1 10 25
M  V30 29 1 13 26
M  V30 30 1 14 27
M  V30 31 1 14 28
M  V30 32 1 15 29
M  V30 33 1 17 30
M  V30 34 1 18 31
M  V30 35 1 19 32
M  V30 36 1 20 33
M  V30 37 1 21 34
M  V30 END BOND
M  V30 END CTAB
M  END
>  <Dataset>  (881) 
ChEMBL_Kinases

>  <Ligand_Instance>  (881) 
nan

>  <PDB_ID>  (881) 
nan

>  <Standardized_SMILES>  (881) 
O=C(Nc1nc2ccncc2s1)C1CC1c1ccccc1

>  <Name>  (881) 
nan

>  <Pocket>  (881) 
nan

>  <ATP_Site>  (881) 
nan

>  <Peripheral>  (881) 
nan

>  <Num_H_Atoms_ProtBoundConf>  (881) 
nan

>  <Num_Resolved_Atoms>  (881) 
nan

>  <Num_Not_Resolved_Atoms>  (881) 
nan

$$$$
CHEMBL4446662
     RDKit          3D

  0  0  0  0  0  0  0  0  0  0999 V3000
M  V30 BEGIN CTAB
M  V30 COUNTS 57 60 0 0 0
M  V30 BEGIN ATOM
M  V30 1 C 3.439859 -2.060574 -1.448005 0
M  V30 2 N 2.512225 -2.813231 -0.625121 0
M  V30 3 C 2.076749 -2.337121 0.624021 0
M  V30 4 N 2.559747 -1.162350 1.063462 0
M  V30 5 C 2.199563 -0.647356 2.265426 0
M  V30 6 N 2.791547 0.620356 2.613373 0
M  V30 7 C 2.152755 1.863021 2.257453 0
M  V30 8 C 2.683653 3.099492 2.568037 0
M  V30 9 N 2.015410 4.205473 2.195452 0
M  V30 10 C 0.835071 4.136548 1.523222 0
M  V30 11 C 0.247579 5.408153 1.197969 0
M  V30 12 N -0.237437 6.427233 0.944386 0
M  V30 13 C 0.266430 2.913606 1.191138 0
M  V30 14 O -0.921193 3.043656 0.516137 0
M  V30 15 C -1.686900 1.944001 0.074078 0
M  V30 16 C -1.888922 2.125933 -1.433507 0
M  V30 17 C -2.387549 3.546005 -1.595635 0
M  V30 18 C -3.859147 3.484999 -1.163568 0
M  V30 19 N -4.096479 2.410512 -0.251837 0
M  V30 20 C -3.071984 2.142627 0.697401 0
M  V30 21 C 0.957505 1.787982 1.576807 0
M  V30 22 N 1.337030 -1.292847 3.077781 0
M  V30 23 C 0.805476 -2.484720 2.704528 0
M  V30 24 C 1.203046 -2.965260 1.473600 0
M  V30 25 C 0.616819 -4.230335 1.064794 0
M  V30 26 C 0.632613 -5.340511 1.912410 0
M  V30 27 C 0.049409 -6.526574 1.485561 0
M  V30 28 C -0.558252 -6.674892 0.244848 0
M  V30 29 O -1.136855 -7.863520 -0.170215 0
M  V30 30 C -1.741421 -7.950130 -1.448423 0
M  V30 31 C -0.568140 -5.576438 -0.580637 0
M  V30 32 C 0.015943 -4.380830 -0.158262 0
M  V30 33 H 3.358259 -0.988721 -1.098397 0
M  V30 34 H 4.504796 -2.321871 -1.189093 0
M  V30 35 H 3.233981 -2.087014 -2.518358 0
M  V30 36 H 2.283858 -3.689088 -1.127199 0
M  V30 37 H 3.709008 0.722705 3.138834 0
M  V30 38 H 3.634401 3.143455 3.109971 0
M  V30 39 H -1.263392 0.967340 0.305716 0
M  V30 40 H -0.958807 1.942072 -2.006972 0
M  V30 41 H -2.697023 1.456377 -1.791580 0
M  V30 42 H -2.272011 3.925214 -2.628622 0
M  V30 43 H -1.848323 4.172882 -0.853868 0
M  V30 44 H -4.395251 3.205171 -2.117502 0
M  V30 45 H -4.239967 4.447963 -0.814674 0
M  V30 46 H -4.648385 1.620875 -0.590462 0
M  V30 47 H -3.328606 1.155971 1.170096 0
M  V30 48 H -3.066971 2.889795 1.508467 0
M  V30 49 H 0.489484 0.865472 1.304249 0
M  V30 50 H 0.116430 -3.014614 3.338262 0
M  V30 51 H 1.097126 -5.277394 2.897229 0
M  V30 52 H 0.035423 -7.422611 2.109718 0
M  V30 53 H -2.300097 -8.873445 -1.594614 0
M  V30 54 H -2.495845 -7.114885 -1.544434 0
M  V30 55 H -1.028750 -7.801388 -2.285687 0
M  V30 56 H -1.040730 -5.687256 -1.549683 0
M  V30 57 H -0.060741 -3.603664 -0.876982 0
M  V30 END ATOM
M  V30 BEGIN BOND
M  V30 1 1 1 2
M  V30 2 1 2 3
M  V30 3 2 3 4
M  V30 4 1 4 5
M  V30 5 1 5 6
M  V30 6 1 6 7
M  V30 7 2 7 8
M  V30 8 1 8 9
M  V30 9 2 9 10
M  V30 10 1 10 11
M  V30 11 3 11 12
M  V30 12 1 10 13
M  V30 13 1 13 14
M  V30 14 1 14 15
M  V30 15 1 15 16
M  V30 16 1 16 17
M  V30 17 1 17 18
M  V30 18 1 18 19
M  V30 19 1 19 20
M  V30 20 2 13 21
M  V30 21 2 5 22
M  V30 22 1 22 23
M  V30 23 2 23 24
M  V30 24 1 24 25
M  V30 25 2 25 26
M  V30 26 1 26 27
M  V30 27 2 27 28
M  V30 28 1 28 29
M  V30 29 1 29 30
M  V30 30 1 28 31
M  V30 31 2 31 32
M  V30 32 1 24 3
M  V30 33 1 32 25
M  V30 34 1 21 7
M  V30 35 1 20 15
M  V30 36 1 1 33
M  V30 37 1 1 34
M  V30 38 1 1 35
M  V30 39 1 2 36
M  V30 40 1 6 37
M  V30 41 1 8 38
M  V30 42 1 15 39
M  V30 43 1 16 40
M  V30 44 1 16 41
M  V30 45 1 17 42
M  V30 46 1 17 43
M  V30 47 1 18 44
M  V30 48 1 18 45
M  V30 49 1 19 46
M  V30 50 1 20 47
M  V30 51 1 20 48
M  V30 52 1 21 49
M  V30 53 1 23 50
M  V30 54 1 26 51
M  V30 55 1 27 52
M  V30 56 1 30 53
M  V30 57 1 30 54
M  V30 58 1 30 55
M  V30 59 1 31 56
M  V30 60 1 32 57
M  V30 END BOND
M  V30 END CTAB
M  END
>  <Dataset>  (882) 
ChEMBL_Kinases

>  <Ligand_Instance>  (882) 
nan

>  <PDB_ID>  (882) 
nan

>  <Standardized_SMILES>  (882) 
CNc1nc(Nc2cnc(C#N)c(OC3CCCNC3)c2)ncc1-c1ccc(OC)cc1

>  <Name>  (882) 
nan

>  <Pocket>  (882) 
nan

>  <ATP_Site>  (882) 
nan

>  <Peripheral>  (882) 
nan

>  <Num_H_Atoms_ProtBoundConf>  (882) 
nan

>  <Num_Resolved_Atoms>  (882) 
nan

>  <Num_Not_Resolved_Atoms>  (882) 
nan

$$$$
CHEMBL4446641
     RDKit          3D

  0  0  0  0  0  0  0  0  0  0999 V3000
M  V30 BEGIN CTAB
M  V30 COUNTS 52 56 0 0 0
M  V30 BEGIN ATOM
M  V30 1 C 0.013750 0.636773 0.764947 0
M  V30 2 C 0.932328 -0.510029 1.095032 0
M  V30 3 C 1.120685 -1.413076 -0.115530 0
M  V30 4 C 2.228616 -0.012358 1.627511 0
M  V30 5 C 3.017892 0.851806 0.765054 0
M  V30 6 C 4.064569 0.381300 -0.045501 0
M  V30 7 N 4.626961 1.382424 -0.784329 0
M  V30 8 C 3.973255 2.518316 -0.480970 0
M  V30 9 C 4.173934 3.796505 -0.954776 0
M  V30 10 C 3.326671 4.744374 -0.420332 0
M  V30 11 C 2.341839 4.502607 0.511231 0
M  V30 12 C 2.218120 3.194471 0.922884 0
M  V30 13 C 3.009839 2.191368 0.449485 0
M  V30 14 N 0.268950 -1.367462 2.090719 0
M  V30 15 C -0.926669 -2.083803 1.815089 0
M  V30 16 N -1.517888 -2.024358 0.601238 0
M  V30 17 C -2.661860 -2.718833 0.331935 0
M  V30 18 C -3.310815 -2.660264 -0.976105 0
M  V30 19 C -2.759744 -1.867237 -1.987390 0
M  V30 20 C -3.377507 -1.808195 -3.236921 0
M  V30 21 N -4.507976 -2.516182 -3.472223 0
M  V30 22 C -4.996337 -3.259773 -2.473366 0
M  V30 23 C -4.479022 -3.391673 -1.219601 0
M  V30 24 N -3.220596 -3.481015 1.286659 0
M  V30 25 C -2.687665 -3.585180 2.511066 0
M  V30 26 C -3.271780 -4.369513 3.481350 0
M  V30 27 N -2.722921 -4.462507 4.709895 0
M  V30 28 C -1.583982 -3.784606 5.013413 0
M  V30 29 C -1.016352 -3.003216 4.020959 0
M  V30 30 C -1.535643 -2.877143 2.760186 0
M  V30 31 H 0.406362 1.232557 -0.071927 0
M  V30 32 H -0.190268 1.285564 1.620989 0
M  V30 33 H -1.010448 0.254178 0.463834 0
M  V30 34 H 2.016806 -1.124780 -0.701438 0
M  V30 35 H 1.295778 -2.431753 0.237796 0
M  V30 36 H 0.263046 -1.268054 -0.781675 0
M  V30 37 H 2.843159 -0.931045 1.876963 0
M  V30 38 H 2.089444 0.467589 2.646873 0
M  V30 39 H 4.401486 -0.664615 -0.090171 0
M  V30 40 H 5.414103 1.223504 -1.441953 0
M  V30 41 H 4.930777 4.040578 -1.684158 0
M  V30 42 H 3.430717 5.776888 -0.750911 0
M  V30 43 H 1.701834 5.288923 0.899680 0
M  V30 44 H 1.460647 2.971252 1.657573 0
M  V30 45 H 0.738803 -1.402642 2.994336 0
M  V30 46 H -1.871046 -1.288422 -1.858274 0
M  V30 47 H -2.965029 -1.199427 -4.032860 0
M  V30 48 H -5.901499 -3.821324 -2.674729 0
M  V30 49 H -4.921521 -4.008990 -0.456768 0
M  V30 50 H -4.182465 -4.885750 3.172219 0
M  V30 51 H -1.205479 -3.908329 6.015745 0
M  V30 52 H -0.121521 -2.505964 4.350934 0
M  V30 END ATOM
M  V30 BEGIN BOND
M  V30 1 1 1 2
M  V30 2 1 2 3
M  V30 3 1 2 4
M  V30 4 1 4 5
M  V30 5 2 5 6
M  V30 6 1 6 7
M  V30 7 1 7 8
M  V30 8 2 8 9
M  V30 9 1 9 10
M  V30 10 2 10 11
M  V30 11 1 11 12
M  V30 12 2 12 13
M  V30 13 1 2 14
M  V30 14 1 14 15
M  V30 15 2 15 16
M  V30 16 1 16 17
M  V30 17 1 17 18
M  V30 18 2 18 19
M  V30 19 1 19 20
M  V30 20 2 20 21
M  V30 21 1 21 22
M  V30 22 2 22 23
M  V30 23 2 17 24
M  V30 24 1 24 25
M  V30 25 2 25 26
M  V30 26 1 26 27
M  V30 27 2 27 28
M  V30 28 1 28 29
M  V30 29 2 29 30
M  V30 30 1 13 5
M  V30 31 1 30 15
M  V30 32 1 13 8
M  V30 33 1 23 18
M  V30 34 1 30 25
M  V30 35 1 1 31
M  V30 36 1 1 32
M  V30 37 1 1 33
M  V30 38 1 3 34
M  V30 39 1 3 35
M  V30 40 1 3 36
M  V30 41 1 4 37
M  V30 42 1 4 38
M  V30 43 1 6 39
M  V30 44 1 7 40
M  V30 45 1 9 41
M  V30 46 1 10 42
M  V30 47 1 11 43
M  V30 48 1 12 44
M  V30 49 1 14 45
M  V30 50 1 19 46
M  V30 51 1 20 47
M  V30 52 1 22 48
M  V30 53 1 23 49
M  V30 54 1 26 50
M  V30 55 1 28 51
M  V30 56 1 29 52
M  V30 END BOND
M  V30 END CTAB
M  END
>  <Dataset>  (883) 
ChEMBL_Kinases

>  <Ligand_Instance>  (883) 
nan

>  <PDB_ID>  (883) 
nan

>  <Standardized_SMILES>  (883) 
CC(C)(Cc1c[nH]c2ccccc12)Nc1nc(-c2ccncc2)nc2cnccc12

>  <Name>  (883) 
nan

>  <Pocket>  (883) 
nan

>  <ATP_Site>  (883) 
nan

>  <Peripheral>  (883) 
nan

>  <Num_H_Atoms_ProtBoundConf>  (883) 
nan

>  <Num_Resolved_Atoms>  (883) 
nan

>  <Num_Not_Resolved_Atoms>  (883) 
nan

$$$$
CHEMBL4446630
     RDKit          3D

  0  0  0  0  0  0  0  0  0  0999 V3000
M  V30 BEGIN CTAB
M  V30 COUNTS 43 45 0 0 0
M  V30 BEGIN ATOM
M  V30 1 C 0.885901 -5.332874 2.741577 0
M  V30 2 O -0.168125 -4.442522 3.032301 0
M  V30 3 C -0.297648 -3.226256 2.379307 0
M  V30 4 C 0.523333 -2.715155 1.407826 0
M  V30 5 C 0.260006 -1.487966 0.852481 0
M  V30 6 N 1.170768 -1.094542 -0.174475 0
M  V30 7 C 1.118772 -0.064818 -1.142341 0
M  V30 8 N 0.301805 -0.345230 -2.187816 0
M  V30 9 C 0.130951 0.513600 -3.214986 0
M  V30 10 N 0.796202 1.705569 -3.215614 0
M  V30 11 C 1.599565 1.971240 -2.180558 0
M  V30 12 C 2.325051 3.158832 -2.109602 0
M  V30 13 C 3.183765 3.463934 -1.047790 0
M  V30 14 C 3.345178 2.577040 -0.010479 0
M  V30 15 C 4.232690 2.782207 1.154423 0
M  V30 16 F 5.562579 2.614828 0.828422 0
M  V30 17 F 4.011984 4.067019 1.630746 0
M  V30 18 F 3.933890 1.914062 2.189683 0
M  V30 19 C 2.640517 1.403108 -0.059349 0
M  V30 20 C 1.805400 1.124729 -1.105741 0
M  V30 21 C -0.811974 -0.714956 1.226545 0
M  V30 22 C -1.651489 -1.201935 2.198109 0
M  V30 23 O -2.738052 -0.437704 2.589283 0
M  V30 24 C -3.046244 0.817130 2.063263 0
M  V30 25 C -1.381217 -2.435953 2.749163 0
M  V30 26 O -2.262284 -2.890957 3.728753 0
M  V30 27 C -3.348849 -3.680914 3.225056 0
M  V30 28 H 1.793960 -4.822490 2.371072 0
M  V30 29 H 0.578120 -6.036773 1.917052 0
M  V30 30 H 1.114405 -5.990146 3.598502 0
M  V30 31 H 1.362479 -3.308811 1.105323 0
M  V30 32 H 2.074427 -1.548751 -0.365883 0
M  V30 33 H -0.532982 0.272817 -4.060378 0
M  V30 34 H 2.198968 3.846726 -2.916876 0
M  V30 35 H 3.738664 4.393152 -1.012407 0
M  V30 36 H 2.703308 0.653937 0.710497 0
M  V30 37 H -0.920328 0.235775 0.718417 0
M  V30 38 H -2.169981 1.442984 1.786403 0
M  V30 39 H -3.545981 1.395317 2.897861 0
M  V30 40 H -3.795687 0.735120 1.261269 0
M  V30 41 H -2.963345 -4.731050 3.207872 0
M  V30 42 H -3.557722 -3.353474 2.206942 0
M  V30 43 H -4.225813 -3.605230 3.914938 0
M  V30 END ATOM
M  V30 BEGIN BOND
M  V30 1 1 1 2
M  V30 2 1 2 3
M  V30 3 2 3 4
M  V30 4 1 4 5
M  V30 5 1 5 6
M  V30 6 1 6 7
M  V30 7 2 7 8
M  V30 8 1 8 9
M  V30 9 2 9 10
M  V30 10 1 10 11
M  V30 11 2 11 12
M  V30 12 1 12 13
M  V30 13 2 13 14
M  V30 14 1 14 15
M  V30 15 1 15 16
M  V30 16 1 15 17
M  V30 17 1 15 18
M  V30 18 1 14 19
M  V30 19 2 19 20
M  V30 20 2 5 21
M  V30 21 1 21 22
M  V30 22 1 22 23
M  V30 23 1 23 24
M  V30 24 2 22 25
M  V30 25 1 25 26
M  V30 26 1 26 27
M  V30 27 1 25 3
M  V30 28 1 20 7
M  V30 29 1 20 11
M  V30 30 1 1 28
M  V30 31 1 1 29
M  V30 32 1 1 30
M  V30 33 1 4 31
M  V30 34 1 6 32
M  V30 35 1 9 33
M  V30 36 1 12 34
M  V30 37 1 13 35
M  V30 38 1 19 36
M  V30 39 1 21 37
M  V30 40 1 24 38
M  V30 41 1 24 39
M  V30 42 1 24 40
M  V30 43 1 27 41
M  V30 44 1 27 42
M  V30 45 1 27 43
M  V30 END BOND
M  V30 END CTAB
M  END
>  <Dataset>  (884) 
ChEMBL_Kinases

>  <Ligand_Instance>  (884) 
nan

>  <PDB_ID>  (884) 
nan

>  <Standardized_SMILES>  (884) 
COc1cc(Nc2ncnc3ccc(C(F)(F)F)cc23)cc(OC)c1OC

>  <Name>  (884) 
nan

>  <Pocket>  (884) 
nan

>  <ATP_Site>  (884) 
nan

>  <Peripheral>  (884) 
nan

>  <Num_H_Atoms_ProtBoundConf>  (884) 
nan

>  <Num_Resolved_Atoms>  (884) 
nan

>  <Num_Not_Resolved_Atoms>  (884) 
nan

$$$$
CHEMBL4750016
     RDKit          3D

  0  0  0  0  0  0  0  0  0  0999 V3000
M  V30 BEGIN CTAB
M  V30 COUNTS 31 34 0 0 0
M  V30 BEGIN ATOM
M  V30 1 C -1.650204 -3.598039 3.549344 0
M  V30 2 C -1.538802 -2.489104 2.494398 0 CFG=1
M  V30 3 C -1.733789 -1.106986 3.099958 0
M  V30 4 C -0.367842 -1.625861 2.541042 0 CFG=2
M  V30 5 N 0.162041 -0.938374 1.391360 0
M  V30 6 C 1.478834 -0.588191 1.306661 0
M  V30 7 O 2.240180 -0.884701 2.276160 0
M  V30 8 C 1.952908 0.070353 0.189340 0
M  V30 9 C 3.293697 0.427192 0.102550 0
M  V30 10 C 3.735697 1.085402 -1.029429 0
M  V30 11 F 5.042228 1.409512 -1.065824 0
M  V30 12 C 2.893990 1.400396 -2.075106 0
M  V30 13 C 1.565238 1.046070 -1.987683 0
M  V30 14 C 1.131207 0.395790 -0.868078 0
M  V30 15 N -0.135342 0.047699 -0.763611 0
M  V30 16 C -1.181031 0.204884 -1.584772 0
M  V30 17 S -1.358062 0.872368 -3.031869 0
M  V30 18 N -2.261654 -0.336058 -0.997700 0
M  V30 19 N -1.903519 -0.832035 0.185992 0
M  V30 20 C -0.586997 -0.592830 0.327663 0
M  V30 21 H -2.570453 -3.507748 4.127136 0
M  V30 22 H -0.788849 -3.505690 4.239717 0
M  V30 23 H -1.580280 -4.583178 3.007683 0
M  V30 24 H -2.143111 -2.724653 1.608731 0
M  V30 25 H -1.757846 -0.984733 4.194176 0
M  V30 26 H -2.225025 -0.323610 2.489107 0
M  V30 27 H 0.392834 -1.866790 3.311468 0
M  V30 28 H 3.961140 0.178886 0.928715 0
M  V30 29 H 3.359142 1.919160 -2.911377 0
M  V30 30 H 0.999512 1.335927 -2.849997 0
M  V30 31 H -3.271204 -0.429369 -1.290293 0
M  V30 END ATOM
M  V30 BEGIN BOND
M  V30 1 1 1 2
M  V30 2 1 2 3
M  V30 3 1 3 4
M  V30 4 1 4 5
M  V30 5 1 5 6
M  V30 6 2 6 7
M  V30 7 1 6 8
M  V30 8 2 8 9
M  V30 9 1 9 10
M  V30 10 1 10 11
M  V30 11 2 10 12
M  V30 12 1 12 13
M  V30 13 2 13 14
M  V30 14 1 14 15
M  V30 15 1 15 16
M  V30 16 2 16 17
M  V30 17 1 16 18
M  V30 18 1 18 19
M  V30 19 2 19 20
M  V30 20 1 4 2
M  V30 21 1 20 5
M  V30 22 1 14 8
M  V30 23 1 20 15
M  V30 24 1 1 21
M  V30 25 1 1 22
M  V30 26 1 1 23
M  V30 27 1 2 24 CFG=3
M  V30 28 1 3 25
M  V30 29 1 3 26
M  V30 30 1 4 27 CFG=1
M  V30 31 1 9 28
M  V30 32 1 12 29
M  V30 33 1 13 30
M  V30 34 1 18 31
M  V30 END BOND
M  V30 END CTAB
M  END
>  <Dataset>  (885) 
ChEMBL_Kinases

>  <Ligand_Instance>  (885) 
nan

>  <PDB_ID>  (885) 
nan

>  <Standardized_SMILES>  (885) 
C[C@H]1C[C@@H]1n1c(=O)c2cc(F)ccc2n2c(=S)[nH]nc12

>  <Name>  (885) 
nan

>  <Pocket>  (885) 
nan

>  <ATP_Site>  (885) 
nan

>  <Peripheral>  (885) 
nan

>  <Num_H_Atoms_ProtBoundConf>  (885) 
nan

>  <Num_Resolved_Atoms>  (885) 
nan

>  <Num_Not_Resolved_Atoms>  (885) 
nan

$$$$
CHEMBL4446613
     RDKit          3D

  0  0  0  0  0  0  0  0  0  0999 V3000
M  V30 BEGIN CTAB
M  V30 COUNTS 36 39 0 0 0
M  V30 BEGIN ATOM
M  V30 1 F 2.280312 -6.333423 4.132075 0
M  V30 2 C 1.884724 -5.297751 3.366339 0
M  V30 3 C 0.663640 -5.331846 2.756464 0
M  V30 4 C 0.221648 -4.287934 1.962355 0
M  V30 5 C 0.979893 -3.158191 1.739325 0
M  V30 6 C 0.430029 -2.118098 0.891806 0
M  V30 7 C 0.991609 -0.926418 0.533957 0
M  V30 8 C 0.388185 0.004392 -0.281804 0
M  V30 9 N 1.035640 1.219434 -0.608159 0
M  V30 10 C 0.712648 2.586884 -0.405518 0
M  V30 11 C 1.583906 3.555022 -0.860029 0
M  V30 12 C 1.197348 4.858167 -0.624017 0
M  V30 13 N 0.038921 5.186385 0.012329 0
M  V30 14 C -0.794514 4.225725 0.446432 0
M  V30 15 C -0.466767 2.889931 0.241751 0
M  V30 16 C -0.866671 -0.237087 -0.796463 0
M  V30 17 C -1.765426 0.408920 -1.609615 0
M  V30 18 C -2.857899 -0.456273 -1.702191 0
M  V30 19 N -2.640344 -1.572484 -0.984365 0
M  V30 20 C -1.419765 -1.443783 -0.426108 0
M  V30 21 N -0.793191 -2.329487 0.377076 0
M  V30 22 C 2.198509 -3.168668 2.372140 0
M  V30 23 F 3.014865 -2.118193 2.222074 0
M  V30 24 C 2.655658 -4.186137 3.159685 0
M  V30 25 H 0.043776 -6.200875 2.909176 0
M  V30 26 H -0.778567 -4.427846 1.523610 0
M  V30 27 H 1.958483 -0.689223 0.902750 0
M  V30 28 H 1.928861 0.938822 -1.097829 0
M  V30 29 H 2.508294 3.310735 -1.367441 0
M  V30 30 H 1.838971 5.663955 -0.956920 0
M  V30 31 H -1.728255 4.486151 0.959286 0
M  V30 32 H -1.182736 2.173095 0.616863 0
M  V30 33 H -1.587874 1.380944 -2.045855 0
M  V30 34 H -3.744803 -0.233765 -2.279391 0
M  V30 35 H -3.340337 -2.352093 -0.921410 0
M  V30 36 H 3.624894 -4.145858 3.636604 0
M  V30 END ATOM
M  V30 BEGIN BOND
M  V30 1 1 1 2
M  V30 2 2 2 3
M  V30 3 1 3 4
M  V30 4 2 4 5
M  V30 5 1 5 6
M  V30 6 2 6 7
M  V30 7 1 7 8
M  V30 8 1 8 9
M  V30 9 1 9 10
M  V30 10 2 10 11
M  V30 11 1 11 12
M  V30 12 2 12 13
M  V30 13 1 13 14
M  V30 14 2 14 15
M  V30 15 2 8 16
M  V30 16 1 16 17
M  V30 17 2 17 18
M  V30 18 1 18 19
M  V30 19 1 19 20
M  V30 20 2 20 21
M  V30 21 1 5 22
M  V30 22 1 22 23
M  V30 23 2 22 24
M  V30 24 1 24 2
M  V30 25 1 21 6
M  V30 26 1 15 10
M  V30 27 1 20 16
M  V30 28 1 3 25
M  V30 29 1 4 26
M  V30 30 1 7 27
M  V30 31 1 9 28
M  V30 32 1 11 29
M  V30 33 1 12 30
M  V30 34 1 14 31
M  V30 35 1 15 32
M  V30 36 1 17 33
M  V30 37 1 18 34
M  V30 38 1 19 35
M  V30 39 1 24 36
M  V30 END BOND
M  V30 END CTAB
M  END
>  <Dataset>  (886) 
ChEMBL_Kinases

>  <Ligand_Instance>  (886) 
nan

>  <PDB_ID>  (886) 
nan

>  <Standardized_SMILES>  (886) 
Fc1ccc(-c2cc(Nc3ccncc3)c3cc[nH]c3n2)c(F)c1

>  <Name>  (886) 
nan

>  <Pocket>  (886) 
nan

>  <ATP_Site>  (886) 
nan

>  <Peripheral>  (886) 
nan

>  <Num_H_Atoms_ProtBoundConf>  (886) 
nan

>  <Num_Resolved_Atoms>  (886) 
nan

>  <Num_Not_Resolved_Atoms>  (886) 
nan

$$$$
CHEMBL4446540
     RDKit          3D

  0  0  0  0  0  0  0  0  0  0999 V3000
M  V30 BEGIN CTAB
M  V30 COUNTS 38 40 0 0 0
M  V30 BEGIN ATOM
M  V30 1 C -1.915100 -2.920970 1.674173 0
M  V30 2 C -0.504896 -3.168863 1.987185 0
M  V30 3 N -0.009903 -4.114714 2.839746 0
M  V30 4 N 1.305747 -4.027847 2.863541 0
M  V30 5 C 1.760794 -3.049359 2.054056 0
M  V30 6 C 2.990437 -2.551273 1.720233 0
M  V30 7 C 2.999123 -1.506213 0.822916 0
M  V30 8 N 1.856141 -0.994795 0.295689 0
M  V30 9 C 0.647973 -1.491704 0.629878 0
M  V30 10 N -0.416310 -0.828551 -0.041808 0
M  V30 11 C -1.343521 -1.402075 -1.031771 0
M  V30 12 C -0.692904 0.596184 0.224784 0
M  V30 13 C -0.530504 1.338123 -1.037012 0
M  V30 14 C 0.271363 2.593450 -1.017506 0
M  V30 15 C 0.262410 3.185484 0.370289 0
M  V30 16 C 1.023898 2.150377 1.210747 0
M  V30 17 C 0.046124 1.024843 1.418820 0
M  V30 18 C 0.600247 -2.530150 1.519058 0
M  V30 19 H -2.226350 -1.863239 1.674476 0
M  V30 20 H -2.519567 -3.376660 2.516551 0
M  V30 21 H -2.218859 -3.485617 0.773797 0
M  V30 22 H 1.899756 -4.660801 3.453807 0
M  V30 23 H 3.874222 -2.982397 2.158358 0
M  V30 24 H 3.969062 -1.098969 0.547487 0
M  V30 25 H -2.358504 -1.249898 -0.646588 0
M  V30 26 H -1.189692 -0.983054 -2.045009 0
M  V30 27 H -1.146336 -2.483226 -1.116220 0
M  V30 28 H -1.789009 0.574087 0.505401 0
M  V30 29 H -1.516581 1.612533 -1.468095 0
M  V30 30 H -0.066133 0.703285 -1.849202 0
M  V30 31 H -0.084634 3.345209 -1.748529 0
M  V30 32 H 1.343960 2.380988 -1.277947 0
M  V30 33 H -0.765843 3.252608 0.781286 0
M  V30 34 H 0.775127 4.166016 0.416209 0
M  V30 35 H 1.306028 2.639757 2.141300 0
M  V30 36 H 1.882058 1.784996 0.614652 0
M  V30 37 H -0.634694 1.409166 2.237090 0
M  V30 38 H 0.589590 0.192134 1.910338 0
M  V30 END ATOM
M  V30 BEGIN BOND
M  V30 1 1 1 2
M  V30 2 2 2 3
M  V30 3 1 3 4
M  V30 4 1 4 5
M  V30 5 2 5 6
M  V30 6 1 6 7
M  V30 7 2 7 8
M  V30 8 1 8 9
M  V30 9 1 9 10
M  V30 10 1 10 11
M  V30 11 1 10 12
M  V30 12 1 12 13
M  V30 13 1 13 14
M  V30 14 1 14 15
M  V30 15 1 15 16
M  V30 16 1 16 17
M  V30 17 2 9 18
M  V30 18 1 18 2
M  V30 19 1 18 5
M  V30 20 1 17 12
M  V30 21 1 1 19
M  V30 22 1 1 20
M  V30 23 1 1 21
M  V30 24 1 4 22
M  V30 25 1 6 23
M  V30 26 1 7 24
M  V30 27 1 11 25
M  V30 28 1 11 26
M  V30 29 1 11 27
M  V30 30 1 12 28
M  V30 31 1 13 29
M  V30 32 1 13 30
M  V30 33 1 14 31
M  V30 34 1 14 32
M  V30 35 1 15 33
M  V30 36 1 15 34
M  V30 37 1 16 35
M  V30 38 1 16 36
M  V30 39 1 17 37
M  V30 40 1 17 38
M  V30 END BOND
M  V30 END CTAB
M  END
>  <Dataset>  (887) 
ChEMBL_Kinases

>  <Ligand_Instance>  (887) 
nan

>  <PDB_ID>  (887) 
nan

>  <Standardized_SMILES>  (887) 
Cc1n[nH]c2ccnc(N(C)C3CCCCC3)c12

>  <Name>  (887) 
nan

>  <Pocket>  (887) 
nan

>  <ATP_Site>  (887) 
nan

>  <Peripheral>  (887) 
nan

>  <Num_H_Atoms_ProtBoundConf>  (887) 
nan

>  <Num_Resolved_Atoms>  (887) 
nan

>  <Num_Not_Resolved_Atoms>  (887) 
nan

$$$$
CHEMBL4446519
     RDKit          3D

  0  0  0  0  0  0  0  0  0  0999 V3000
M  V30 BEGIN CTAB
M  V30 COUNTS 44 47 0 0 0
M  V30 BEGIN ATOM
M  V30 1 C -2.838412 -5.108004 -0.195476 0
M  V30 2 S -3.710652 -3.566614 -0.598147 0
M  V30 3 C -2.562392 -2.192320 -0.654023 0
M  V30 4 N -1.862221 -1.734829 -1.725747 0
M  V30 5 C -1.113912 -0.677517 -1.319768 0
M  V30 6 C -0.237183 0.049385 -2.256199 0
M  V30 7 C 1.130563 0.189414 -2.214242 0
M  V30 8 C 1.752900 0.923101 -3.208748 0
M  V30 9 C 0.997390 1.502000 -4.225079 0
M  V30 10 F 1.633284 2.213454 -5.185463 0
M  V30 11 C -0.365299 1.377996 -4.290630 0
M  V30 12 C -0.979487 0.634688 -3.279641 0
M  V30 13 C -1.380532 -0.503390 0.040297 0
M  V30 14 C -0.675336 0.590749 0.700058 0
M  V30 15 C -0.806622 1.906061 0.333689 0
M  V30 16 C -0.104168 2.879516 1.012944 0
M  V30 17 N 0.721600 2.546939 2.047934 0
M  V30 18 C 0.888299 1.272168 2.450319 0
M  V30 19 N 1.746214 0.917067 3.529443 0
M  V30 20 C 1.862482 -0.499044 3.907747 0
M  V30 21 C 2.808795 -0.600134 5.059772 0
M  V30 22 C 3.139359 -1.916116 5.679635 0
M  V30 23 C 4.157405 -1.271037 4.753633 0
M  V30 24 C 0.180493 0.330051 1.759301 0
M  V30 25 N -2.266207 -1.443551 0.408863 0
M  V30 26 H -3.232125 -5.546322 0.748688 0
M  V30 27 H -2.835162 -5.831821 -1.030237 0
M  V30 28 H -1.775356 -4.848870 0.031231 0
M  V30 29 H 1.583045 -0.306950 -1.379333 0
M  V30 30 H 2.824833 1.004278 -3.131597 0
M  V30 31 H -0.929461 1.837721 -5.091671 0
M  V30 32 H -2.067489 0.577522 -3.395306 0
M  V30 33 H -1.466761 2.165629 -0.492923 0
M  V30 34 H -0.187950 3.920529 0.746717 0
M  V30 35 H 2.263096 1.708204 4.008258 0
M  V30 36 H 2.303062 -0.989099 2.998840 0
M  V30 37 H 0.878748 -0.954256 4.057080 0
M  V30 38 H 2.908810 0.321627 5.695360 0
M  V30 39 H 2.568900 -2.798446 5.343352 0
M  V30 40 H 3.403653 -1.904218 6.755308 0
M  V30 41 H 4.254613 -1.818860 3.781375 0
M  V30 42 H 5.071233 -0.865765 5.223236 0
M  V30 43 H 0.298547 -0.701931 2.063575 0
M  V30 44 H -2.582714 -1.459826 1.415161 0
M  V30 END ATOM
M  V30 BEGIN BOND
M  V30 1 1 1 2
M  V30 2 1 2 3
M  V30 3 2 3 4
M  V30 4 1 4 5
M  V30 5 1 5 6
M  V30 6 2 6 7
M  V30 7 1 7 8
M  V30 8 2 8 9
M  V30 9 1 9 10
M  V30 10 1 9 11
M  V30 11 2 11 12
M  V30 12 2 5 13
M  V30 13 1 13 14
M  V30 14 2 14 15
M  V30 15 1 15 16
M  V30 16 2 16 17
M  V30 17 1 17 18
M  V30 18 1 18 19
M  V30 19 1 19 20
M  V30 20 1 20 21
M  V30 21 1 21 22
M  V30 22 1 22 23
M  V30 23 2 18 24
M  V30 24 1 13 25
M  V30 25 1 25 3
M  V30 26 1 12 6
M  V30 27 1 24 14
M  V30 28 1 23 21
M  V30 29 1 1 26
M  V30 30 1 1 27
M  V30 31 1 1 28
M  V30 32 1 7 29
M  V30 33 1 8 30
M  V30 34 1 11 31
M  V30 35 1 12 32
M  V30 36 1 15 33
M  V30 37 1 16 34
M  V30 38 1 19 35
M  V30 39 1 20 36
M  V30 40 1 20 37
M  V30 41 1 21 38
M  V30 42 1 22 39
M  V30 43 1 22 40
M  V30 44 1 23 41
M  V30 45 1 23 42
M  V30 46 1 24 43
M  V30 47 1 25 44
M  V30 END BOND
M  V30 END CTAB
M  END
>  <Dataset>  (888) 
ChEMBL_Kinases

>  <Ligand_Instance>  (888) 
nan

>  <PDB_ID>  (888) 
nan

>  <Standardized_SMILES>  (888) 
CSc1nc(-c2ccc(F)cc2)c(-c2ccnc(NCC3CC3)c2)[nH]1

>  <Name>  (888) 
nan

>  <Pocket>  (888) 
nan

>  <ATP_Site>  (888) 
nan

>  <Peripheral>  (888) 
nan

>  <Num_H_Atoms_ProtBoundConf>  (888) 
nan

>  <Num_Resolved_Atoms>  (888) 
nan

>  <Num_Not_Resolved_Atoms>  (888) 
nan

$$$$
CHEMBL4444869
     RDKit          3D

  0  0  0  0  0  0  0  0  0  0999 V3000
M  V30 BEGIN CTAB
M  V30 COUNTS 72 77 0 0 0
M  V30 BEGIN ATOM
M  V30 1 F 5.063656 -3.527496 3.832802 0
M  V30 2 C 4.529214 -2.584839 3.020954 0
M  V30 3 C 3.492614 -1.740950 3.338173 0
M  V30 4 C 3.036257 -0.821966 2.423316 0
M  V30 5 C 3.581337 -0.687338 1.143020 0
M  V30 6 C 2.999625 0.334489 0.280150 0
M  V30 7 N 3.173737 1.614181 0.591220 0
M  V30 8 C 2.761605 2.539747 -0.016022 0
M  V30 9 C 2.782972 4.021702 0.051746 0
M  V30 10 C 3.279903 4.668638 -1.213770 0
M  V30 11 C 2.334557 4.633172 -2.359937 0
M  V30 12 N 0.978365 4.372033 -2.069317 0
M  V30 13 C 0.485877 4.681897 -0.785535 0
M  V30 14 C 1.416975 4.521571 0.362584 0
M  V30 15 S 1.847584 1.719169 -1.455606 0
M  V30 16 C 2.263181 0.042716 -0.868065 0
M  V30 17 C 1.888583 -1.253366 -1.487930 0
M  V30 18 C 2.653848 -2.233859 -2.036089 0
M  V30 19 C 2.013867 -3.345817 -2.543298 0
M  V30 20 N 0.659068 -3.461850 -2.498755 0
M  V30 21 C -0.083677 -2.483390 -1.953840 0
M  V30 22 N -1.514285 -2.592458 -1.903268 0
M  V30 23 C -2.190154 -3.755438 -2.441957 0
M  V30 24 C -3.002514 -4.366747 -1.330500 0
M  V30 25 C -3.704295 -3.387224 -0.455188 0
M  V30 26 C -3.203648 -3.463169 0.977454 0
M  V30 27 N -3.902301 -2.500302 1.809721 0
M  V30 28 C -5.299734 -2.858718 1.975675 0
M  V30 29 C -5.870919 -1.990374 3.077017 0
M  V30 30 O -5.016490 -0.938365 3.353592 0
M  V30 31 C -3.823786 -1.361810 3.928332 0
M  V30 32 C -3.297615 -2.526138 3.128168 0
M  V30 33 C -3.684490 -1.970999 -0.978866 0
M  V30 34 C -2.276574 -1.515684 -1.303322 0
M  V30 35 N 0.530828 -1.396543 -1.456768 0
M  V30 36 C 4.613576 -1.542691 0.855035 0
M  V30 37 C 5.082216 -2.469363 1.760539 0
M  V30 38 H 3.084589 -1.855206 4.323617 0
M  V30 39 H 2.217398 -0.191860 2.742913 0
M  V30 40 H 3.473099 4.351019 0.872150 0
M  V30 41 H 4.200077 4.089504 -1.511065 0
M  V30 42 H 3.611300 5.702471 -0.950929 0
M  V30 43 H 2.656317 3.871121 -3.129637 0
M  V30 44 H 2.386836 5.603170 -2.913557 0
M  V30 45 H 0.373032 3.980891 -2.772092 0
M  V30 46 H 0.028308 5.715138 -0.828433 0
M  V30 47 H -0.407591 4.024184 -0.603124 0
M  V30 48 H 0.937525 3.948488 1.200951 0
M  V30 49 H 1.559213 5.549474 0.815450 0
M  V30 50 H 3.694975 -2.008036 -2.004754 0
M  V30 51 H 2.670636 -4.103171 -2.970873 0
M  V30 52 H -2.909348 -3.421436 -3.242343 0
M  V30 53 H -1.484646 -4.502782 -2.838834 0
M  V30 54 H -3.721302 -5.067271 -1.841027 0
M  V30 55 H -2.286050 -4.997700 -0.728727 0
M  V30 56 H -4.788152 -3.685533 -0.414950 0
M  V30 57 H -3.446365 -4.487821 1.326740 0
M  V30 58 H -2.122170 -3.259403 0.972047 0
M  V30 59 H -5.340851 -3.925434 2.340410 0
M  V30 60 H -5.863779 -2.730151 1.036561 0
M  V30 61 H -6.055554 -2.565306 4.010973 0
M  V30 62 H -6.853731 -1.545013 2.771310 0
M  V30 63 H -3.997296 -1.715388 4.964705 0
M  V30 64 H -3.079609 -0.530473 3.896767 0
M  V30 65 H -2.182279 -2.519834 3.056801 0
M  V30 66 H -3.609323 -3.486091 3.619766 0
M  V30 67 H -4.049201 -1.314911 -0.160087 0
M  V30 68 H -4.343826 -1.853074 -1.838315 0
M  V30 69 H -1.729277 -1.200976 -0.390014 0
M  V30 70 H -2.288701 -0.626017 -1.974520 0
M  V30 71 H 5.042000 -1.444839 -0.125614 0
M  V30 72 H 5.907051 -3.088289 1.406897 0
M  V30 END ATOM
M  V30 BEGIN BOND
M  V30 1 1 1 2
M  V30 2 2 2 3
M  V30 3 1 3 4
M  V30 4 2 4 5
M  V30 5 1 5 6
M  V30 6 1 6 7
M  V30 7 2 7 8
M  V30 8 1 8 9
M  V30 9 1 9 10
M  V30 10 1 10 11
M  V30 11 1 11 12
M  V30 12 1 12 13
M  V30 13 1 13 14
M  V30 14 1 8 15
M  V30 15 1 15 16
M  V30 16 1 16 17
M  V30 17 2 17 18
M  V30 18 1 18 19
M  V30 19 2 19 20
M  V30 20 1 20 21
M  V30 21 1 21 22
M  V30 22 1 22 23
M  V30 23 1 23 24
M  V30 24 1 24 25
M  V30 25 1 25 26
M  V30 26 1 26 27
M  V30 27 1 27 28
M  V30 28 1 28 29
M  V30 29 1 29 30
M  V30 30 1 30 31
M  V30 31 1 31 32
M  V30 32 1 25 33
M  V30 33 1 33 34
M  V30 34 2 21 35
M  V30 35 1 5 36
M  V30 36 2 36 37
M  V30 37 1 37 2
M  V30 38 2 16 6
M  V30 39 1 35 17
M  V30 40 1 14 9
M  V30 41 1 34 22
M  V30 42 1 32 27
M  V30 43 1 3 38
M  V30 44 1 4 39
M  V30 45 1 9 40
M  V30 46 1 10 41
M  V30 47 1 10 42
M  V30 48 1 11 43
M  V30 49 1 11 44
M  V30 50 1 12 45
M  V30 51 1 13 46
M  V30 52 1 13 47
M  V30 53 1 14 48
M  V30 54 1 14 49
M  V30 55 1 18 50
M  V30 56 1 19 51
M  V30 57 1 23 52
M  V30 58 1 23 53
M  V30 59 1 24 54
M  V30 60 1 24 55
M  V30 61 1 25 56
M  V30 62 1 26 57
M  V30 63 1 26 58
M  V30 64 1 28 59
M  V30 65 1 28 60
M  V30 66 1 29 61
M  V30 67 1 29 62
M  V30 68 1 31 63
M  V30 69 1 31 64
M  V30 70 1 32 65
M  V30 71 1 32 66
M  V30 72 1 33 67
M  V30 73 1 33 68
M  V30 74 1 34 69
M  V30 75 1 34 70
M  V30 76 1 36 71
M  V30 77 1 37 72
M  V30 END BOND
M  V30 END CTAB
M  END
>  <Dataset>  (889) 
ChEMBL_Kinases

>  <Ligand_Instance>  (889) 
nan

>  <PDB_ID>  (889) 
nan

>  <Standardized_SMILES>  (889) 
Fc1ccc(-c2nc(C3CCNCC3)sc2-c2ccnc(N3CCC(CN4CCOCC4)CC3)n2)cc1

>  <Name>  (889) 
nan

>  <Pocket>  (889) 
nan

>  <ATP_Site>  (889) 
nan

>  <Peripheral>  (889) 
nan

>  <Num_H_Atoms_ProtBoundConf>  (889) 
nan

>  <Num_Resolved_Atoms>  (889) 
nan

>  <Num_Not_Resolved_Atoms>  (889) 
nan

$$$$
CHEMBL4446448
     RDKit          3D

  0  0  0  0  0  0  0  0  0  0999 V3000
M  V30 BEGIN CTAB
M  V30 COUNTS 32 34 0 0 0
M  V30 BEGIN ATOM
M  V30 1 C -1.273856 -2.735357 4.284351 0
M  V30 2 C -0.565882 -2.225329 3.051553 0
M  V30 3 N -1.289419 -1.079741 2.551440 0
M  V30 4 C -0.754073 -0.470204 1.383027 0
M  V30 5 N 0.339476 -0.904588 0.769527 0
M  V30 6 C 0.890457 -0.370225 -0.334809 0
M  V30 7 C 2.103718 -0.955682 -0.906185 0
M  V30 8 C 2.653625 -0.390951 -2.041480 0
M  V30 9 C 3.811584 -0.971080 -2.564260 0
M  V30 10 N 4.366465 -2.047539 -1.971833 0
M  V30 11 C 3.784093 -2.558999 -0.860949 0
M  V30 12 C 2.631713 -2.055351 -0.262895 0
M  V30 13 N 0.303427 0.718168 -0.908379 0
M  V30 14 C -0.828297 1.252011 -0.362459 0
M  V30 15 C -1.446078 2.353809 -0.920045 0
M  V30 16 N -2.577021 2.875803 -0.362398 0
M  V30 17 C -3.074163 2.301435 0.731389 0
M  V30 18 C -2.454681 1.206665 1.279886 0
M  V30 19 C -1.313000 0.630319 0.769097 0
M  V30 20 H -1.273389 -1.941692 5.062186 0
M  V30 21 H -2.327357 -2.928120 3.998462 0
M  V30 22 H -0.765973 -3.651765 4.658337 0
M  V30 23 H -0.551893 -3.072435 2.331109 0
M  V30 24 H 0.495585 -1.977647 3.246841 0
M  V30 25 H -2.142195 -0.758266 3.048119 0
M  V30 26 H 2.163327 0.481550 -2.481909 0
M  V30 27 H 4.163551 -0.457749 -3.451234 0
M  V30 28 H 4.296894 -3.421596 -0.453039 0
M  V30 29 H 2.223080 -2.510510 0.618222 0
M  V30 30 H -0.977335 2.765245 -1.813966 0
M  V30 31 H -3.977232 2.736896 1.156992 0
M  V30 32 H -2.937266 0.818628 2.162678 0
M  V30 END ATOM
M  V30 BEGIN BOND
M  V30 1 1 1 2
M  V30 2 1 2 3
M  V30 3 1 3 4
M  V30 4 2 4 5
M  V30 5 1 5 6
M  V30 6 1 6 7
M  V30 7 2 7 8
M  V30 8 1 8 9
M  V30 9 2 9 10
M  V30 10 1 10 11
M  V30 11 2 11 12
M  V30 12 2 6 13
M  V30 13 1 13 14
M  V30 14 2 14 15
M  V30 15 1 15 16
M  V30 16 2 16 17
M  V30 17 1 17 18
M  V30 18 2 18 19
M  V30 19 1 19 4
M  V30 20 1 12 7
M  V30 21 1 19 14
M  V30 22 1 1 20
M  V30 23 1 1 21
M  V30 24 1 1 22
M  V30 25 1 2 23
M  V30 26 1 2 24
M  V30 27 1 3 25
M  V30 28 1 8 26
M  V30 29 1 9 27
M  V30 30 1 11 28
M  V30 31 1 12 29
M  V30 32 1 15 30
M  V30 33 1 17 31
M  V30 34 1 18 32
M  V30 END BOND
M  V30 END CTAB
M  END
>  <Dataset>  (890) 
ChEMBL_Kinases

>  <Ligand_Instance>  (890) 
nan

>  <PDB_ID>  (890) 
nan

>  <Standardized_SMILES>  (890) 
CCNc1nc(-c2ccncc2)nc2cnccc12

>  <Name>  (890) 
nan

>  <Pocket>  (890) 
nan

>  <ATP_Site>  (890) 
nan

>  <Peripheral>  (890) 
nan

>  <Num_H_Atoms_ProtBoundConf>  (890) 
nan

>  <Num_Resolved_Atoms>  (890) 
nan

>  <Num_Not_Resolved_Atoms>  (890) 
nan

$$$$
CHEMBL4446447
     RDKit          3D

  0  0  0  0  0  0  0  0  0  0999 V3000
M  V30 BEGIN CTAB
M  V30 COUNTS 27 28 0 0 0
M  V30 BEGIN ATOM
M  V30 1 N 2.718724 -3.442712 0.270767 0
M  V30 2 C 2.143954 -3.174790 1.526781 0
M  V30 3 N 2.522902 -4.005508 2.540267 0
M  V30 4 C 2.009571 -3.806665 3.775861 0
M  V30 5 C 1.108409 -2.794628 4.078356 0
M  V30 6 N 0.753894 -1.988412 3.048394 0
M  V30 7 C 1.250506 -2.164651 1.807642 0
M  V30 8 C 0.865122 -1.293446 0.702692 0
M  V30 9 O 1.368959 -1.517129 -0.429624 0
M  V30 10 N -0.043950 -0.248748 0.940800 0
M  V30 11 C -0.606172 0.749447 0.096840 0
M  V30 12 C 0.012729 1.993163 -0.077359 0
M  V30 13 C -0.598485 2.920555 -0.920595 0
M  V30 14 C -1.781366 2.599620 -1.556045 0
M  V30 15 O -2.329807 3.573650 -2.379507 0
M  V30 16 C -2.392420 1.370872 -1.383672 0
M  V30 17 C -1.796848 0.442340 -0.550305 0
M  V30 18 H 3.649378 -3.140687 -0.083071 0
M  V30 19 H 2.298284 -3.995260 -0.519261 0
M  V30 20 H 2.286904 -4.451106 4.620322 0
M  V30 21 H 0.722848 -2.669578 5.074871 0
M  V30 22 H -0.488532 -0.029080 1.877160 0
M  V30 23 H 0.936166 2.162608 0.456919 0
M  V30 24 H -0.115729 3.876381 -1.049749 0
M  V30 25 H -3.043362 4.225582 -2.055467 0
M  V30 26 H -3.322773 1.195206 -1.919625 0
M  V30 27 H -2.283245 -0.531384 -0.415157 0
M  V30 END ATOM
M  V30 BEGIN BOND
M  V30 1 1 1 2
M  V30 2 2 2 3
M  V30 3 1 3 4
M  V30 4 2 4 5
M  V30 5 1 5 6
M  V30 6 2 6 7
M  V30 7 1 7 8
M  V30 8 2 8 9
M  V30 9 1 8 10
M  V30 10 1 10 11
M  V30 11 2 11 12
M  V30 12 1 12 13
M  V30 13 2 13 14
M  V30 14 1 14 15
M  V30 15 1 14 16
M  V30 16 2 16 17
M  V30 17 1 7 2
M  V30 18 1 17 11
M  V30 19 1 1 18
M  V30 20 1 1 19
M  V30 21 1 4 20
M  V30 22 1 5 21
M  V30 23 1 10 22
M  V30 24 1 12 23
M  V30 25 1 13 24
M  V30 26 1 15 25
M  V30 27 1 16 26
M  V30 28 1 17 27
M  V30 END BOND
M  V30 END CTAB
M  END
>  <Dataset>  (891) 
ChEMBL_Kinases

>  <Ligand_Instance>  (891) 
nan

>  <PDB_ID>  (891) 
nan

>  <Standardized_SMILES>  (891) 
Nc1nccnc1C(=O)Nc1ccc(O)cc1

>  <Name>  (891) 
nan

>  <Pocket>  (891) 
nan

>  <ATP_Site>  (891) 
nan

>  <Peripheral>  (891) 
nan

>  <Num_H_Atoms_ProtBoundConf>  (891) 
nan

>  <Num_Resolved_Atoms>  (891) 
nan

>  <Num_Not_Resolved_Atoms>  (891) 
nan

$$$$
CHEMBL4750047
     RDKit          3D

  0  0  0  0  0  0  0  0  0  0999 V3000
M  V30 BEGIN CTAB
M  V30 COUNTS 51 56 0 0 0
M  V30 BEGIN ATOM
M  V30 1 C -2.542606 -2.676087 0.406314 0
M  V30 2 C -1.791382 -3.861963 -0.027721 0
M  V30 3 C -0.568307 -3.596182 -0.607462 0
M  V30 4 C 0.098892 -2.324243 -0.856290 0
M  V30 5 C 0.624637 -2.205855 -2.150331 0
M  V30 6 C 1.309921 -1.111821 -2.632883 0
M  V30 7 C 1.486182 -0.050389 -1.757261 0
M  V30 8 C 0.972707 -0.155658 -0.481168 0
M  V30 9 C 0.294619 -1.256765 -0.029157 0
M  V30 10 C 1.277543 1.058890 0.262836 0
M  V30 11 C 1.001555 1.493886 1.464662 0
M  V30 12 C 1.381232 2.749063 2.097484 0
M  V30 13 C 2.679908 3.264845 2.167350 0
M  V30 14 C 2.694666 4.480962 2.809467 0
M  V30 15 C 3.688907 5.391360 3.135441 0
M  V30 16 C 3.389006 6.559105 3.800943 0
M  V30 17 C 2.078742 6.813606 4.141811 0
M  V30 18 C 1.088152 5.895886 3.811751 0
M  V30 19 C 1.357660 4.715638 3.144177 0
M  V30 20 N 0.611417 3.670840 2.708006 0
M  V30 21 C 2.018230 1.890123 -0.694780 0
M  V30 22 O 2.506393 3.020613 -0.572604 0
M  V30 23 N 2.140931 1.204390 -1.925338 0
M  V30 24 C 0.140845 -4.737921 -1.016608 0
M  V30 25 N -0.255804 -6.041801 -0.897420 0
M  V30 26 C -1.456337 -6.253718 -0.326427 0
M  V30 27 C -2.188383 -5.158473 0.091259 0
M  V30 28 N -3.464855 -5.415478 0.690979 0
M  V30 29 C -4.225128 -6.616319 0.434333 0
M  V30 30 C -3.420767 -7.714451 -0.173313 0
M  V30 31 O -2.026963 -7.489469 -0.119044 0
M  V30 32 H -2.297561 -1.769783 -0.162909 0
M  V30 33 H -3.621568 -2.799381 0.512959 0
M  V30 34 H -2.187997 -2.465117 1.460058 0
M  V30 35 H 0.520690 -3.009242 -2.893880 0
M  V30 36 H 1.695295 -1.062561 -3.632944 0
M  V30 37 H -0.112987 -1.356022 0.954633 0
M  V30 38 H 0.400708 0.813334 2.074367 0
M  V30 39 H 3.627674 2.852435 1.817842 0
M  V30 40 H 4.729770 5.178218 2.857840 0
M  V30 41 H 4.231119 7.217008 4.017146 0
M  V30 42 H 1.918408 7.741783 4.658428 0
M  V30 43 H 0.094031 6.145373 4.099504 0
M  V30 44 H -0.437088 3.598546 2.835146 0
M  V30 45 H 2.603803 1.496120 -2.819004 0
M  V30 46 H 1.128952 -4.669115 -1.493005 0
M  V30 47 H -3.829568 -4.674654 1.338296 0
M  V30 48 H -4.687989 -6.959090 1.376864 0
M  V30 49 H -5.093583 -6.409517 -0.247231 0
M  V30 50 H -3.646746 -8.680822 0.327135 0
M  V30 51 H -3.689274 -7.856838 -1.255591 0
M  V30 END ATOM
M  V30 BEGIN BOND
M  V30 1 1 1 2
M  V30 2 2 2 3
M  V30 3 1 3 4
M  V30 4 2 4 5
M  V30 5 1 5 6
M  V30 6 2 6 7
M  V30 7 1 7 8
M  V30 8 2 8 9
M  V30 9 1 8 10
M  V30 10 2 10 11
M  V30 11 1 11 12
M  V30 12 2 12 13
M  V30 13 1 13 14
M  V30 14 2 14 15
M  V30 15 1 15 16
M  V30 16 2 16 17
M  V30 17 1 17 18
M  V30 18 2 18 19
M  V30 19 1 19 20
M  V30 20 1 10 21
M  V30 21 2 21 22
M  V30 22 1 21 23
M  V30 23 1 3 24
M  V30 24 2 24 25
M  V30 25 1 25 26
M  V30 26 2 26 27
M  V30 27 1 27 28
M  V30 28 1 28 29
M  V30 29 1 29 30
M  V30 30 1 30 31
M  V30 31 1 27 2
M  V30 32 1 9 4
M  V30 33 1 20 12
M  V30 34 1 31 26
M  V30 35 1 23 7
M  V30 36 1 19 14
M  V30 37 1 1 32
M  V30 38 1 1 33
M  V30 39 1 1 34
M  V30 40 1 5 35
M  V30 41 1 6 36
M  V30 42 1 9 37
M  V30 43 1 11 38
M  V30 44 1 13 39
M  V30 45 1 15 40
M  V30 46 1 16 41
M  V30 47 1 17 42
M  V30 48 1 18 43
M  V30 49 1 20 44
M  V30 50 1 23 45
M  V30 51 1 24 46
M  V30 52 1 28 47
M  V30 53 1 29 48
M  V30 54 1 29 49
M  V30 55 1 30 50
M  V30 56 1 30 51
M  V30 END BOND
M  V30 END CTAB
M  END
>  <Dataset>  (892) 
ChEMBL_Kinases

>  <Ligand_Instance>  (892) 
nan

>  <PDB_ID>  (892) 
nan

>  <Standardized_SMILES>  (892) 
Cc1c(-c2ccc3c(c2)/C(=C/c2cc4ccccc4[nH]2)C(=O)N3)cnc2c1NCCO2

>  <Name>  (892) 
nan

>  <Pocket>  (892) 
nan

>  <ATP_Site>  (892) 
nan

>  <Peripheral>  (892) 
nan

>  <Num_H_Atoms_ProtBoundConf>  (892) 
nan

>  <Num_Resolved_Atoms>  (892) 
nan

>  <Num_Not_Resolved_Atoms>  (892) 
nan

$$$$
CHEMBL4750074
     RDKit          3D

  0  0  0  0  0  0  0  0  0  0999 V3000
M  V30 BEGIN CTAB
M  V30 COUNTS 62 66 0 0 0
M  V30 BEGIN ATOM
M  V30 1 O 2.288126 -3.301975 4.362205 0
M  V30 2 S 1.684931 -2.600779 3.188498 0
M  V30 3 O 0.771373 -3.541816 2.471233 0
M  V30 4 N 2.885710 -2.071280 2.063527 0
M  V30 5 C 3.859791 -1.221755 2.676510 0
M  V30 6 C 4.890190 -0.787929 1.631839 0
M  V30 7 N 4.176076 -0.070182 0.595191 0
M  V30 8 C 3.161713 -0.236512 -0.369920 0
M  V30 9 C 1.807493 -0.046292 -0.192022 0
M  V30 10 C 0.933053 -0.247185 -1.250700 0
M  V30 11 C -0.497310 -0.045457 -1.043639 0
M  V30 12 N -1.267739 0.980841 -0.643529 0
M  V30 13 C -2.558084 0.605578 -0.627678 0
M  V30 14 C -3.692414 1.442075 -0.248056 0
M  V30 15 C -4.994685 0.980487 -0.259114 0
M  V30 16 C -6.044820 1.824539 0.115522 0
M  V30 17 C -5.817743 3.132360 0.504328 0
M  V30 18 C -4.525974 3.588544 0.514619 0
M  V30 19 C -3.477921 2.748975 0.141769 0
M  V30 20 N -2.604270 -0.678252 -1.024026 0
M  V30 21 C -1.356330 -1.122468 -1.291565 0
M  V30 22 C -1.164363 -2.499733 -1.744849 0
M  V30 23 C -0.434996 -3.465394 -1.062628 0
M  V30 24 C -0.294944 -4.748255 -1.548574 0
M  V30 25 C -0.894236 -5.091781 -2.748119 0
M  V30 26 C -1.643820 -4.175180 -3.492268 0
M  V30 27 O -2.254319 -4.485066 -4.691750 0
M  V30 28 C -1.734121 -2.915093 -2.935628 0
M  V30 29 C 1.453068 -0.636058 -2.463627 0
M  V30 30 C 2.808988 -0.819461 -2.615690 0
M  V30 31 N 3.614379 -0.616504 -1.575522 0
M  V30 32 C 0.845927 -1.187340 3.797518 0
M  V30 33 C -0.287930 -0.720876 3.139871 0
M  V30 34 C -0.985823 0.389376 3.577370 0
M  V30 35 C -0.555999 1.074202 4.708203 0
M  V30 36 C 0.567940 0.625638 5.374352 0
M  V30 37 F 1.048929 1.238138 6.483132 0
M  V30 38 C 1.253403 -0.494813 4.914061 0
M  V30 39 H 3.298492 -2.893939 1.599650 0
M  V30 40 H 3.312252 -0.342444 3.072773 0
M  V30 41 H 4.359298 -1.679279 3.550020 0
M  V30 42 H 5.661961 -0.157375 2.093872 0
M  V30 43 H 5.360941 -1.675726 1.157930 0
M  V30 44 H 4.441148 0.946267 0.432339 0
M  V30 45 H 1.494663 0.259725 0.798954 0
M  V30 46 H -0.832177 1.892699 -0.403644 0
M  V30 47 H -5.202179 -0.045927 -0.561438 0
M  V30 48 H -7.069436 1.426999 0.096063 0
M  V30 49 H -6.653704 3.771591 0.792553 0
M  V30 50 H -4.278788 4.606925 0.809676 0
M  V30 51 H -2.462398 3.120746 0.153633 0
M  V30 52 H 0.011017 -3.146143 -0.136145 0
M  V30 53 H 0.285945 -5.458597 -0.971408 0
M  V30 54 H -0.783774 -6.101259 -3.129391 0
M  V30 55 H -1.770305 -4.698299 -5.553254 0
M  V30 56 H -2.317452 -2.206462 -3.515787 0
M  V30 57 H 0.743593 -0.788184 -3.284651 0
M  V30 58 H 3.114082 -1.128367 -3.619739 0
M  V30 59 H -0.690251 -1.196902 2.250400 0
M  V30 60 H -1.872995 0.779423 3.089181 0
M  V30 61 H -1.044840 1.956040 5.120637 0
M  V30 62 H 2.130478 -0.867066 5.410636 0
M  V30 END ATOM
M  V30 BEGIN BOND
M  V30 1 2 1 2
M  V30 2 2 2 3
M  V30 3 1 2 4
M  V30 4 1 4 5
M  V30 5 1 5 6
M  V30 6 1 6 7
M  V30 7 1 7 8
M  V30 8 2 8 9
M  V30 9 1 9 10
M  V30 10 1 10 11
M  V30 11 1 11 12
M  V30 12 1 12 13
M  V30 13 1 13 14
M  V30 14 2 14 15
M  V30 15 1 15 16
M  V30 16 2 16 17
M  V30 17 1 17 18
M  V30 18 2 18 19
M  V30 19 2 13 20
M  V30 20 1 20 21
M  V30 21 1 21 22
M  V30 22 2 22 23
M  V30 23 1 23 24
M  V30 24 2 24 25
M  V30 25 1 25 26
M  V30 26 1 26 27
M  V30 27 2 26 28
M  V30 28 2 10 29
M  V30 29 1 29 30
M  V30 30 2 30 31
M  V30 31 1 2 32
M  V30 32 2 32 33
M  V30 33 1 33 34
M  V30 34 2 34 35
M  V30 35 1 35 36
M  V30 36 1 36 37
M  V30 37 2 36 38
M  V30 38 1 31 8
M  V30 39 1 38 32
M  V30 40 2 21 11
M  V30 41 1 28 22
M  V30 42 1 19 14
M  V30 43 1 4 39
M  V30 44 1 5 40
M  V30 45 1 5 41
M  V30 46 1 6 42
M  V30 47 1 6 43
M  V30 48 1 7 44
M  V30 49 1 9 45
M  V30 50 1 12 46
M  V30 51 1 15 47
M  V30 52 1 16 48
M  V30 53 1 17 49
M  V30 54 1 18 50
M  V30 55 1 19 51
M  V30 56 1 23 52
M  V30 57 1 24 53
M  V30 58 1 25 54
M  V30 59 1 27 55
M  V30 60 1 28 56
M  V30 61 1 29 57
M  V30 62 1 30 58
M  V30 63 1 33 59
M  V30 64 1 34 60
M  V30 65 1 35 61
M  V30 66 1 38 62
M  V30 END BOND
M  V30 END CTAB
M  END
>  <Dataset>  (893) 
ChEMBL_Kinases

>  <Ligand_Instance>  (893) 
nan

>  <PDB_ID>  (893) 
nan

>  <Standardized_SMILES>  (893) 
O=S(=O)(NCCNc1cc(-c2[nH]c(-c3ccccc3)nc2-c2cccc(O)c2)ccn1)c1cccc(F)c1

>  <Name>  (893) 
nan

>  <Pocket>  (893) 
nan

>  <ATP_Site>  (893) 
nan

>  <Peripheral>  (893) 
nan

>  <Num_H_Atoms_ProtBoundConf>  (893) 
nan

>  <Num_Resolved_Atoms>  (893) 
nan

>  <Num_Not_Resolved_Atoms>  (893) 
nan

$$$$
CHEMBL4750093
     RDKit          3D

  0  0  0  0  0  0  0  0  0  0999 V3000
M  V30 BEGIN CTAB
M  V30 COUNTS 49 52 0 0 0
M  V30 BEGIN ATOM
M  V30 1 C 5.376916 -7.027092 -0.858977 0
M  V30 2 C 5.229287 -5.854989 0.053741 0
M  V30 3 C 6.152274 -5.559835 1.020481 0
M  V30 4 C 5.935836 -4.461346 1.816165 0
M  V30 5 C 4.789689 -3.686543 1.614991 0
M  V30 6 N 3.891553 -4.012357 0.640488 0
M  V30 7 C 2.812601 -3.084569 0.624771 0
M  V30 8 C 3.133515 -1.735263 0.519711 0
M  V30 9 C 2.081416 -0.833796 0.504585 0
M  V30 10 C 0.761248 -1.247822 0.589933 0
M  V30 11 C -0.214536 -0.155008 0.558625 0
M  V30 12 C -1.288737 -0.090458 1.428158 0
M  V30 13 C -2.182045 0.952556 1.366205 0
M  V30 14 C -1.994551 1.931001 0.429140 0
M  V30 15 C -2.790777 3.033474 0.236892 0
M  V30 16 C -3.979984 3.632088 0.782101 0
M  V30 17 O -4.440932 4.728468 0.303926 0
M  V30 18 N -4.888599 3.327034 1.806946 0
M  V30 19 C -6.059364 3.931351 2.319772 0
M  V30 20 C -7.224726 4.067082 1.384260 0
M  V30 21 O -6.961447 4.828486 0.261961 0
M  V30 22 N -2.168208 3.669206 -0.801238 0
M  V30 23 N -1.113909 2.995330 -1.170258 0
M  V30 24 C -0.931249 1.881444 -0.442950 0
M  V30 25 C -0.030591 0.836837 -0.386109 0
M  V30 26 C 0.462166 -2.593350 0.693801 0
M  V30 27 Cl -1.232173 -3.025397 0.796549 0
M  V30 28 C 1.498422 -3.508565 0.710545 0
M  V30 29 C 4.099566 -5.080730 -0.135304 0
M  V30 30 O 3.191480 -5.259346 -0.988550 0
M  V30 31 H 5.718686 -6.731800 -1.868452 0
M  V30 32 H 4.420493 -7.593155 -0.945203 0
M  V30 33 H 6.100297 -7.720821 -0.345957 0
M  V30 34 H 7.026521 -6.180807 1.147721 0
M  V30 35 H 6.670329 -4.239196 2.574296 0
M  V30 36 H 4.724738 -2.844305 2.302599 0
M  V30 37 H 4.163794 -1.381790 0.451038 0
M  V30 38 H 2.374702 0.218496 0.420770 0
M  V30 39 H -1.429107 -0.872431 2.169022 0
M  V30 40 H -2.990376 0.959099 2.053496 0
M  V30 41 H -4.606899 2.425282 2.296837 0
M  V30 42 H -6.443612 3.291551 3.170368 0
M  V30 43 H -5.857437 4.915754 2.826934 0
M  V30 44 H -8.071083 4.605188 1.906680 0
M  V30 45 H -7.676765 3.079263 1.127014 0
M  V30 46 H -6.974693 5.774718 0.519526 0
M  V30 47 H -0.489053 3.301614 -1.948959 0
M  V30 48 H 0.773680 0.848921 -1.085144 0
M  V30 49 H 1.244542 -4.560921 0.792653 0
M  V30 END ATOM
M  V30 BEGIN BOND
M  V30 1 1 1 2
M  V30 2 2 2 3
M  V30 3 1 3 4
M  V30 4 2 4 5
M  V30 5 1 5 6
M  V30 6 1 6 7
M  V30 7 2 7 8
M  V30 8 1 8 9
M  V30 9 2 9 10
M  V30 10 1 10 11
M  V30 11 2 11 12
M  V30 12 1 12 13
M  V30 13 2 13 14
M  V30 14 1 14 15
M  V30 15 1 15 16
M  V30 16 2 16 17
M  V30 17 1 16 18
M  V30 18 1 18 19
M  V30 19 1 19 20
M  V30 20 1 20 21
M  V30 21 2 15 22
M  V30 22 1 22 23
M  V30 23 1 23 24
M  V30 24 2 24 25
M  V30 25 1 10 26
M  V30 26 1 26 27
M  V30 27 2 26 28
M  V30 28 1 6 29
M  V30 29 2 29 30
M  V30 30 1 29 2
M  V30 31 1 28 7
M  V30 32 1 25 11
M  V30 33 1 24 14
M  V30 34 1 1 31
M  V30 35 1 1 32
M  V30 36 1 1 33
M  V30 37 1 3 34
M  V30 38 1 4 35
M  V30 39 1 5 36
M  V30 40 1 8 37
M  V30 41 1 9 38
M  V30 42 1 12 39
M  V30 43 1 13 40
M  V30 44 1 18 41
M  V30 45 1 19 42
M  V30 46 1 19 43
M  V30 47 1 20 44
M  V30 48 1 20 45
M  V30 49 1 21 46
M  V30 50 1 23 47
M  V30 51 1 25 48
M  V30 52 1 28 49
M  V30 END BOND
M  V30 END CTAB
M  END
>  <Dataset>  (894) 
ChEMBL_Kinases

>  <Ligand_Instance>  (894) 
nan

>  <PDB_ID>  (894) 
nan

>  <Standardized_SMILES>  (894) 
Cc1cccn(-c2ccc(-c3ccc4c(C(=O)NCCO)n[nH]c4c3)c(Cl)c2)c1=O

>  <Name>  (894) 
nan

>  <Pocket>  (894) 
nan

>  <ATP_Site>  (894) 
nan

>  <Peripheral>  (894) 
nan

>  <Num_H_Atoms_ProtBoundConf>  (894) 
nan

>  <Num_Resolved_Atoms>  (894) 
nan

>  <Num_Not_Resolved_Atoms>  (894) 
nan

$$$$
CHEMBL4750120
     RDKit          3D

  0  0  0  0  0  0  0  0  0  0999 V3000
M  V30 BEGIN CTAB
M  V30 COUNTS 76 80 0 0 0
M  V30 BEGIN ATOM
M  V30 1 C 0.146087 -1.781230 5.341183 0
M  V30 2 C 1.058749 -2.809578 4.782773 0
M  V30 3 C 1.359726 -4.035266 5.322991 0
M  V30 4 C 2.225890 -4.913819 4.708759 0
M  V30 5 C 2.829044 -4.579412 3.507216 0
M  V30 6 C 3.751745 -5.463129 2.773208 0
M  V30 7 O 4.348821 -5.047298 1.726301 0
M  V30 8 N 4.019009 -6.785436 3.173994 0
M  V30 9 C 4.938579 -7.586817 2.392872 0
M  V30 10 C 4.530783 -8.960229 1.977784 0
M  V30 11 C 5.644204 -8.771169 2.969478 0
M  V30 12 C 2.540130 -3.335586 2.934600 0
M  V30 13 C 1.654505 -2.465225 3.584031 0
M  V30 14 N 1.467865 -1.237149 2.841791 0
M  V30 15 C 2.131366 -0.083386 3.011957 0
M  V30 16 C 1.825960 0.992954 2.213345 0
M  V30 17 N 0.869027 0.820709 1.299519 0
M  V30 18 C 0.207375 -0.330502 1.129971 0
M  V30 19 N -0.777094 -0.333161 0.070780 0
M  V30 20 C -1.362863 0.581037 -0.936572 0 CFG=1
M  V30 21 C -2.134164 -0.295137 -1.914611 0
M  V30 22 C -3.477194 -0.588823 -1.863395 0
M  V30 23 C -4.078502 -1.393918 -2.803013 0
M  V30 24 C -3.346900 -1.939556 -3.838910 0
M  V30 25 C -2.003381 -1.672814 -3.928232 0
M  V30 26 C -1.436947 -0.872737 -2.983788 0
M  V30 27 C -2.289805 1.574849 -0.354576 0 CFG=1
M  V30 28 C -1.597021 2.453261 0.681073 0
M  V30 29 C -2.899191 2.489676 -1.378382 0
M  V30 30 N -2.067595 3.318492 -2.112778 0
M  V30 31 C -1.180988 2.940397 -3.100442 0
M  V30 32 C -1.204510 3.859048 -4.328667 0
M  V30 33 N -1.160530 5.242322 -3.988228 0
M  V30 34 C -2.211151 5.575497 -3.070396 0 CFG=1
M  V30 35 C -3.575234 5.671961 -3.679187 0
M  V30 36 C -2.165586 4.725269 -1.836564 0
M  V30 37 C 0.506602 -1.425223 1.930147 0
M  V30 38 O -0.147588 -2.477184 1.723479 0
M  V30 39 H -0.418831 -1.291845 4.522141 0
M  V30 40 H 0.790534 -1.020471 5.840819 0
M  V30 41 H -0.514063 -2.190917 6.137861 0
M  V30 42 H 0.873779 -4.262799 6.257905 0
M  V30 43 H 2.454508 -5.876225 5.144006 0
M  V30 44 H 3.566606 -7.193809 4.022290 0
M  V30 45 H 5.507010 -7.043640 1.595764 0
M  V30 46 H 3.612215 -9.423104 2.411330 0
M  V30 47 H 4.710285 -9.276841 0.945377 0
M  V30 48 H 6.643961 -9.053513 2.608462 0
M  V30 49 H 5.442893 -9.035327 4.037853 0
M  V30 50 H 3.024144 -3.094711 1.994959 0
M  V30 51 H 2.878788 -0.097570 3.792126 0
M  V30 52 H 2.400747 1.866200 2.417456 0
M  V30 53 H -1.200202 -1.298241 0.022391 0
M  V30 54 H -0.539455 1.018255 -1.502356 0
M  V30 55 H -4.043238 -0.178299 -1.061897 0
M  V30 56 H -5.147538 -1.583201 -2.698540 0
M  V30 57 H -3.805404 -2.577164 -4.588492 0
M  V30 58 H -1.409497 -2.088848 -4.731700 0
M  V30 59 H -0.364278 -0.686019 -3.093189 0
M  V30 60 H -3.098398 1.058876 0.219837 0
M  V30 61 H -0.653886 2.877714 0.347885 0
M  V30 62 H -1.611598 1.924539 1.638842 0
M  V30 63 H -2.302811 3.337985 0.818723 0
M  V30 64 H -3.538928 1.869674 -2.104816 0
M  V30 65 H -3.719840 3.075274 -0.832017 0
M  V30 66 H -0.108907 2.909495 -2.735386 0
M  V30 67 H -1.398616 1.945288 -3.507861 0
M  V30 68 H -0.291726 3.607449 -4.905991 0
M  V30 69 H -2.121114 3.614244 -4.871263 0
M  V30 70 H -0.260987 5.483931 -3.508736 0
M  V30 71 H -1.963795 6.621540 -2.713805 0
M  V30 72 H -4.275391 4.900712 -3.327536 0
M  V30 73 H -3.458462 5.485940 -4.787913 0
M  V30 74 H -4.022319 6.688335 -3.616265 0
M  V30 75 H -1.281296 5.033947 -1.251354 0
M  V30 76 H -3.061511 4.911629 -1.228969 0
M  V30 END ATOM
M  V30 BEGIN BOND
M  V30 1 1 1 2
M  V30 2 2 2 3
M  V30 3 1 3 4
M  V30 4 2 4 5
M  V30 5 1 5 6
M  V30 6 2 6 7
M  V30 7 1 6 8
M  V30 8 1 8 9
M  V30 9 1 9 10
M  V30 10 1 10 11
M  V30 11 1 5 12
M  V30 12 2 12 13
M  V30 13 1 13 14
M  V30 14 1 14 15
M  V30 15 2 15 16
M  V30 16 1 16 17
M  V30 17 2 17 18
M  V30 18 1 18 19
M  V30 19 1 19 20
M  V30 20 1 20 21
M  V30 21 2 21 22
M  V30 22 1 22 23
M  V30 23 2 23 24
M  V30 24 1 24 25
M  V30 25 2 25 26
M  V30 26 1 20 27
M  V30 27 1 27 28
M  V30 28 1 27 29
M  V30 29 1 29 30
M  V30 30 1 30 31
M  V30 31 1 31 32
M  V30 32 1 32 33
M  V30 33 1 33 34
M  V30 34 1 34 35
M  V30 35 1 34 36
M  V30 36 1 18 37
M  V30 37 2 37 38
M  V30 38 1 13 2
M  V30 39 1 37 14
M  V30 40 1 11 9
M  V30 41 1 26 21
M  V30 42 1 36 30
M  V30 43 1 1 39
M  V30 44 1 1 40
M  V30 45 1 1 41
M  V30 46 1 3 42
M  V30 47 1 4 43
M  V30 48 1 8 44
M  V30 49 1 9 45
M  V30 50 1 10 46
M  V30 51 1 10 47
M  V30 52 1 11 48
M  V30 53 1 11 49
M  V30 54 1 12 50
M  V30 55 1 15 51
M  V30 56 1 16 52
M  V30 57 1 19 53
M  V30 58 1 20 54 CFG=3
M  V30 59 1 22 55
M  V30 60 1 23 56
M  V30 61 1 24 57
M  V30 62 1 25 58
M  V30 63 1 26 59
M  V30 64 1 27 60 CFG=1
M  V30 65 1 28 61
M  V30 66 1 28 62
M  V30 67 1 28 63
M  V30 68 1 29 64
M  V30 69 1 29 65
M  V30 70 1 31 66
M  V30 71 1 31 67
M  V30 72 1 32 68
M  V30 73 1 32 69
M  V30 74 1 33 70
M  V30 75 1 34 71 CFG=1
M  V30 76 1 35 72
M  V30 77 1 35 73
M  V30 78 1 35 74
M  V30 79 1 36 75
M  V30 80 1 36 76
M  V30 END BOND
M  V30 END CTAB
M  END
>  <Dataset>  (895) 
ChEMBL_Kinases

>  <Ligand_Instance>  (895) 
nan

>  <PDB_ID>  (895) 
nan

>  <Standardized_SMILES>  (895) 
Cc1ccc(C(=O)NC2CC2)cc1-n1ccnc(N[C@@H](c2ccccc2)[C@@H](C)CN2CCN[C@@H](C)C2)c1=O

>  <Name>  (895) 
nan

>  <Pocket>  (895) 
nan

>  <ATP_Site>  (895) 
nan

>  <Peripheral>  (895) 
nan

>  <Num_H_Atoms_ProtBoundConf>  (895) 
nan

>  <Num_Resolved_Atoms>  (895) 
nan

>  <Num_Not_Resolved_Atoms>  (895) 
nan

$$$$
CHEMBL4750150
     RDKit          3D

  0  0  0  0  0  0  0  0  0  0999 V3000
M  V30 BEGIN CTAB
M  V30 COUNTS 77 81 0 0 0
M  V30 BEGIN ATOM
M  V30 1 C 1.490838 -4.606025 1.084203 0
M  V30 2 N 2.820397 -4.698676 0.536484 0
M  V30 3 C 3.022306 -3.947258 -0.645560 0
M  V30 4 C 4.487292 -3.619072 -0.845058 0
M  V30 5 N 5.081496 -2.975054 0.256040 0
M  V30 6 C 4.969519 -1.528653 0.316662 0
M  V30 7 C 5.812436 -0.927591 -0.762625 0
M  V30 8 C 5.797102 0.543126 -0.916865 0
M  V30 9 C 6.283216 1.459150 0.118821 0
M  V30 10 C 5.685099 1.485010 1.467839 0
M  V30 11 O 4.322514 1.684652 1.464613 0
M  V30 12 C 3.533558 2.681616 1.013941 0
M  V30 13 C 3.648275 3.902006 0.390467 0
M  V30 14 C 2.606624 4.716550 0.041814 0
M  V30 15 C 1.311536 4.286256 0.336974 0
M  V30 16 C 1.091033 3.075526 0.962816 0
M  V30 17 N -0.264722 2.677802 1.218921 0
M  V30 18 C -0.517393 1.841390 0.095350 0
M  V30 19 O -0.472281 1.230059 -0.973572 0
M  V30 20 S -2.102663 1.006358 0.419504 0
M  V30 21 C -2.525175 2.110460 1.796137 0
M  V30 22 C -3.680252 2.258945 2.433879 0
M  V30 23 C -4.788364 1.418231 1.984546 0
M  V30 24 C -4.463000 0.065915 1.819310 0
M  V30 25 C -5.362156 -0.918063 1.387196 0
M  V30 26 C -6.664101 -0.501215 1.108634 0
M  V30 27 O -7.492501 -1.529147 0.689673 0
M  V30 28 C -7.670236 -1.968473 -0.588807 0
M  V30 29 C -8.586293 -1.559963 -1.558668 0
M  V30 30 C -8.605455 -2.137396 -2.810436 0
M  V30 31 C -7.704697 -3.153317 -3.147658 0
M  V30 32 N -7.730450 -3.738435 -4.430094 0 CHG=1 VAL=4
M  V30 33 O -8.535471 -3.403430 -5.317083 0
M  V30 34 O -6.807552 -4.735935 -4.701129 0 CHG=-1 VAL=1
M  V30 35 C -6.784007 -3.587420 -2.222542 0
M  V30 36 C -6.792941 -2.984307 -0.972110 0
M  V30 37 C -6.991621 0.827239 1.268669 0
M  V30 38 C -6.086351 1.772510 1.695129 0
M  V30 39 C -1.332441 2.827294 2.131210 0
M  V30 40 O -1.043384 3.578094 3.097108 0
M  V30 41 C 2.207868 2.289442 1.293132 0
M  V30 42 C 4.829818 -3.618377 1.530270 0
M  V30 43 C 3.858976 -4.736436 1.498072 0
M  V30 44 H 1.447090 -5.267821 1.972264 0
M  V30 45 H 1.230436 -3.575017 1.409872 0
M  V30 46 H 0.706737 -4.926996 0.394805 0
M  V30 47 H 2.415590 -3.009132 -0.702530 0
M  V30 48 H 2.715166 -4.558111 -1.525260 0
M  V30 49 H 5.027548 -4.590826 -1.034607 0
M  V30 50 H 4.568981 -3.048375 -1.767598 0
M  V30 51 H 5.417140 -1.265300 1.302914 0
M  V30 52 H 3.918644 -1.168703 0.291091 0
M  V30 53 H 6.912060 -1.193106 -0.556527 0
M  V30 54 H 5.660042 -1.449605 -1.754015 0
M  V30 55 H 6.363945 0.779632 -1.893225 0
M  V30 56 H 4.722655 0.798122 -1.213988 0
M  V30 57 H 7.391546 1.175720 0.292297 0
M  V30 58 H 6.321286 2.496458 -0.327012 0
M  V30 59 H 6.025062 0.664897 2.093998 0
M  V30 60 H 6.181901 2.407339 1.967236 0
M  V30 61 H 4.697753 4.106395 0.231222 0
M  V30 62 H 2.881551 5.635863 -0.440068 0
M  V30 63 H 0.513708 4.932119 0.058963 0
M  V30 64 H -3.734425 2.981194 3.236935 0
M  V30 65 H -3.451470 -0.312874 2.038266 0
M  V30 66 H -5.024022 -1.935876 1.289288 0
M  V30 67 H -9.238449 -0.770331 -1.200168 0
M  V30 68 H -9.345096 -1.770922 -3.513870 0
M  V30 69 H -6.087926 -4.369382 -2.479616 0
M  V30 70 H -6.030919 -3.391444 -0.302904 0
M  V30 71 H -8.009065 1.100715 1.040975 0
M  V30 72 H -6.312203 2.807480 1.828253 0
M  V30 73 H 1.845145 1.366277 1.782983 0
M  V30 74 H 4.658799 -2.856058 2.317841 0
M  V30 75 H 5.835902 -4.055856 1.810290 0
M  V30 76 H 3.394821 -4.791161 2.521688 0
M  V30 77 H 4.385415 -5.721696 1.370677 0
M  V30 END ATOM
M  V30 BEGIN BOND
M  V30 1 1 1 2
M  V30 2 1 2 3
M  V30 3 1 3 4
M  V30 4 1 4 5
M  V30 5 1 5 6
M  V30 6 1 6 7
M  V30 7 1 7 8
M  V30 8 1 8 9
M  V30 9 1 9 10
M  V30 10 1 10 11
M  V30 11 1 11 12
M  V30 12 2 12 13
M  V30 13 1 13 14
M  V30 14 2 14 15
M  V30 15 1 15 16
M  V30 16 1 16 17
M  V30 17 1 17 18
M  V30 18 2 18 19
M  V30 19 1 18 20
M  V30 20 1 20 21
M  V30 21 2 21 22
M  V30 22 1 22 23
M  V30 23 2 23 24
M  V30 24 1 24 25
M  V30 25 2 25 26
M  V30 26 1 26 27
M  V30 27 1 27 28
M  V30 28 2 28 29
M  V30 29 1 29 30
M  V30 30 2 30 31
M  V30 31 1 31 32
M  V30 32 2 32 33
M  V30 33 1 32 34
M  V30 34 1 31 35
M  V30 35 2 35 36
M  V30 36 1 26 37
M  V30 37 2 37 38
M  V30 38 1 21 39
M  V30 39 2 39 40
M  V30 40 2 16 41
M  V30 41 1 5 42
M  V30 42 1 42 43
M  V30 43 1 43 2
M  V30 44 1 41 12
M  V30 45 1 39 17
M  V30 46 1 38 23
M  V30 47 1 36 28
M  V30 48 1 1 44
M  V30 49 1 1 45
M  V30 50 1 1 46
M  V30 51 1 3 47
M  V30 52 1 3 48
M  V30 53 1 4 49
M  V30 54 1 4 50
M  V30 55 1 6 51
M  V30 56 1 6 52
M  V30 57 1 7 53
M  V30 58 1 7 54
M  V30 59 1 8 55
M  V30 60 1 8 56
M  V30 61 1 9 57
M  V30 62 1 9 58
M  V30 63 1 10 59
M  V30 64 1 10 60
M  V30 65 1 13 61
M  V30 66 1 14 62
M  V30 67 1 15 63
M  V30 68 1 22 64
M  V30 69 1 24 65
M  V30 70 1 25 66
M  V30 71 1 29 67
M  V30 72 1 30 68
M  V30 73 1 35 69
M  V30 74 1 36 70
M  V30 75 1 37 71
M  V30 76 1 38 72
M  V30 77 1 41 73
M  V30 78 1 42 74
M  V30 79 1 42 75
M  V30 80 1 43 76
M  V30 81 1 43 77
M  V30 END BOND
M  V30 END CTAB
M  END
>  <Dataset>  (896) 
ChEMBL_Kinases

>  <Ligand_Instance>  (896) 
nan

>  <PDB_ID>  (896) 
nan

>  <Standardized_SMILES>  (896) 
CN1CCN(CCCCCOc2cccc(N3C(=O)S/C(=C\c4ccc(Oc5ccc([N+](=O)[O-])cc5)cc4)C3=O)c2)CC1

>  <Name>  (896) 
nan

>  <Pocket>  (896) 
nan

>  <ATP_Site>  (896) 
nan

>  <Peripheral>  (896) 
nan

>  <Num_H_Atoms_ProtBoundConf>  (896) 
nan

>  <Num_Resolved_Atoms>  (896) 
nan

>  <Num_Not_Resolved_Atoms>  (896) 
nan

$$$$
CHEMBL4750197
     RDKit          3D

  0  0  0  0  0  0  0  0  0  0999 V3000
M  V30 BEGIN CTAB
M  V30 COUNTS 84 88 0 0 0
M  V30 BEGIN ATOM
M  V30 1 N 5.301701 0.107416 6.041815 0
M  V30 2 C 5.643602 -1.174527 5.537287 0
M  V30 3 C 5.685322 -1.678806 4.230360 0
M  V30 4 C 5.345742 -0.830325 3.091390 0
M  V30 5 O 4.985633 0.346819 3.368847 0
M  V30 6 N 5.372012 -1.160983 1.729020 0
M  V30 7 C 5.016245 -0.242753 0.668073 0
M  V30 8 C 3.560886 -0.127473 0.456304 0
M  V30 9 C 2.988485 -0.934787 -0.542379 0
M  V30 10 C 1.656690 -0.977385 -0.896427 0
M  V30 11 C 0.783233 -0.153206 -0.212382 0
M  V30 12 C -0.646279 -0.098862 -0.561926 0
M  V30 13 O -1.394524 0.342488 0.385869 0
M  V30 14 N -1.083897 -0.501925 -1.834139 0
M  V30 15 C -2.536649 -0.379413 -2.020284 0 CFG=1
M  V30 16 C -2.822981 0.979777 -2.681736 0
M  V30 17 C -4.252425 1.250541 -2.922895 0
M  V30 18 C -5.134916 1.260668 -1.718254 0
M  V30 19 C -6.580480 1.554862 -2.086713 0
M  V30 20 C -6.677441 2.912943 -2.737955 0
M  V30 21 C -5.911458 3.967802 -2.002035 0
M  V30 22 C -5.408582 3.538198 -0.665079 0
M  V30 23 C -4.756488 2.185633 -0.622372 0
M  V30 24 C -3.126994 -1.502908 -2.754106 0
M  V30 25 O -4.335852 -1.697849 -3.059042 0
M  V30 26 N -2.334016 -2.584348 -3.247381 0
M  V30 27 C -2.757570 -3.758143 -3.991887 0
M  V30 28 C -3.011870 -3.390897 -5.430146 0
M  V30 29 C -4.201356 -3.020040 -5.997139 0
M  V30 30 C -4.239532 -2.707476 -7.336813 0
M  V30 31 C -3.123501 -2.746018 -8.167650 0
M  V30 32 Cl -3.276310 -2.327115 -9.864900 0
M  V30 33 C -1.913494 -3.115438 -7.622338 0
M  V30 34 C -1.900232 -3.426747 -6.262969 0
M  V30 35 C 1.292680 0.674742 0.794871 0
M  V30 36 C 2.635386 0.663211 1.091992 0
M  V30 37 C 6.086240 -3.012552 4.297819 0
M  V30 38 N 6.271659 -3.266372 5.615393 0
M  V30 39 N 6.017419 -2.206213 6.350423 0
M  V30 40 C 6.115831 -2.091910 7.783032 0
M  V30 41 C 7.252041 -1.370863 8.152305 0
M  V30 42 C 7.524899 -1.148398 9.463843 0
M  V30 43 C 6.707691 -1.616334 10.469992 0
M  V30 44 C 5.574799 -2.337661 10.076370 0
M  V30 45 C 5.285928 -2.569439 8.732652 0
M  V30 46 H 4.411452 0.649699 5.831737 0
M  V30 47 H 4.460641 0.696278 5.885198 0
M  V30 48 H 5.688300 -2.170240 1.560222 0
M  V30 49 H 5.502555 0.751400 0.802100 0
M  V30 50 H 5.466098 -0.666191 -0.276020 0
M  V30 51 H 3.641393 -1.605129 -1.112971 0
M  V30 52 H 1.316991 -1.627868 -1.676896 0
M  V30 53 H -0.350443 -0.832745 -2.499975 0
M  V30 54 H -3.028354 -0.298192 -1.032689 0
M  V30 55 H -2.309444 0.919134 -3.669657 0
M  V30 56 H -2.278701 1.756089 -2.118173 0
M  V30 57 H -4.660607 0.513383 -3.641716 0
M  V30 58 H -4.410255 2.241139 -3.438499 0
M  V30 59 H -5.176680 0.216180 -1.286378 0
M  V30 60 H -7.028893 0.776810 -2.704090 0
M  V30 61 H -7.126637 1.643400 -1.114532 0
M  V30 62 H -7.760322 3.154336 -2.820840 0
M  V30 63 H -6.314492 2.855029 -3.790586 0
M  V30 64 H -5.091678 4.445549 -2.610075 0
M  V30 65 H -6.623481 4.814913 -1.809561 0
M  V30 66 H -4.623429 4.268118 -0.332481 0
M  V30 67 H -6.228962 3.667400 0.086085 0
M  V30 68 H -3.644613 2.237728 -0.453040 0
M  V30 69 H -5.118274 1.726164 0.341301 0
M  V30 70 H -1.289938 -2.530373 -3.048165 0
M  V30 71 H -3.711252 -4.157176 -3.552549 0
M  V30 72 H -1.963566 -4.519469 -3.993285 0
M  V30 73 H -5.048915 -2.999502 -5.334775 0
M  V30 74 H -5.234244 -2.424805 -7.694685 0
M  V30 75 H -1.023239 -3.159323 -8.228412 0
M  V30 76 H -0.911050 -3.710692 -5.897037 0
M  V30 77 H 0.634448 1.326004 1.339070 0
M  V30 78 H 2.993179 1.311313 1.863002 0
M  V30 79 H 6.184069 -3.597688 3.409207 0
M  V30 80 H 7.974834 -0.949760 7.446913 0
M  V30 81 H 8.395585 -0.588825 9.792116 0
M  V30 82 H 6.922935 -1.444507 11.510338 0
M  V30 83 H 4.913611 -2.719814 10.838825 0
M  V30 84 H 4.440372 -3.108864 8.382596 0
M  V30 END ATOM
M  V30 BEGIN BOND
M  V30 1 1 1 2
M  V30 2 2 2 3
M  V30 3 1 3 4
M  V30 4 2 4 5
M  V30 5 1 4 6
M  V30 6 1 6 7
M  V30 7 1 7 8
M  V30 8 2 8 9
M  V30 9 1 9 10
M  V30 10 2 10 11
M  V30 11 1 11 12
M  V30 12 2 12 13
M  V30 13 1 12 14
M  V30 14 1 14 15
M  V30 15 1 15 16
M  V30 16 1 16 17
M  V30 17 1 17 18
M  V30 18 1 18 19
M  V30 19 1 19 20
M  V30 20 1 20 21
M  V30 21 1 21 22
M  V30 22 1 22 23
M  V30 23 1 15 24
M  V30 24 2 24 25
M  V30 25 1 24 26
M  V30 26 1 26 27
M  V30 27 1 27 28
M  V30 28 2 28 29
M  V30 29 1 29 30
M  V30 30 2 30 31
M  V30 31 1 31 32
M  V30 32 1 31 33
M  V30 33 2 33 34
M  V30 34 1 11 35
M  V30 35 2 35 36
M  V30 36 1 3 37
M  V30 37 2 37 38
M  V30 38 1 38 39
M  V30 39 1 39 40
M  V30 40 2 40 41
M  V30 41 1 41 42
M  V30 42 2 42 43
M  V30 43 1 43 44
M  V30 44 2 44 45
M  V30 45 1 39 2
M  V30 46 1 45 40
M  V30 47 1 36 8
M  V30 48 1 23 18
M  V30 49 1 34 28
M  V30 50 1 1 46
M  V30 51 1 1 47
M  V30 52 1 6 48
M  V30 53 1 7 49
M  V30 54 1 7 50
M  V30 55 1 9 51
M  V30 56 1 10 52
M  V30 57 1 14 53
M  V30 58 1 15 54 CFG=1
M  V30 59 1 16 55
M  V30 60 1 16 56
M  V30 61 1 17 57
M  V30 62 1 17 58
M  V30 63 1 18 59
M  V30 64 1 19 60
M  V30 65 1 19 61
M  V30 66 1 20 62
M  V30 67 1 20 63
M  V30 68 1 21 64
M  V30 69 1 21 65
M  V30 70 1 22 66
M  V30 71 1 22 67
M  V30 72 1 23 68
M  V30 73 1 23 69
M  V30 74 1 26 70
M  V30 75 1 27 71
M  V30 76 1 27 72
M  V30 77 1 29 73
M  V30 78 1 30 74
M  V30 79 1 33 75
M  V30 80 1 34 76
M  V30 81 1 35 77
M  V30 82 1 36 78
M  V30 83 1 37 79
M  V30 84 1 41 80
M  V30 85 1 42 81
M  V30 86 1 43 82
M  V30 87 1 44 83
M  V30 88 1 45 84
M  V30 END BOND
M  V30 END CTAB
M  END
>  <Dataset>  (897) 
ChEMBL_Kinases

>  <Ligand_Instance>  (897) 
nan

>  <PDB_ID>  (897) 
nan

>  <Standardized_SMILES>  (897) 
Nc1c(C(=O)NCc2ccc(C(=O)N[C@@H](CCC3CCCCC3)C(=O)NCc3ccc(Cl)cc3)cc2)cnn1-c1ccccc1

>  <Name>  (897) 
nan

>  <Pocket>  (897) 
nan

>  <ATP_Site>  (897) 
nan

>  <Peripheral>  (897) 
nan

>  <Num_H_Atoms_ProtBoundConf>  (897) 
nan

>  <Num_Resolved_Atoms>  (897) 
nan

>  <Num_Not_Resolved_Atoms>  (897) 
nan

$$$$
CHEMBL4750202
     RDKit          3D

  0  0  0  0  0  0  0  0  0  0999 V3000
M  V30 BEGIN CTAB
M  V30 COUNTS 52 54 0 0 0
M  V30 BEGIN ATOM
M  V30 1 C -2.285333 0.865506 5.892479 0
M  V30 2 C -1.282403 -0.136195 5.298415 0
M  V30 3 N -1.004905 0.252884 3.950599 0
M  V30 4 C -0.104934 -0.467342 3.123084 0
M  V30 5 O 0.314695 -1.401260 3.814836 0
M  V30 6 C 0.170825 -0.051543 1.722342 0
M  V30 7 C -0.197909 1.225667 1.426637 0
M  V30 8 N 0.078194 1.682126 0.207628 0
M  V30 9 C 0.688030 1.005540 -0.766909 0
M  V30 10 N 0.998044 1.467109 -2.065137 0
M  V30 11 C 0.753539 2.779236 -2.523744 0
M  V30 12 C 1.913761 3.502531 -2.294792 0
M  V30 13 N 2.044190 4.823015 -2.618453 0
M  V30 14 C 1.013163 5.466940 -3.186036 0
M  V30 15 C 1.087385 6.857556 -3.547642 0
M  V30 16 N 1.165343 7.965243 -3.843791 0
M  V30 17 C -0.171058 4.753390 -3.427832 0
M  V30 18 N -0.276400 3.433846 -3.093430 0
M  V30 19 C 1.044105 -0.272451 -0.436739 0
M  V30 20 C 0.823172 -0.885524 0.789837 0
M  V30 21 N 1.095128 -2.169152 1.208541 0
M  V30 22 C 1.373274 -3.475009 1.630623 0
M  V30 23 C 0.638906 -4.598564 0.906243 0
M  V30 24 C -0.842634 -4.300410 1.176604 0
M  V30 25 C -1.648059 -5.273127 0.370016 0
M  V30 26 N -1.429030 -5.042527 -1.041188 0
M  V30 27 C -0.282009 -4.210072 -1.320492 0
M  V30 28 C 0.916009 -4.677432 -0.553081 0
M  V30 29 H -2.330740 0.788462 6.987453 0
M  V30 30 H -3.289862 0.726790 5.457050 0
M  V30 31 H -1.933631 1.875662 5.567326 0
M  V30 32 H -0.340607 -0.131414 5.878463 0
M  V30 33 H -1.742999 -1.157444 5.256439 0
M  V30 34 H -1.502774 1.115790 3.577986 0
M  V30 35 H -0.691008 1.991989 1.994001 0
M  V30 36 H 1.434115 0.879143 -2.781576 0
M  V30 37 H 2.878200 3.187580 -1.851167 0
M  V30 38 H -1.047133 5.189896 -3.877154 0
M  V30 39 H 1.542368 -0.863260 -1.189377 0
M  V30 40 H 1.547526 -2.534962 0.306318 0
M  V30 41 H 2.446939 -3.732231 1.639595 0
M  V30 42 H 1.072538 -3.672127 2.710387 0
M  V30 43 H 0.869028 -5.543854 1.432385 0
M  V30 44 H -0.993347 -4.517722 2.259334 0
M  V30 45 H -1.077607 -3.254233 0.987175 0
M  V30 46 H -1.336706 -6.307116 0.687746 0
M  V30 47 H -2.716939 -5.153498 0.669295 0
M  V30 48 H -2.283918 -4.549717 -1.416955 0
M  V30 49 H -0.082383 -4.252848 -2.410394 0
M  V30 50 H -0.533137 -3.179693 -0.992691 0
M  V30 51 H 1.833348 -4.146070 -0.893713 0
M  V30 52 H 1.049981 -5.775649 -0.812855 0
M  V30 END ATOM
M  V30 BEGIN BOND
M  V30 1 1 1 2
M  V30 2 1 2 3
M  V30 3 1 3 4
M  V30 4 2 4 5
M  V30 5 1 4 6
M  V30 6 2 6 7
M  V30 7 1 7 8
M  V30 8 2 8 9
M  V30 9 1 9 10
M  V30 10 1 10 11
M  V30 11 2 11 12
M  V30 12 1 12 13
M  V30 13 2 13 14
M  V30 14 1 14 15
M  V30 15 3 15 16
M  V30 16 1 14 17
M  V30 17 2 17 18
M  V30 18 1 9 19
M  V30 19 2 19 20
M  V30 20 1 20 21
M  V30 21 1 21 22
M  V30 22 1 22 23
M  V30 23 1 23 24
M  V30 24 1 24 25
M  V30 25 1 25 26
M  V30 26 1 26 27
M  V30 27 1 27 28
M  V30 28 1 20 6
M  V30 29 1 28 23
M  V30 30 1 18 11
M  V30 31 1 1 29
M  V30 32 1 1 30
M  V30 33 1 1 31
M  V30 34 1 2 32
M  V30 35 1 2 33
M  V30 36 1 3 34
M  V30 37 1 7 35
M  V30 38 1 10 36
M  V30 39 1 12 37
M  V30 40 1 17 38
M  V30 41 1 19 39
M  V30 42 1 21 40
M  V30 43 1 22 41
M  V30 44 1 22 42
M  V30 45 1 23 43
M  V30 46 1 24 44
M  V30 47 1 24 45
M  V30 48 1 25 46
M  V30 49 1 25 47
M  V30 50 1 26 48
M  V30 51 1 27 49
M  V30 52 1 27 50
M  V30 53 1 28 51
M  V30 54 1 28 52
M  V30 END BOND
M  V30 END CTAB
M  END
>  <Dataset>  (898) 
ChEMBL_Kinases

>  <Ligand_Instance>  (898) 
nan

>  <PDB_ID>  (898) 
nan

>  <Standardized_SMILES>  (898) 
CCNC(=O)c1cnc(Nc2cnc(C#N)cn2)cc1NCC1CCNCC1

>  <Name>  (898) 
nan

>  <Pocket>  (898) 
nan

>  <ATP_Site>  (898) 
nan

>  <Peripheral>  (898) 
nan

>  <Num_H_Atoms_ProtBoundConf>  (898) 
nan

>  <Num_Resolved_Atoms>  (898) 
nan

>  <Num_Not_Resolved_Atoms>  (898) 
nan

$$$$
CHEMBL4750219
     RDKit          3D

  0  0  0  0  0  0  0  0  0  0999 V3000
M  V30 BEGIN CTAB
M  V30 COUNTS 81 86 0 0 0
M  V30 BEGIN ATOM
M  V30 1 C 6.198798 1.748567 -1.795626 0
M  V30 2 C 5.621613 0.807597 -2.773100 0
M  V30 3 C 5.629150 -0.667428 -2.403657 0 CFG=2
M  V30 4 C 4.984480 -1.276770 -3.663030 0
M  V30 5 N 5.485472 -1.630828 -4.873624 0
M  V30 6 N 4.469205 -1.939877 -5.681598 0
M  V30 7 C 3.358125 -1.765896 -4.930904 0
M  V30 8 N 3.656520 -1.354979 -3.662386 0
M  V30 9 C 2.731764 -1.250572 -2.600426 0
M  V30 10 C 1.372036 -1.319585 -2.737652 0
M  V30 11 N 0.708087 -1.188818 -1.587158 0
M  V30 12 C 1.223177 -1.006326 -0.375770 0
M  V30 13 N 0.471472 -0.890021 0.819824 0
M  V30 14 C -0.931404 -0.907655 1.011504 0
M  V30 15 C -1.806979 -0.962860 -0.051629 0
M  V30 16 C -3.183010 -0.981568 0.039433 0
M  V30 17 C -3.768052 -0.941655 1.313457 0
M  V30 18 C -5.194076 -0.957178 1.611734 0
M  V30 19 O -5.654623 -1.098971 2.795293 0
M  V30 20 N -6.089456 -0.808825 0.541574 0
M  V30 21 N -7.347097 -0.736289 0.059023 0
M  V30 22 C -7.992893 -1.925442 -0.351331 0
M  V30 23 C -9.419606 -1.722039 -0.798506 0
M  V30 24 N -10.069668 -0.992344 0.273750 0
M  V30 25 C -11.494302 -1.041544 0.224976 0
M  V30 26 C -9.567208 0.343043 0.279268 0
M  V30 27 C -8.087324 0.440196 0.219714 0
M  V30 28 C -2.915687 -0.885855 2.392434 0
M  V30 29 C -1.545687 -0.868398 2.262637 0
M  V30 30 O -0.750030 -0.809764 3.397632 0
M  V30 31 C -1.318261 -0.766900 4.687379 0
M  V30 32 N 2.560977 -0.941986 -0.268811 0
M  V30 33 C 3.343040 -1.059238 -1.351799 0
M  V30 34 N 4.780670 -1.016221 -1.320842 0
M  V30 35 C 5.383521 -1.426226 -0.102002 0
M  V30 36 C 6.107449 -0.465610 0.747227 0
M  V30 37 C 6.639095 -1.286787 1.965993 0
M  V30 38 C 7.042735 -0.339243 3.059561 0
M  V30 39 C 7.301625 1.050823 2.518036 0
M  V30 40 C 6.024496 1.638756 1.980559 0
M  V30 41 C 5.175872 0.543704 1.419859 0
M  V30 42 H 7.203115 1.483934 -1.432984 0
M  V30 43 H 5.463035 2.022920 -1.024454 0
M  V30 44 H 6.346224 2.728969 -2.365423 0
M  V30 45 H 4.601367 1.140387 -3.073054 0
M  V30 46 H 6.220216 0.846500 -3.737017 0
M  V30 47 H 6.663981 -0.976726 -2.307651 0
M  V30 48 H 2.424957 -1.984818 -5.473815 0
M  V30 49 H 0.936460 -1.467218 -3.710601 0
M  V30 50 H 0.988514 -0.769346 1.735344 0
M  V30 51 H -1.518620 -0.996486 -1.085205 0
M  V30 52 H -3.879505 -1.024885 -0.774710 0
M  V30 53 H -5.859823 -0.674906 -0.469802 0
M  V30 54 H -7.455826 -2.306932 -1.266649 0
M  V30 55 H -7.966022 -2.768711 0.375499 0
M  V30 56 H -9.458024 -1.131539 -1.757353 0
M  V30 57 H -9.926516 -2.670398 -0.976936 0
M  V30 58 H -11.890401 -0.765104 1.222011 0
M  V30 59 H -11.784934 -2.067029 -0.103402 0
M  V30 60 H -11.952876 -0.330974 -0.500398 0
M  V30 61 H -10.051125 0.885427 -0.586119 0
M  V30 62 H -9.980201 0.865979 1.187126 0
M  V30 63 H -7.704791 0.994538 1.125788 0
M  V30 64 H -7.815123 1.139584 -0.625300 0
M  V30 65 H -3.320622 -0.855840 3.387182 0
M  V30 66 H -0.550541 -0.937612 5.480446 0
M  V30 67 H -2.097069 -1.528378 4.864594 0
M  V30 68 H -1.757274 0.239676 4.891840 0
M  V30 69 H 4.628423 -1.947038 0.566875 0
M  V30 70 H 6.119703 -2.291268 -0.286892 0
M  V30 71 H 6.995268 0.015057 0.364335 0
M  V30 72 H 7.516246 -1.866968 1.659273 0
M  V30 73 H 5.869138 -1.970804 2.331604 0
M  V30 74 H 6.330252 -0.325708 3.908660 0
M  V30 75 H 7.998332 -0.704104 3.487064 0
M  V30 76 H 8.114096 0.987670 1.771740 0
M  V30 77 H 7.707436 1.669656 3.355773 0
M  V30 78 H 5.497608 2.245107 2.773497 0
M  V30 79 H 6.322053 2.351100 1.163125 0
M  V30 80 H 4.650688 0.044296 2.270132 0
M  V30 81 H 4.398647 0.936066 0.776013 0
M  V30 END ATOM
M  V30 BEGIN BOND
M  V30 1 1 1 2
M  V30 2 1 2 3
M  V30 3 1 3 4
M  V30 4 2 4 5
M  V30 5 1 5 6
M  V30 6 2 6 7
M  V30 7 1 7 8
M  V30 8 1 8 9
M  V30 9 2 9 10
M  V30 10 1 10 11
M  V30 11 2 11 12
M  V30 12 1 12 13
M  V30 13 1 13 14
M  V30 14 2 14 15
M  V30 15 1 15 16
M  V30 16 2 16 17
M  V30 17 1 17 18
M  V30 18 2 18 19
M  V30 19 1 18 20
M  V30 20 1 20 21
M  V30 21 1 21 22
M  V30 22 1 22 23
M  V30 23 1 23 24
M  V30 24 1 24 25
M  V30 25 1 24 26
M  V30 26 1 26 27
M  V30 27 1 17 28
M  V30 28 2 28 29
M  V30 29 1 29 30
M  V30 30 1 30 31
M  V30 31 1 12 32
M  V30 32 2 32 33
M  V30 33 1 33 34
M  V30 34 1 34 35
M  V30 35 1 35 36
M  V30 36 1 36 37
M  V30 37 1 37 38
M  V30 38 1 38 39
M  V30 39 1 39 40
M  V30 40 1 40 41
M  V30 41 1 34 3
M  V30 42 1 41 36
M  V30 43 1 8 4
M  V30 44 1 33 9
M  V30 45 1 29 14
M  V30 46 1 27 21
M  V30 47 1 1 42
M  V30 48 1 1 43
M  V30 49 1 1 44
M  V30 50 1 2 45
M  V30 51 1 2 46
M  V30 52 1 3 47 CFG=1
M  V30 53 1 7 48
M  V30 54 1 10 49
M  V30 55 1 13 50
M  V30 56 1 15 51
M  V30 57 1 16 52
M  V30 58 1 20 53
M  V30 59 1 22 54
M  V30 60 1 22 55
M  V30 61 1 23 56
M  V30 62 1 23 57
M  V30 63 1 25 58
M  V30 64 1 25 59
M  V30 65 1 25 60
M  V30 66 1 26 61
M  V30 67 1 26 62
M  V30 68 1 27 63
M  V30 69 1 27 64
M  V30 70 1 28 65
M  V30 71 1 31 66
M  V30 72 1 31 67
M  V30 73 1 31 68
M  V30 74 1 35 69
M  V30 75 1 35 70
M  V30 76 1 36 71
M  V30 77 1 37 72
M  V30 78 1 37 73
M  V30 79 1 38 74
M  V30 80 1 38 75
M  V30 81 1 39 76
M  V30 82 1 39 77
M  V30 83 1 40 78
M  V30 84 1 40 79
M  V30 85 1 41 80
M  V30 86 1 41 81
M  V30 END BOND
M  V30 END CTAB
M  END
>  <Dataset>  (899) 
ChEMBL_Kinases

>  <Ligand_Instance>  (899) 
nan

>  <PDB_ID>  (899) 
nan

>  <Standardized_SMILES>  (899) 
CC[C@@H]1c2nncn2-c2cnc(Nc3ccc(C(=O)NN4CCN(C)CC4)cc3OC)nc2N1CC1CCCCC1

>  <Name>  (899) 
nan

>  <Pocket>  (899) 
nan

>  <ATP_Site>  (899) 
nan

>  <Peripheral>  (899) 
nan

>  <Num_H_Atoms_ProtBoundConf>  (899) 
nan

>  <Num_Resolved_Atoms>  (899) 
nan

>  <Num_Not_Resolved_Atoms>  (899) 
nan

$$$$
CHEMBL4750244
     RDKit          3D

  0  0  0  0  0  0  0  0  0  0999 V3000
M  V30 BEGIN CTAB
M  V30 COUNTS 24 25 0 0 0
M  V30 BEGIN ATOM
M  V30 1 C -1.313526 -4.647493 2.373104 0
M  V30 2 C -0.816745 -3.323489 1.869415 0
M  V30 3 O -1.463933 -2.700670 0.988425 0
M  V30 4 N 0.378927 -2.832466 2.422117 0
M  V30 5 C 0.731716 -1.551224 1.841106 0
M  V30 6 N 0.276150 -0.818109 1.028062 0
M  V30 7 C 0.792336 0.343968 0.644488 0
M  V30 8 C 0.308033 1.233797 -0.292168 0
M  V30 9 C 0.998532 2.397989 -0.549696 0
M  V30 10 C 0.462769 3.367306 -1.576000 0
M  V30 11 F 0.749385 2.803748 -2.804970 0
M  V30 12 F -0.913873 3.401297 -1.452979 0
M  V30 13 F 1.000810 4.611679 -1.406573 0
M  V30 14 C 2.186868 2.775437 0.071827 0
M  V30 15 C 2.724318 1.931040 1.017589 0
M  V30 16 C 1.993878 0.756809 1.252492 0
M  V30 17 S 2.284792 -0.697546 2.417432 0
M  V30 18 H -0.560092 -5.454476 2.196591 0
M  V30 19 H -1.472744 -4.514841 3.460739 0
M  V30 20 H -2.229737 -4.967832 1.844663 0
M  V30 21 H 0.975133 -3.273157 3.146621 0
M  V30 22 H -0.601621 1.078219 -0.855264 0
M  V30 23 H 2.749262 3.657404 -0.094562 0
M  V30 24 H 3.611505 2.014355 1.611551 0
M  V30 END ATOM
M  V30 BEGIN BOND
M  V30 1 1 1 2
M  V30 2 2 2 3
M  V30 3 1 2 4
M  V30 4 1 4 5
M  V30 5 2 5 6
M  V30 6 1 6 7
M  V30 7 2 7 8
M  V30 8 1 8 9
M  V30 9 1 9 10
M  V30 10 1 10 11
M  V30 11 1 10 12
M  V30 12 1 10 13
M  V30 13 2 9 14
M  V30 14 1 14 15
M  V30 15 2 15 16
M  V30 16 1 16 17
M  V30 17 1 17 5
M  V30 18 1 16 7
M  V30 19 1 1 18
M  V30 20 1 1 19
M  V30 21 1 1 20
M  V30 22 1 4 21
M  V30 23 1 8 22
M  V30 24 1 14 23
M  V30 25 1 15 24
M  V30 END BOND
M  V30 END CTAB
M  END
>  <Dataset>  (900) 
ChEMBL_Kinases

>  <Ligand_Instance>  (900) 
nan

>  <PDB_ID>  (900) 
nan

>  <Standardized_SMILES>  (900) 
CC(=O)Nc1nc2cc(C(F)(F)F)ccc2s1

>  <Name>  (900) 
nan

>  <Pocket>  (900) 
nan

>  <ATP_Site>  (900) 
nan

>  <Peripheral>  (900) 
nan

>  <Num_H_Atoms_ProtBoundConf>  (900) 
nan

>  <Num_Resolved_Atoms>  (900) 
nan

>  <Num_Not_Resolved_Atoms>  (900) 
nan

$$$$
CHEMBL4446508
     RDKit          3D

  0  0  0  0  0  0  0  0  0  0999 V3000
M  V30 BEGIN CTAB
M  V30 COUNTS 40 43 0 0 0
M  V30 BEGIN ATOM
M  V30 1 C -1.648244 -4.330784 -0.293995 0
M  V30 2 C -0.233088 -4.072762 0.106042 0
M  V30 3 C -0.059753 -3.949125 1.601132 0
M  V30 4 N -0.807566 -2.898529 2.205192 0
M  V30 5 C -0.525356 -1.552305 1.810056 0
M  V30 6 N 0.406254 -1.259112 0.915181 0
M  V30 7 C 0.746452 -0.032335 0.484186 0
M  V30 8 C 1.796766 0.154737 -0.511328 0
M  V30 9 C 2.491600 -0.903802 -1.059827 0
M  V30 10 N 3.353305 -0.301723 -1.918327 0
M  V30 11 N 3.196726 1.006878 -1.894348 0
M  V30 12 C 2.215802 1.362249 -1.013970 0
M  V30 13 C 1.698430 2.688296 -0.655637 0
M  V30 14 C 2.245909 3.496905 0.432537 0
M  V30 15 C 2.664690 3.846678 -0.967151 0
M  V30 16 N 0.072083 1.023640 1.013921 0
M  V30 17 C -0.896093 0.845223 1.932136 0
M  V30 18 C -1.595385 1.916023 2.483289 0
M  V30 19 N -2.562331 1.699558 3.403456 0
M  V30 20 C -2.869285 0.437565 3.806682 0
M  V30 21 C -2.163645 -0.599192 3.246460 0
M  V30 22 C -1.169011 -0.440912 2.305987 0
M  V30 23 H -1.882844 -3.918983 -1.300371 0
M  V30 24 H -2.344917 -3.936829 0.486896 0
M  V30 25 H -1.816046 -5.427518 -0.294701 0
M  V30 26 H 0.380628 -4.918563 -0.297656 0
M  V30 27 H 0.141240 -3.178599 -0.424425 0
M  V30 28 H 1.023434 -3.803455 1.843594 0
M  V30 29 H -0.333557 -4.915152 2.063579 0
M  V30 30 H -1.525287 -3.152428 2.905698 0
M  V30 31 H 2.406798 -1.956349 -0.882860 0
M  V30 32 H 4.075128 -0.765395 -2.547346 0
M  V30 33 H 0.635861 2.851071 -0.989048 0
M  V30 34 H 3.003485 3.064277 1.123382 0
M  V30 35 H 1.530235 4.158221 0.972791 0
M  V30 36 H 3.717309 3.570813 -1.205545 0
M  V30 37 H 2.256214 4.734631 -1.468440 0
M  V30 38 H -1.305879 2.887082 2.123391 0
M  V30 39 H -3.655095 0.290571 4.551761 0
M  V30 40 H -2.461489 -1.569010 3.613456 0
M  V30 END ATOM
M  V30 BEGIN BOND
M  V30 1 1 1 2
M  V30 2 1 2 3
M  V30 3 1 3 4
M  V30 4 1 4 5
M  V30 5 2 5 6
M  V30 6 1 6 7
M  V30 7 1 7 8
M  V30 8 2 8 9
M  V30 9 1 9 10
M  V30 10 1 10 11
M  V30 11 2 11 12
M  V30 12 1 12 13
M  V30 13 1 13 14
M  V30 14 1 14 15
M  V30 15 2 7 16
M  V30 16 1 16 17
M  V30 17 2 17 18
M  V30 18 1 18 19
M  V30 19 2 19 20
M  V30 20 1 20 21
M  V30 21 2 21 22
M  V30 22 1 22 5
M  V30 23 1 12 8
M  V30 24 1 15 13
M  V30 25 1 22 17
M  V30 26 1 1 23
M  V30 27 1 1 24
M  V30 28 1 1 25
M  V30 29 1 2 26
M  V30 30 1 2 27
M  V30 31 1 3 28
M  V30 32 1 3 29
M  V30 33 1 4 30
M  V30 34 1 9 31
M  V30 35 1 10 32
M  V30 36 1 13 33
M  V30 37 1 14 34
M  V30 38 1 14 35
M  V30 39 1 15 36
M  V30 40 1 15 37
M  V30 41 1 18 38
M  V30 42 1 20 39
M  V30 43 1 21 40
M  V30 END BOND
M  V30 END CTAB
M  END
>  <Dataset>  (901) 
ChEMBL_Kinases

>  <Ligand_Instance>  (901) 
nan

>  <PDB_ID>  (901) 
nan

>  <Standardized_SMILES>  (901) 
CCCNc1nc(-c2c[nH]nc2C2CC2)nc2cnccc12

>  <Name>  (901) 
nan

>  <Pocket>  (901) 
nan

>  <ATP_Site>  (901) 
nan

>  <Peripheral>  (901) 
nan

>  <Num_H_Atoms_ProtBoundConf>  (901) 
nan

>  <Num_Resolved_Atoms>  (901) 
nan

>  <Num_Not_Resolved_Atoms>  (901) 
nan

$$$$
CHEMBL4448106
     RDKit          3D

  0  0  0  0  0  0  0  0  0  0999 V3000
M  V30 BEGIN CTAB
M  V30 COUNTS 51 55 0 0 0
M  V30 BEGIN ATOM
M  V30 1 C 5.560462 -3.137412 5.936998 0
M  V30 2 O 4.497646 -3.507758 5.077999 0
M  V30 3 C 4.261985 -2.696658 3.975548 0
M  V30 4 C 5.019412 -1.575621 3.712384 0
M  V30 5 C 4.730571 -0.813341 2.597789 0
M  V30 6 C 3.685431 -1.216348 1.792691 0
M  V30 7 S 3.322990 -0.252724 0.386028 0
M  V30 8 O 4.599109 0.362047 -0.104738 0
M  V30 9 O 2.821039 -1.194218 -0.684013 0
M  V30 10 N 2.183898 0.981069 0.720600 0
M  V30 11 C 0.918584 0.491079 1.154210 0
M  V30 12 C -0.223274 1.349073 0.561092 0
M  V30 13 C -0.280963 0.977286 -0.856562 0
M  V30 14 C 1.055370 1.276665 -1.335815 0
M  V30 15 S 1.108327 0.868475 -3.007264 0
M  V30 16 C -0.670420 0.285199 -3.098307 0
M  V30 17 N -1.417512 -0.204764 -4.106267 0
M  V30 18 C -2.694739 -0.556206 -3.914853 0
M  V30 19 N -3.131875 -0.379456 -2.679598 0
M  V30 20 C -2.432986 0.096148 -1.668357 0
M  V30 21 N -3.159218 0.185841 -0.457756 0
M  V30 22 C -4.504487 -0.265051 -0.340817 0
M  V30 23 C -4.847484 -1.448331 -0.999049 0
M  V30 24 C -6.108161 -2.005834 -1.009278 0
M  V30 25 C -7.132182 -1.349470 -0.312404 0
M  V30 26 Cl -8.778254 -1.933427 -0.232461 0
M  V30 27 C -6.859521 -0.178627 0.357657 0
M  V30 28 C -5.576899 0.308932 0.317373 0
M  V30 29 C -1.128131 0.473216 -1.791066 0
M  V30 30 C 2.092281 1.833289 -0.451129 0
M  V30 31 C 2.913998 -2.342920 2.045031 0
M  V30 32 C 3.212994 -3.108655 3.175139 0
M  V30 33 H 5.568802 -3.800197 6.826277 0
M  V30 34 H 5.488495 -2.066049 6.210617 0
M  V30 35 H 6.500457 -3.231197 5.339260 0
M  V30 36 H 5.825671 -1.285198 4.354582 0
M  V30 37 H 5.287866 0.065453 2.349903 0
M  V30 38 H 0.758589 -0.526038 0.742077 0
M  V30 39 H 0.847988 0.490866 2.259332 0
M  V30 40 H -1.101911 1.209273 1.165785 0
M  V30 41 H 0.117736 2.415087 0.671899 0
M  V30 42 H -3.174578 -0.929726 -4.794797 0
M  V30 43 H -3.059778 0.501212 0.520418 0
M  V30 44 H -4.193635 -2.099271 -1.577445 0
M  V30 45 H -6.444687 -2.893737 -1.482056 0
M  V30 46 H -7.580652 0.408314 0.927646 0
M  V30 47 H -5.303708 1.239314 0.834692 0
M  V30 48 H 3.055428 1.767542 -0.970657 0
M  V30 49 H 1.899890 2.887877 -0.166728 0
M  V30 50 H 2.103134 -2.617130 1.380641 0
M  V30 51 H 2.614608 -3.984601 3.372411 0
M  V30 END ATOM
M  V30 BEGIN BOND
M  V30 1 1 1 2
M  V30 2 1 2 3
M  V30 3 2 3 4
M  V30 4 1 4 5
M  V30 5 2 5 6
M  V30 6 1 6 7
M  V30 7 2 7 8
M  V30 8 2 7 9
M  V30 9 1 7 10
M  V30 10 1 10 11
M  V30 11 1 11 12
M  V30 12 1 12 13
M  V30 13 2 13 14
M  V30 14 1 14 15
M  V30 15 1 15 16
M  V30 16 2 16 17
M  V30 17 1 17 18
M  V30 18 2 18 19
M  V30 19 1 19 20
M  V30 20 1 20 21
M  V30 21 1 21 22
M  V30 22 2 22 23
M  V30 23 1 23 24
M  V30 24 2 24 25
M  V30 25 1 25 26
M  V30 26 1 25 27
M  V30 27 2 27 28
M  V30 28 2 20 29
M  V30 29 1 14 30
M  V30 30 1 6 31
M  V30 31 2 31 32
M  V30 32 1 32 3
M  V30 33 1 30 10
M  V30 34 1 29 13
M  V30 35 1 29 16
M  V30 36 1 28 22
M  V30 37 1 1 33
M  V30 38 1 1 34
M  V30 39 1 1 35
M  V30 40 1 4 36
M  V30 41 1 5 37
M  V30 42 1 11 38
M  V30 43 1 11 39
M  V30 44 1 12 40
M  V30 45 1 12 41
M  V30 46 1 18 42
M  V30 47 1 21 43
M  V30 48 1 23 44
M  V30 49 1 24 45
M  V30 50 1 27 46
M  V30 51 1 28 47
M  V30 52 1 30 48
M  V30 53 1 30 49
M  V30 54 1 31 50
M  V30 55 1 32 51
M  V30 END BOND
M  V30 END CTAB
M  END
>  <Dataset>  (902) 
ChEMBL_Kinases

>  <Ligand_Instance>  (902) 
nan

>  <PDB_ID>  (902) 
nan

>  <Standardized_SMILES>  (902) 
COc1ccc(S(=O)(=O)N2CCc3c(sc4ncnc(Nc5ccc(Cl)cc5)c34)C2)cc1

>  <Name>  (902) 
nan

>  <Pocket>  (902) 
nan

>  <ATP_Site>  (902) 
nan

>  <Peripheral>  (902) 
nan

>  <Num_H_Atoms_ProtBoundConf>  (902) 
nan

>  <Num_Resolved_Atoms>  (902) 
nan

>  <Num_Not_Resolved_Atoms>  (902) 
nan

$$$$
CHEMBL4448072
     RDKit          3D

  0  0  0  0  0  0  0  0  0  0999 V3000
M  V30 BEGIN CTAB
M  V30 COUNTS 41 44 0 0 0
M  V30 BEGIN ATOM
M  V30 1 C 2.922975 -4.059487 2.122866 0
M  V30 2 C 1.462120 -3.945675 1.852812 0
M  V30 3 O 0.830824 -3.751051 3.096429 0
M  V30 4 C 1.229603 -2.811674 0.955039 0
M  V30 5 C 1.048226 -1.867690 0.225203 0
M  V30 6 C 0.848425 -0.731662 -0.635191 0
M  V30 7 C 0.730239 -0.830299 -2.004598 0
M  V30 8 C 0.537905 0.336452 -2.750960 0
M  V30 9 C 0.469962 1.556047 -2.112931 0
M  V30 10 C 0.584652 1.686394 -0.745379 0
M  V30 11 C 0.520979 2.948226 -0.014558 0
M  V30 12 C 1.065701 4.205417 -0.175959 0
M  V30 13 N 0.667787 5.006060 0.810654 0
M  V30 14 C -0.135063 4.335745 1.646183 0
M  V30 15 C -0.822284 4.655008 2.812693 0
M  V30 16 N -1.583493 3.767353 3.477493 0
M  V30 17 C -1.666986 2.519007 2.968749 0
M  V30 18 N -2.406340 1.410203 3.489835 0
M  V30 19 N -1.015930 2.183239 1.846797 0
M  V30 20 C -0.242082 3.036757 1.146257 0
M  V30 21 C 0.775287 0.512130 -0.025524 0
M  V30 22 C 0.918029 -5.156891 1.166324 0
M  V30 23 N 1.167068 -6.195870 0.731961 0
M  V30 24 C 0.310754 -7.027374 0.159561 0
M  V30 25 C -1.088477 -6.600739 0.061737 0
M  V30 26 S -0.941250 -4.898551 0.891511 0
M  V30 27 H 3.049373 -4.761685 2.997177 0
M  V30 28 H 3.515939 -4.444381 1.270592 0
M  V30 29 H 3.281032 -3.074481 2.483178 0
M  V30 30 H -0.103869 -3.450234 2.996656 0
M  V30 31 H 0.789700 -1.807737 -2.462613 0
M  V30 32 H 0.443013 0.273750 -3.832051 0
M  V30 33 H 0.321124 2.458546 -2.690994 0
M  V30 34 H 1.710245 4.378237 -1.031358 0
M  V30 35 H 0.941974 6.008643 0.916290 0
M  V30 36 H -0.756132 5.662310 3.224983 0
M  V30 37 H -2.278625 0.727997 4.272073 0
M  V30 38 H -3.288046 1.260270 2.940905 0
M  V30 39 H 0.868807 0.598879 1.067752 0
M  V30 40 H 0.666464 -7.978844 -0.211019 0
M  V30 41 H -1.796793 -7.228393 -0.383493 0
M  V30 END ATOM
M  V30 BEGIN BOND
M  V30 1 1 1 2
M  V30 2 1 2 3
M  V30 3 1 2 4
M  V30 4 3 4 5
M  V30 5 1 5 6
M  V30 6 2 6 7
M  V30 7 1 7 8
M  V30 8 2 8 9
M  V30 9 1 9 10
M  V30 10 1 10 11
M  V30 11 2 11 12
M  V30 12 1 12 13
M  V30 13 1 13 14
M  V30 14 2 14 15
M  V30 15 1 15 16
M  V30 16 2 16 17
M  V30 17 1 17 18
M  V30 18 1 17 19
M  V30 19 2 19 20
M  V30 20 2 10 21
M  V30 21 1 2 22
M  V30 22 2 22 23
M  V30 23 1 23 24
M  V30 24 2 24 25
M  V30 25 1 25 26
M  V30 26 1 21 6
M  V30 27 1 26 22
M  V30 28 1 20 11
M  V30 29 1 20 14
M  V30 30 1 1 27
M  V30 31 1 1 28
M  V30 32 1 1 29
M  V30 33 1 3 30
M  V30 34 1 7 31
M  V30 35 1 8 32
M  V30 36 1 9 33
M  V30 37 1 12 34
M  V30 38 1 13 35
M  V30 39 1 15 36
M  V30 40 1 18 37
M  V30 41 1 18 38
M  V30 42 1 21 39
M  V30 43 1 24 40
M  V30 44 1 25 41
M  V30 END BOND
M  V30 END CTAB
M  END
>  <Dataset>  (903) 
ChEMBL_Kinases

>  <Ligand_Instance>  (903) 
nan

>  <PDB_ID>  (903) 
nan

>  <Standardized_SMILES>  (903) 
CC(O)(C#Cc1cccc(-c2c[nH]c3cnc(N)nc23)c1)c1nccs1

>  <Name>  (903) 
nan

>  <Pocket>  (903) 
nan

>  <ATP_Site>  (903) 
nan

>  <Peripheral>  (903) 
nan

>  <Num_H_Atoms_ProtBoundConf>  (903) 
nan

>  <Num_Resolved_Atoms>  (903) 
nan

>  <Num_Not_Resolved_Atoms>  (903) 
nan

$$$$
CHEMBL4447967
     RDKit          3D

  0  0  0  0  0  0  0  0  0  0999 V3000
M  V30 BEGIN CTAB
M  V30 COUNTS 54 57 0 0 0
M  V30 BEGIN ATOM
M  V30 1 C 2.108135 0.503460 4.864613 0
M  V30 2 N 3.481496 0.982779 4.809363 0
M  V30 3 N 4.172689 1.126862 5.953304 0
M  V30 4 C 5.403516 1.569201 5.714264 0
M  V30 5 C 5.409772 1.683469 4.344774 0
M  V30 6 Cl 6.907176 2.253547 3.664738 0
M  V30 7 C 4.229429 1.326381 3.753999 0
M  V30 8 C 3.848919 1.306505 2.367462 0
M  V30 9 C 2.610102 0.921954 1.910519 0
M  V30 10 C 2.492503 0.986144 0.539132 0
M  V30 11 C 1.435213 0.701927 -0.428489 0
M  V30 12 O 1.558193 0.823746 -1.653719 0
M  V30 13 N 0.186914 0.257186 0.070680 0
M  V30 14 C -1.038439 -0.099083 -0.659794 0 CFG=2
M  V30 15 C -2.161968 0.819965 -0.363027 0
M  V30 16 N -3.332308 0.243561 0.209003 0
M  V30 17 C -3.728004 -1.004970 -0.399648 0 CFG=2
M  V30 18 C -4.962071 -1.454897 0.395949 0
M  V30 19 C -5.424555 -2.724299 -0.164891 0
M  V30 20 O -4.928415 -3.855142 0.059243 0
M  V30 21 O -6.521400 -2.733260 -1.040858 0
M  V30 22 C -2.644462 -1.989691 -0.128104 0
M  V30 23 C -1.262193 -1.548923 -0.465793 0 CFG=1
M  V30 24 C -0.809727 -2.332879 -1.670028 0
M  V30 25 C -1.435141 -2.100671 -2.896493 0
M  V30 26 C -1.018067 -2.821077 -3.995992 0
M  V30 27 C -0.011238 -3.766351 -3.959856 0
M  V30 28 Cl 0.458728 -4.640174 -5.405212 0
M  V30 29 C 0.613757 -3.997016 -2.729035 0
M  V30 30 Cl 1.899427 -5.182672 -2.611786 0
M  V30 31 C 0.190256 -3.273840 -1.641133 0
M  V30 32 O 3.690393 1.422494 0.130576 0
M  V30 33 C 4.453262 1.601399 1.176379 0
M  V30 34 Cl 6.079584 2.168320 0.961711 0
M  V30 35 H 2.011899 -0.508811 4.369278 0
M  V30 36 H 1.358327 1.231011 4.559293 0
M  V30 37 H 1.854443 0.259527 5.940595 0
M  V30 38 H 6.092028 1.739865 6.520394 0
M  V30 39 H 1.701002 0.582878 2.350299 0
M  V30 40 H 0.035711 0.138708 1.117248 0
M  V30 41 H -0.744548 0.063037 -1.739808 0
M  V30 42 H -2.488190 1.386621 -1.260410 0
M  V30 43 H -1.790264 1.600282 0.364848 0
M  V30 44 H -3.294667 0.164021 1.231253 0
M  V30 45 H -3.960305 -0.875757 -1.457209 0
M  V30 46 H -4.660333 -1.606177 1.449776 0
M  V30 47 H -5.763664 -0.694824 0.382837 0
M  V30 48 H -7.086330 -3.567463 -1.154910 0
M  V30 49 H -2.891494 -2.962769 -0.646101 0
M  V30 50 H -2.744894 -2.272557 0.961876 0
M  V30 51 H -0.602294 -1.926427 0.362135 0
M  V30 52 H -2.228671 -1.388113 -3.034221 0
M  V30 53 H -1.502634 -2.643226 -4.951472 0
M  V30 54 H 0.644363 -3.417238 -0.668857 0
M  V30 END ATOM
M  V30 BEGIN BOND
M  V30 1 1 1 2
M  V30 2 1 2 3
M  V30 3 2 3 4
M  V30 4 1 4 5
M  V30 5 1 5 6
M  V30 6 2 5 7
M  V30 7 1 7 8
M  V30 8 1 8 9
M  V30 9 2 9 10
M  V30 10 1 10 11
M  V30 11 2 11 12
M  V30 12 1 11 13
M  V30 13 1 13 14
M  V30 14 1 14 15
M  V30 15 1 15 16
M  V30 16 1 16 17
M  V30 17 1 17 18
M  V30 18 1 18 19
M  V30 19 2 19 20
M  V30 20 1 19 21
M  V30 21 1 17 22
M  V30 22 1 22 23
M  V30 23 1 23 24
M  V30 24 2 24 25
M  V30 25 1 25 26
M  V30 26 2 26 27
M  V30 27 1 27 28
M  V30 28 1 27 29
M  V30 29 1 29 30
M  V30 30 2 29 31
M  V30 31 1 10 32
M  V30 32 1 32 33
M  V30 33 1 33 34
M  V30 34 1 7 2
M  V30 35 2 33 8
M  V30 36 1 23 14
M  V30 37 1 31 24
M  V30 38 1 1 35
M  V30 39 1 1 36
M  V30 40 1 1 37
M  V30 41 1 4 38
M  V30 42 1 9 39
M  V30 43 1 13 40
M  V30 44 1 14 41 CFG=3
M  V30 45 1 15 42
M  V30 46 1 15 43
M  V30 47 1 16 44
M  V30 48 1 17 45 CFG=3
M  V30 49 1 18 46
M  V30 50 1 18 47
M  V30 51 1 21 48
M  V30 52 1 22 49
M  V30 53 1 22 50
M  V30 54 1 23 51 CFG=1
M  V30 55 1 25 52
M  V30 56 1 26 53
M  V30 57 1 31 54
M  V30 END BOND
M  V30 END CTAB
M  END
>  <Dataset>  (904) 
ChEMBL_Kinases

>  <Ligand_Instance>  (904) 
nan

>  <PDB_ID>  (904) 
nan

>  <Standardized_SMILES>  (904) 
Cn1ncc(Cl)c1-c1cc(C(=O)N[C@@H]2CN[C@H](CC(=O)O)C[C@H]2c2ccc(Cl)c(Cl)c2)oc1Cl

>  <Name>  (904) 
nan

>  <Pocket>  (904) 
nan

>  <ATP_Site>  (904) 
nan

>  <Peripheral>  (904) 
nan

>  <Num_H_Atoms_ProtBoundConf>  (904) 
nan

>  <Num_Resolved_Atoms>  (904) 
nan

>  <Num_Not_Resolved_Atoms>  (904) 
nan

$$$$
CHEMBL4447885
     RDKit          3D

  0  0  0  0  0  0  0  0  0  0999 V3000
M  V30 BEGIN CTAB
M  V30 COUNTS 38 41 0 0 0
M  V30 BEGIN ATOM
M  V30 1 F 2.174500 -4.456943 3.257531 0
M  V30 2 C 1.098103 -4.130204 2.453281 0
M  V30 3 F -0.004916 -4.773093 2.980003 0
M  V30 4 F 1.244449 -4.534100 1.156717 0
M  V30 5 C 0.800310 -2.633403 2.565260 0
M  V30 6 N -0.302827 -2.203177 1.765170 0
M  V30 7 C -0.488061 -1.145091 0.871044 0
M  V30 8 C 0.476609 -0.234345 0.513954 0
M  V30 9 C 0.291542 0.821491 -0.355804 0
M  V30 10 C 1.377698 1.739535 -0.686916 0
M  V30 11 C 2.660815 1.199069 -0.706900 0
M  V30 12 C 3.741411 2.031622 -1.014007 0
M  V30 13 N 3.604302 3.338604 -1.293399 0
M  V30 14 C 2.363424 3.857244 -1.273340 0
M  V30 15 C 1.261405 3.082237 -0.976785 0
M  V30 16 C -0.963791 1.004487 -0.934518 0
M  V30 17 C -1.942281 0.093595 -0.582689 0
M  V30 18 C -3.159087 0.314113 -1.178383 0
M  V30 19 N -4.202557 -0.508950 -0.917622 0
M  V30 20 C -4.056937 -1.550348 -0.072710 0
M  V30 21 C -2.822432 -1.741389 0.506311 0
M  V30 22 C -1.719256 -0.949263 0.290278 0
M  V30 23 C 1.799160 -1.789024 3.195508 0
M  V30 24 C 0.605591 -2.255622 4.056603 0
M  V30 25 H -1.064616 -2.878387 1.975996 0
M  V30 26 H 1.461482 -0.305381 0.901525 0
M  V30 27 H 2.870740 0.169546 -0.499082 0
M  V30 28 H 4.742001 1.581611 -1.023570 0
M  V30 29 H 2.231159 4.919002 -1.497374 0
M  V30 30 H 0.247861 3.464513 -0.950792 0
M  V30 31 H -1.130266 1.816849 -1.611977 0
M  V30 32 H -3.348964 1.121431 -1.861130 0
M  V30 33 H -4.903103 -2.193525 0.120163 0
M  V30 34 H -2.766177 -2.579716 1.167385 0
M  V30 35 H 1.883587 -0.707919 3.161891 0
M  V30 36 H 2.780418 -2.291493 3.448207 0
M  V30 37 H -0.172712 -1.511860 4.304020 0
M  V30 38 H 0.806133 -3.002850 4.828330 0
M  V30 END ATOM
M  V30 BEGIN BOND
M  V30 1 1 1 2
M  V30 2 1 2 3
M  V30 3 1 2 4
M  V30 4 1 2 5
M  V30 5 1 5 6
M  V30 6 1 6 7
M  V30 7 2 7 8
M  V30 8 1 8 9
M  V30 9 1 9 10
M  V30 10 2 10 11
M  V30 11 1 11 12
M  V30 12 2 12 13
M  V30 13 1 13 14
M  V30 14 2 14 15
M  V30 15 2 9 16
M  V30 16 1 16 17
M  V30 17 2 17 18
M  V30 18 1 18 19
M  V30 19 2 19 20
M  V30 20 1 20 21
M  V30 21 2 21 22
M  V30 22 1 5 23
M  V30 23 1 23 24
M  V30 24 1 24 5
M  V30 25 1 22 7
M  V30 26 1 15 10
M  V30 27 1 22 17
M  V30 28 1 6 25
M  V30 29 1 8 26
M  V30 30 1 11 27
M  V30 31 1 12 28
M  V30 32 1 14 29
M  V30 33 1 15 30
M  V30 34 1 16 31
M  V30 35 1 18 32
M  V30 36 1 20 33
M  V30 37 1 21 34
M  V30 38 1 23 35
M  V30 39 1 23 36
M  V30 40 1 24 37
M  V30 41 1 24 38
M  V30 END BOND
M  V30 END CTAB
M  END
>  <Dataset>  (905) 
ChEMBL_Kinases

>  <Ligand_Instance>  (905) 
nan

>  <PDB_ID>  (905) 
nan

>  <Standardized_SMILES>  (905) 
FC(F)(F)C1(Nc2cc(-c3ccncc3)cc3cnccc23)CC1

>  <Name>  (905) 
nan

>  <Pocket>  (905) 
nan

>  <ATP_Site>  (905) 
nan

>  <Peripheral>  (905) 
nan

>  <Num_H_Atoms_ProtBoundConf>  (905) 
nan

>  <Num_Resolved_Atoms>  (905) 
nan

>  <Num_Not_Resolved_Atoms>  (905) 
nan

$$$$
CHEMBL4447802
     RDKit          3D

  0  0  0  0  0  0  0  0  0  0999 V3000
M  V30 BEGIN CTAB
M  V30 COUNTS 37 40 0 0 0
M  V30 BEGIN ATOM
M  V30 1 C -0.992624 -1.963845 2.783177 0
M  V30 2 N -0.796211 -1.324896 1.483288 0
M  V30 3 C 0.265777 -0.415594 1.149424 0
M  V30 4 N 1.067021 -0.804181 0.148105 0
M  V30 5 C 2.104338 -0.074627 -0.288623 0
M  V30 6 C 2.934039 -0.555816 -1.380449 0
M  V30 7 C 2.424529 -1.265659 -2.454727 0
M  V30 8 N 3.433658 -1.560930 -3.279403 0
M  V30 9 N 4.551535 -1.069680 -2.772723 0
M  V30 10 C 4.293876 -0.445186 -1.609202 0
M  V30 11 N 2.338544 1.109137 0.323432 0
M  V30 12 C 1.566623 1.552622 1.336304 0
M  V30 13 C 1.762799 2.750815 1.993084 0
M  V30 14 N 0.980551 3.156405 2.988935 0
M  V30 15 C -0.050383 2.375793 3.384239 0
M  V30 16 C -0.348918 1.146115 2.798806 0
M  V30 17 C 0.511955 0.799608 1.772485 0
M  V30 18 C -1.889668 -1.817074 0.659256 0
M  V30 19 C -3.304788 -1.529964 1.107447 0
M  V30 20 C -1.727633 -1.804625 -0.839390 0
M  V30 21 C -1.610214 -3.095662 -0.075277 0
M  V30 22 H -0.870812 -3.060542 2.657549 0
M  V30 23 H -1.978073 -1.747979 3.223561 0
M  V30 24 H -0.194051 -1.635397 3.489007 0
M  V30 25 H 1.388534 -1.541418 -2.612742 0
M  V30 26 H 5.484719 -1.168369 -3.232727 0
M  V30 27 H 4.972014 0.058813 -0.944358 0
M  V30 28 H 2.610073 3.355326 1.642384 0
M  V30 29 H -0.674019 2.734434 4.202784 0
M  V30 30 H -1.166229 0.526396 3.111595 0
M  V30 31 H -3.306729 -0.844594 1.963721 0
M  V30 32 H -3.884971 -1.004378 0.302040 0
M  V30 33 H -3.794473 -2.503770 1.301480 0
M  V30 34 H -2.614972 -1.639679 -1.488848 0
M  V30 35 H -0.828111 -1.286810 -1.208280 0
M  V30 36 H -2.456972 -3.778705 -0.229313 0
M  V30 37 H -0.603088 -3.582508 0.036925 0
M  V30 END ATOM
M  V30 BEGIN BOND
M  V30 1 1 1 2
M  V30 2 1 2 3
M  V30 3 2 3 4
M  V30 4 1 4 5
M  V30 5 1 5 6
M  V30 6 1 6 7
M  V30 7 2 7 8
M  V30 8 1 8 9
M  V30 9 1 9 10
M  V30 10 2 5 11
M  V30 11 1 11 12
M  V30 12 2 12 13
M  V30 13 1 13 14
M  V30 14 2 14 15
M  V30 15 1 15 16
M  V30 16 2 16 17
M  V30 17 1 2 18
M  V30 18 1 18 19
M  V30 19 1 18 20
M  V30 20 1 20 21
M  V30 21 1 17 3
M  V30 22 1 21 18
M  V30 23 2 10 6
M  V30 24 1 17 12
M  V30 25 1 1 22
M  V30 26 1 1 23
M  V30 27 1 1 24
M  V30 28 1 7 25
M  V30 29 1 9 26
M  V30 30 1 10 27
M  V30 31 1 13 28
M  V30 32 1 15 29
M  V30 33 1 16 30
M  V30 34 1 19 31
M  V30 35 1 19 32
M  V30 36 1 19 33
M  V30 37 1 20 34
M  V30 38 1 20 35
M  V30 39 1 21 36
M  V30 40 1 21 37
M  V30 END BOND
M  V30 END CTAB
M  END
>  <Dataset>  (906) 
ChEMBL_Kinases

>  <Ligand_Instance>  (906) 
nan

>  <PDB_ID>  (906) 
nan

>  <Standardized_SMILES>  (906) 
CN(c1nc(-c2cn[nH]c2)nc2cnccc12)C1(C)CC1

>  <Name>  (906) 
nan

>  <Pocket>  (906) 
nan

>  <ATP_Site>  (906) 
nan

>  <Peripheral>  (906) 
nan

>  <Num_H_Atoms_ProtBoundConf>  (906) 
nan

>  <Num_Resolved_Atoms>  (906) 
nan

>  <Num_Not_Resolved_Atoms>  (906) 
nan

$$$$
CHEMBL4447769
     RDKit          3D

  0  0  0  0  0  0  0  0  0  0999 V3000
M  V30 BEGIN CTAB
M  V30 COUNTS 57 62 0 0 0
M  V30 BEGIN ATOM
M  V30 1 C 4.557994 -5.588418 0.110906 0
M  V30 2 N 4.798971 -4.879752 -1.121661 0
M  V30 3 C 5.004498 -3.469444 -0.923777 0
M  V30 4 C 3.648441 -2.855917 -0.810768 0
M  V30 5 C 3.415415 -1.968296 0.215593 0
M  V30 6 C 2.197874 -1.348772 0.404442 0
M  V30 7 N 1.968939 -0.437017 1.464073 0
M  V30 8 C 0.808372 0.270915 1.791829 0
M  V30 9 N 0.811276 1.090818 2.850580 0
M  V30 10 C -0.228529 1.822422 3.269370 0
M  V30 11 C -1.406750 1.736002 2.563478 0
M  V30 12 C -2.541333 2.439951 2.898827 0
M  V30 13 O -2.517116 3.199197 3.890126 0
M  V30 14 N -3.672537 2.308804 2.158944 0
M  V30 15 C -4.836814 3.063705 2.544803 0
M  V30 16 C -5.454396 2.869296 3.767635 0
M  V30 17 Cl -4.822748 1.675871 4.900203 0
M  V30 18 C -6.569793 3.580287 4.158165 0
M  V30 19 C -7.095704 4.528810 3.292504 0
M  V30 20 C -6.465510 4.716095 2.063665 0
M  V30 21 C -5.360320 4.001200 1.694598 0
M  V30 22 Cl -4.649233 4.315891 0.130837 0
M  V30 23 C -3.752240 1.497140 1.072049 0
M  V30 24 C -2.620044 0.780830 0.719591 0
M  V30 25 C -2.692795 -0.114220 -0.471089 0
M  V30 26 F -2.430132 -1.413007 -0.145197 0
M  V30 27 F -1.815627 0.350195 -1.426377 0
M  V30 28 C -1.462621 0.907001 1.466272 0
M  V30 29 N -0.359805 0.221494 1.138687 0
M  V30 30 C 1.253182 -1.707534 -0.529921 0
M  V30 31 C 1.432805 -2.587985 -1.573769 0
M  V30 32 C 2.665232 -3.184938 -1.726049 0
M  V30 33 C 3.095271 -4.141787 -2.742545 0
M  V30 34 C 2.043998 -4.648716 -3.750335 0
M  V30 35 C 3.142016 -3.750857 -4.174478 0
M  V30 36 C 3.985271 -5.229653 -2.216074 0
M  V30 37 H 3.541301 -5.965236 0.243594 0
M  V30 38 H 5.299171 -6.429418 0.210576 0
M  V30 39 H 4.829029 -4.873059 0.941994 0
M  V30 40 H 5.595631 -3.327164 -0.014719 0
M  V30 41 H 5.450123 -3.038449 -1.840824 0
M  V30 42 H 4.232523 -1.739271 0.919052 0
M  V30 43 H 2.818709 -0.286252 2.086210 0
M  V30 44 H -0.192563 2.466672 4.118143 0
M  V30 45 H -7.036674 3.412505 5.118264 0
M  V30 46 H -7.980137 5.078521 3.626214 0
M  V30 47 H -6.926595 5.464652 1.446754 0
M  V30 48 H -4.700633 1.454986 0.539171 0
M  V30 49 H -3.714279 -0.075011 -0.936075 0
M  V30 50 H 0.257957 -1.297857 -0.500103 0
M  V30 51 H 0.693009 -2.853102 -2.285602 0
M  V30 52 H 2.085669 -5.717524 -4.054205 0
M  V30 53 H 1.014921 -4.282536 -3.680453 0
M  V30 54 H 3.967313 -4.169043 -4.818416 0
M  V30 55 H 2.832406 -2.716865 -4.446217 0
M  V30 56 H 4.606745 -5.601999 -3.057100 0
M  V30 57 H 3.312884 -6.067912 -1.880302 0
M  V30 END ATOM
M  V30 BEGIN BOND
M  V30 1 1 1 2
M  V30 2 1 2 3
M  V30 3 1 3 4
M  V30 4 2 4 5
M  V30 5 1 5 6
M  V30 6 1 6 7
M  V30 7 1 7 8
M  V30 8 2 8 9
M  V30 9 1 9 10
M  V30 10 2 10 11
M  V30 11 1 11 12
M  V30 12 2 12 13
M  V30 13 1 12 14
M  V30 14 1 14 15
M  V30 15 2 15 16
M  V30 16 1 16 17
M  V30 17 1 16 18
M  V30 18 2 18 19
M  V30 19 1 19 20
M  V30 20 2 20 21
M  V30 21 1 21 22
M  V30 22 1 14 23
M  V30 23 2 23 24
M  V30 24 1 24 25
M  V30 25 1 25 26
M  V30 26 1 25 27
M  V30 27 1 24 28
M  V30 28 2 28 29
M  V30 29 2 6 30
M  V30 30 1 30 31
M  V30 31 2 31 32
M  V30 32 1 32 33
M  V30 33 1 33 34
M  V30 34 1 34 35
M  V30 35 1 33 36
M  V30 36 1 36 2
M  V30 37 1 32 4
M  V30 38 1 35 33
M  V30 39 1 29 8
M  V30 40 1 28 11
M  V30 41 1 21 15
M  V30 42 1 1 37
M  V30 43 1 1 38
M  V30 44 1 1 39
M  V30 45 1 3 40
M  V30 46 1 3 41
M  V30 47 1 5 42
M  V30 48 1 7 43
M  V30 49 1 10 44
M  V30 50 1 18 45
M  V30 51 1 19 46
M  V30 52 1 20 47
M  V30 53 1 23 48
M  V30 54 1 25 49
M  V30 55 1 30 50
M  V30 56 1 31 51
M  V30 57 1 34 52
M  V30 58 1 34 53
M  V30 59 1 35 54
M  V30 60 1 35 55
M  V30 61 1 36 56
M  V30 62 1 36 57
M  V30 END BOND
M  V30 END CTAB
M  END
>  <Dataset>  (907) 
ChEMBL_Kinases

>  <Ligand_Instance>  (907) 
nan

>  <PDB_ID>  (907) 
nan

>  <Standardized_SMILES>  (907) 
CN1Cc2cc(Nc3ncc4c(=O)n(-c5c(Cl)cccc5Cl)cc(C(F)F)c4n3)ccc2C2(CC2)C1

>  <Name>  (907) 
nan

>  <Pocket>  (907) 
nan

>  <ATP_Site>  (907) 
nan

>  <Peripheral>  (907) 
nan

>  <Num_H_Atoms_ProtBoundConf>  (907) 
nan

>  <Num_Resolved_Atoms>  (907) 
nan

>  <Num_Not_Resolved_Atoms>  (907) 
nan

$$$$
CHEMBL4447729
     RDKit          3D

  0  0  0  0  0  0  0  0  0  0999 V3000
M  V30 BEGIN CTAB
M  V30 COUNTS 45 48 0 0 0
M  V30 BEGIN ATOM
M  V30 1 O 0.306027 -3.028644 2.448727 0
M  V30 2 C -0.361114 -2.751047 1.430238 0
M  V30 3 N 0.752754 -2.480130 0.641780 0
M  V30 4 C 1.876948 -2.206748 -0.153828 0
M  V30 5 C 2.482708 -3.079628 -0.997500 0
M  V30 6 C 3.578951 -2.573204 -1.678092 0
M  V30 7 C 3.974279 -1.267282 -1.469814 0
M  V30 8 C 3.328928 -0.414984 -0.604120 0
M  V30 9 N 2.279253 -0.950183 0.029462 0
M  V30 10 C 3.665004 0.972323 -0.348474 0
M  V30 11 N 4.795469 1.609962 -0.686079 0
M  V30 12 N 4.699468 2.865178 -0.277602 0
M  V30 13 C 3.503033 3.031515 0.323834 0
M  V30 14 N 2.864714 1.827950 0.270005 0
M  V30 15 C 1.520993 1.538601 0.817711 0
M  V30 16 C 0.710878 2.775769 0.925397 0
M  V30 17 C -0.585146 2.738357 1.624696 0
M  V30 18 C -1.624301 1.751093 1.266223 0
M  V30 19 C -1.412278 0.333370 1.670692 0
M  V30 20 O -2.519016 -0.467554 1.268296 0
M  V30 21 C -2.660823 -1.799431 1.504172 0
M  V30 22 C -3.993214 -2.106090 1.684044 0
M  V30 23 C -4.392884 -3.420809 1.944424 0
M  V30 24 C -3.509213 -4.472363 2.037276 0
M  V30 25 C -2.187982 -4.133400 1.852863 0
M  V30 26 C -1.780107 -2.848540 1.595935 0
M  V30 27 H 0.089361 -2.334126 -0.148259 0
M  V30 28 H 1.970057 -4.005730 -0.970359 0
M  V30 29 H 4.035710 -3.275371 -2.330605 0
M  V30 30 H 4.830470 -0.889357 -2.008728 0
M  V30 31 H 3.232674 4.009359 0.732390 0
M  V30 32 H 1.653285 0.927560 1.687855 0
M  V30 33 H 1.033834 0.933447 -0.020551 0
M  V30 34 H 0.633548 3.279609 -0.095256 0
M  V30 35 H 1.350826 3.531366 1.495205 0
M  V30 36 H -0.424148 2.687603 2.762164 0
M  V30 37 H -1.003763 3.804199 1.541191 0
M  V30 38 H -1.923990 1.810773 0.189221 0
M  V30 39 H -2.572657 2.077087 1.804445 0
M  V30 40 H -0.479967 -0.048854 1.267901 0
M  V30 41 H -1.330591 0.234409 2.781850 0
M  V30 42 H -4.849967 -1.432579 1.652764 0
M  V30 43 H -5.442406 -3.706509 2.092605 0
M  V30 44 H -3.844472 -5.478681 2.239821 0
M  V30 45 H -1.442301 -4.941290 1.926227 0
M  V30 END ATOM
M  V30 BEGIN BOND
M  V30 1 2 1 2
M  V30 2 1 2 3
M  V30 3 1 3 4
M  V30 4 2 4 5
M  V30 5 1 5 6
M  V30 6 2 6 7
M  V30 7 1 7 8
M  V30 8 2 8 9
M  V30 9 1 8 10
M  V30 10 2 10 11
M  V30 11 1 11 12
M  V30 12 2 12 13
M  V30 13 1 13 14
M  V30 14 1 14 15
M  V30 15 1 15 16
M  V30 16 1 16 17
M  V30 17 1 17 18
M  V30 18 1 18 19
M  V30 19 1 19 20
M  V30 20 1 20 21
M  V30 21 2 21 22
M  V30 22 1 22 23
M  V30 23 2 23 24
M  V30 24 1 24 25
M  V30 25 2 25 26
M  V30 26 1 26 2
M  V30 27 1 9 4
M  V30 28 1 14 10
M  V30 29 1 26 21
M  V30 30 1 3 27
M  V30 31 1 5 28
M  V30 32 1 6 29
M  V30 33 1 7 30
M  V30 34 1 13 31
M  V30 35 1 15 32
M  V30 36 1 15 33
M  V30 37 1 16 34
M  V30 38 1 16 35
M  V30 39 1 17 36
M  V30 40 1 17 37
M  V30 41 1 18 38
M  V30 42 1 18 39
M  V30 43 1 19 40
M  V30 44 1 19 41
M  V30 45 1 22 42
M  V30 46 1 23 43
M  V30 47 1 24 44
M  V30 48 1 25 45
M  V30 END BOND
M  V30 END CTAB
M  END
>  <Dataset>  (908) 
ChEMBL_Kinases

>  <Ligand_Instance>  (908) 
nan

>  <PDB_ID>  (908) 
nan

>  <Standardized_SMILES>  (908) 
O=C1Nc2cccc(n2)-c2nncn2CCCCCOc2ccccc21

>  <Name>  (908) 
nan

>  <Pocket>  (908) 
nan

>  <ATP_Site>  (908) 
nan

>  <Peripheral>  (908) 
nan

>  <Num_H_Atoms_ProtBoundConf>  (908) 
nan

>  <Num_Resolved_Atoms>  (908) 
nan

>  <Num_Not_Resolved_Atoms>  (908) 
nan

$$$$
CHEMBL4447689
     RDKit          3D

  0  0  0  0  0  0  0  0  0  0999 V3000
M  V30 BEGIN CTAB
M  V30 COUNTS 45 48 0 0 0
M  V30 BEGIN ATOM
M  V30 1 C -0.828818 -7.380804 1.088500 0
M  V30 2 C -0.452011 -5.943214 1.176160 0
M  V30 3 N 0.438397 -5.224717 0.508243 0
M  V30 4 C 0.361578 -3.960857 0.999006 0
M  V30 5 C 1.126473 -2.749562 0.619287 0
M  V30 6 C 0.400182 -2.026846 -0.477793 0
M  V30 7 O -0.681648 -2.295977 -1.064723 0
M  V30 8 N 1.021702 -0.824945 -0.955612 0
M  V30 9 C 0.389125 -0.062521 -2.014699 0
M  V30 10 C 0.130134 1.376595 -1.642256 0
M  V30 11 N 1.006113 1.717050 -0.553564 0
M  V30 12 C 0.791694 2.497619 0.618002 0
M  V30 13 C 1.626817 3.614205 0.730033 0
M  V30 14 N 1.545131 4.460140 1.792532 0
M  V30 15 C 0.648398 4.243891 2.776674 0
M  V30 16 C -0.187918 3.154594 2.696964 0
M  V30 17 C -1.138382 2.875786 3.684569 0
M  V30 18 C -1.947570 1.768235 3.547452 0
M  V30 19 C -1.853954 0.911193 2.456173 0
M  V30 20 C -0.910597 1.183927 1.471465 0
M  V30 21 C -0.123357 2.282371 1.628361 0
M  V30 22 C 2.364165 1.162587 -0.668310 0
M  V30 23 C 2.272499 -0.312325 -0.433688 0
M  V30 24 C -0.614939 -3.964224 1.987843 0
M  V30 25 O -1.075481 -5.187353 2.055132 0
M  V30 26 H -1.741898 -7.533042 0.469854 0
M  V30 27 H -0.028138 -7.988763 0.605793 0
M  V30 28 H -1.005759 -7.813856 2.074297 0
M  V30 29 H 1.275580 -2.142220 1.514334 0
M  V30 30 H 2.116498 -3.113580 0.254876 0
M  V30 31 H -0.594367 -0.519918 -2.271530 0
M  V30 32 H 1.028388 -0.121405 -2.943639 0
M  V30 33 H 0.466623 2.020573 -2.506931 0
M  V30 34 H -0.928531 1.629032 -1.490847 0
M  V30 35 H 2.396667 3.941684 0.044540 0
M  V30 36 H 0.503472 4.850104 3.656301 0
M  V30 37 H -1.231126 3.527003 4.543353 0
M  V30 38 H -2.694508 1.497123 4.265120 0
M  V30 39 H -2.491822 0.042422 2.352902 0
M  V30 40 H -0.840097 0.526991 0.636977 0
M  V30 41 H 2.679396 1.284051 -1.741677 0
M  V30 42 H 3.096282 1.676827 -0.049367 0
M  V30 43 H 2.352537 -0.467156 0.669462 0
M  V30 44 H 3.078310 -0.884932 -0.965604 0
M  V30 45 H -0.916403 -3.098791 2.576176 0
M  V30 END ATOM
M  V30 BEGIN BOND
M  V30 1 1 1 2
M  V30 2 2 2 3
M  V30 3 1 3 4
M  V30 4 1 4 5
M  V30 5 1 5 6
M  V30 6 2 6 7
M  V30 7 1 6 8
M  V30 8 1 8 9
M  V30 9 1 9 10
M  V30 10 1 10 11
M  V30 11 1 11 12
M  V30 12 2 12 13
M  V30 13 1 13 14
M  V30 14 2 14 15
M  V30 15 1 15 16
M  V30 16 2 16 17
M  V30 17 1 17 18
M  V30 18 2 18 19
M  V30 19 1 19 20
M  V30 20 2 20 21
M  V30 21 1 11 22
M  V30 22 1 22 23
M  V30 23 2 4 24
M  V30 24 1 24 25
M  V30 25 1 25 2
M  V30 26 1 23 8
M  V30 27 1 21 12
M  V30 28 1 21 16
M  V30 29 1 1 26
M  V30 30 1 1 27
M  V30 31 1 1 28
M  V30 32 1 5 29
M  V30 33 1 5 30
M  V30 34 1 9 31
M  V30 35 1 9 32
M  V30 36 1 10 33
M  V30 37 1 10 34
M  V30 38 1 13 35
M  V30 39 1 15 36
M  V30 40 1 17 37
M  V30 41 1 18 38
M  V30 42 1 19 39
M  V30 43 1 20 40
M  V30 44 1 22 41
M  V30 45 1 22 42
M  V30 46 1 23 43
M  V30 47 1 23 44
M  V30 48 1 24 45
M  V30 END BOND
M  V30 END CTAB
M  END
>  <Dataset>  (909) 
ChEMBL_Kinases

>  <Ligand_Instance>  (909) 
nan

>  <PDB_ID>  (909) 
nan

>  <Standardized_SMILES>  (909) 
Cc1nc(CC(=O)N2CCN(c3cncc4ccccc34)CC2)co1

>  <Name>  (909) 
nan

>  <Pocket>  (909) 
nan

>  <ATP_Site>  (909) 
nan

>  <Peripheral>  (909) 
nan

>  <Num_H_Atoms_ProtBoundConf>  (909) 
nan

>  <Num_Resolved_Atoms>  (909) 
nan

>  <Num_Not_Resolved_Atoms>  (909) 
nan

$$$$
CHEMBL4447677
     RDKit          3D

  0  0  0  0  0  0  0  0  0  0999 V3000
M  V30 BEGIN CTAB
M  V30 COUNTS 35 37 0 0 0
M  V30 BEGIN ATOM
M  V30 1 C 1.419687 -3.697422 -0.566364 0
M  V30 2 C 0.074965 -3.360657 -1.113664 0
M  V30 3 N -0.529850 -2.169628 -0.522007 0
M  V30 4 C -1.846042 -1.809523 -1.067050 0
M  V30 5 C -0.222671 -1.205043 0.478004 0
M  V30 6 N -0.046726 0.066068 0.071898 0
M  V30 7 C 0.258242 1.086852 0.889090 0
M  V30 8 C 0.439337 2.460180 0.385627 0
M  V30 9 C 0.283775 2.663488 -0.970428 0
M  V30 10 C 0.451956 3.946719 -1.449108 0
M  V30 11 N 0.755906 4.981677 -0.652758 0
M  V30 12 C 0.907822 4.777501 0.678859 0
M  V30 13 C 0.752631 3.504875 1.235138 0
M  V30 14 N 0.394354 0.806833 2.200948 0
M  V30 15 C 0.236930 -0.433703 2.699387 0
M  V30 16 C 0.372925 -0.722763 4.040402 0
M  V30 17 N 0.197962 -1.987653 4.465681 0
M  V30 18 C -0.107629 -2.982549 3.613703 0
M  V30 19 C -0.259548 -2.758339 2.245102 0
M  V30 20 C -0.076314 -1.456135 1.826750 0
M  V30 21 H 1.971715 -2.805928 -0.212633 0
M  V30 22 H 2.026392 -4.111535 -1.410990 0
M  V30 23 H 1.362603 -4.498387 0.187552 0
M  V30 24 H 0.075290 -3.279137 -2.230935 0
M  V30 25 H -0.610191 -4.202758 -0.884092 0
M  V30 26 H -2.625429 -1.798948 -0.284685 0
M  V30 27 H -1.819318 -0.760029 -1.478633 0
M  V30 28 H -2.185769 -2.457641 -1.870877 0
M  V30 29 H 0.035785 1.857332 -1.668621 0
M  V30 30 H 0.332493 4.127744 -2.523117 0
M  V30 31 H 1.152034 5.546325 1.399264 0
M  V30 32 H 0.871361 3.324822 2.303626 0
M  V30 33 H 0.618963 0.063888 4.746662 0
M  V30 34 H -0.261224 -4.029606 3.904638 0
M  V30 35 H -0.508256 -3.558372 1.562921 0
M  V30 END ATOM
M  V30 BEGIN BOND
M  V30 1 1 1 2
M  V30 2 1 2 3
M  V30 3 1 3 4
M  V30 4 1 3 5
M  V30 5 2 5 6
M  V30 6 1 6 7
M  V30 7 1 7 8
M  V30 8 2 8 9
M  V30 9 1 9 10
M  V30 10 2 10 11
M  V30 11 1 11 12
M  V30 12 2 12 13
M  V30 13 2 7 14
M  V30 14 1 14 15
M  V30 15 2 15 16
M  V30 16 1 16 17
M  V30 17 2 17 18
M  V30 18 1 18 19
M  V30 19 2 19 20
M  V30 20 1 20 5
M  V30 21 1 13 8
M  V30 22 1 20 15
M  V30 23 1 1 21
M  V30 24 1 1 22
M  V30 25 1 1 23
M  V30 26 1 2 24
M  V30 27 1 2 25
M  V30 28 1 4 26
M  V30 29 1 4 27
M  V30 30 1 4 28
M  V30 31 1 9 29
M  V30 32 1 10 30
M  V30 33 1 12 31
M  V30 34 1 13 32
M  V30 35 1 16 33
M  V30 36 1 18 34
M  V30 37 1 19 35
M  V30 END BOND
M  V30 END CTAB
M  END
>  <Dataset>  (910) 
ChEMBL_Kinases

>  <Ligand_Instance>  (910) 
nan

>  <PDB_ID>  (910) 
nan

>  <Standardized_SMILES>  (910) 
CCN(C)c1nc(-c2ccncc2)nc2cnccc12

>  <Name>  (910) 
nan

>  <Pocket>  (910) 
nan

>  <ATP_Site>  (910) 
nan

>  <Peripheral>  (910) 
nan

>  <Num_H_Atoms_ProtBoundConf>  (910) 
nan

>  <Num_Resolved_Atoms>  (910) 
nan

>  <Num_Not_Resolved_Atoms>  (910) 
nan

$$$$
CHEMBL4447617
     RDKit          3D

  0  0  0  0  0  0  0  0  0  0999 V3000
M  V30 BEGIN CTAB
M  V30 COUNTS 50 52 0 0 0
M  V30 BEGIN ATOM
M  V30 1 C -1.522138 -4.591868 1.031297 0
M  V30 2 N -1.552877 -3.725364 -0.124599 0
M  V30 3 C -2.110722 -4.056794 -1.389554 0
M  V30 4 O -2.625802 -5.197112 -1.533338 0
M  V30 5 C -2.123366 -3.160554 -2.527682 0
M  V30 6 C -1.589106 -1.889245 -2.486932 0
M  V30 7 C -1.645552 -1.105809 -3.617794 0
M  V30 8 O -1.102226 0.167837 -3.552712 0
M  V30 9 C -0.510726 0.678269 -2.406641 0
M  V30 10 C 0.842565 0.478014 -2.226845 0
M  V30 11 C 1.421188 0.994393 -1.075273 0
M  V30 12 C 0.605508 1.675615 -0.182993 0
M  V30 13 N 1.299159 2.173908 0.981935 0
M  V30 14 C 1.236611 1.142278 1.972870 0
M  V30 15 O 0.603603 0.128100 1.531181 0
M  V30 16 C 1.838189 1.270135 3.321190 0
M  V30 17 C 2.521368 2.375325 3.786201 0
M  V30 18 C 3.013216 2.313214 5.073686 0
M  V30 19 C 2.832025 1.198277 5.863119 0
M  V30 20 O 3.324254 1.129132 7.159369 0
M  V30 21 C 4.042094 2.190411 7.759023 0
M  V30 22 C 2.145617 0.102552 5.379592 0
M  V30 23 C 1.645165 0.131929 4.107153 0
M  V30 24 C -0.746550 1.866771 -0.378543 0
M  V30 25 C -1.329472 1.354955 -1.523680 0
M  V30 26 C -2.205798 -1.496964 -4.816840 0
M  V30 27 C -2.732235 -2.782478 -4.816706 0
M  V30 28 C -2.698318 -3.614881 -3.693261 0
M  V30 29 N -3.288639 -4.910431 -3.872276 0
M  V30 30 H -1.622600 -5.671962 0.785672 0
M  V30 31 H -2.267122 -4.259784 1.799317 0
M  V30 32 H -0.534223 -4.494614 1.569219 0
M  V30 33 H -1.122079 -2.786267 0.013591 0
M  V30 34 H -1.134319 -1.515720 -1.582337 0
M  V30 35 H 1.450498 -0.052919 -2.933321 0
M  V30 36 H 2.479400 0.850674 -0.911694 0
M  V30 37 H 1.804970 3.073340 1.235958 0
M  V30 38 H 2.616531 3.202660 3.103052 0
M  V30 39 H 3.549057 3.174747 5.444289 0
M  V30 40 H 4.447835 1.780867 8.726099 0
M  V30 41 H 3.401729 3.087133 7.956231 0
M  V30 42 H 4.907148 2.518258 7.148184 0
M  V30 43 H 2.016024 -0.766569 6.023847 0
M  V30 44 H 1.117320 -0.752816 3.782104 0
M  V30 45 H -1.308140 2.404158 0.357846 0
M  V30 46 H -2.389816 1.484057 -1.714191 0
M  V30 47 H -2.237938 -0.865079 -5.688826 0
M  V30 48 H -3.188623 -3.131526 -5.756147 0
M  V30 49 H -4.248984 -5.307975 -3.795814 0
M  V30 50 H -2.422179 -5.451717 -4.134765 0
M  V30 END ATOM
M  V30 BEGIN BOND
M  V30 1 1 1 2
M  V30 2 1 2 3
M  V30 3 2 3 4
M  V30 4 1 3 5
M  V30 5 2 5 6
M  V30 6 1 6 7
M  V30 7 1 7 8
M  V30 8 1 8 9
M  V30 9 2 9 10
M  V30 10 1 10 11
M  V30 11 2 11 12
M  V30 12 1 12 13
M  V30 13 1 13 14
M  V30 14 2 14 15
M  V30 15 1 14 16
M  V30 16 2 16 17
M  V30 17 1 17 18
M  V30 18 2 18 19
M  V30 19 1 19 20
M  V30 20 1 20 21
M  V30 21 1 19 22
M  V30 22 2 22 23
M  V30 23 1 12 24
M  V30 24 2 24 25
M  V30 25 2 7 26
M  V30 26 1 26 27
M  V30 27 2 27 28
M  V30 28 1 28 29
M  V30 29 1 28 5
M  V30 30 1 25 9
M  V30 31 1 23 16
M  V30 32 1 1 30
M  V30 33 1 1 31
M  V30 34 1 1 32
M  V30 35 1 2 33
M  V30 36 1 6 34
M  V30 37 1 10 35
M  V30 38 1 11 36
M  V30 39 1 13 37
M  V30 40 1 17 38
M  V30 41 1 18 39
M  V30 42 1 21 40
M  V30 43 1 21 41
M  V30 44 1 21 42
M  V30 45 1 22 43
M  V30 46 1 23 44
M  V30 47 1 24 45
M  V30 48 1 25 46
M  V30 49 1 26 47
M  V30 50 1 27 48
M  V30 51 1 29 49
M  V30 52 1 29 50
M  V30 END BOND
M  V30 END CTAB
M  END
>  <Dataset>  (911) 
ChEMBL_Kinases

>  <Ligand_Instance>  (911) 
nan

>  <PDB_ID>  (911) 
nan

>  <Standardized_SMILES>  (911) 
CNC(=O)c1cc(Oc2ccc(NC(=O)c3ccc(OC)cc3)cc2)ccc1N

>  <Name>  (911) 
nan

>  <Pocket>  (911) 
nan

>  <ATP_Site>  (911) 
nan

>  <Peripheral>  (911) 
nan

>  <Num_H_Atoms_ProtBoundConf>  (911) 
nan

>  <Num_Resolved_Atoms>  (911) 
nan

>  <Num_Not_Resolved_Atoms>  (911) 
nan

$$$$
CHEMBL4447579
     RDKit          3D

  0  0  0  0  0  0  0  0  0  0999 V3000
M  V30 BEGIN CTAB
M  V30 COUNTS 40 43 0 0 0
M  V30 BEGIN ATOM
M  V30 1 N -2.091367 -5.337639 1.639850 0
M  V30 2 C -1.854850 -5.225006 3.039572 0
M  V30 3 O -2.104480 -6.158574 3.869224 0
M  V30 4 C -1.299668 -3.997700 3.598591 0
M  V30 5 C -1.077453 -3.900214 4.951971 0
M  V30 6 C -0.555302 -2.732843 5.442609 0
M  V30 7 C -0.244845 -1.663409 4.658812 0
M  V30 8 C -0.454261 -1.719659 3.281467 0
M  V30 9 C -0.178313 -0.668903 2.306159 0
M  V30 10 C 0.185786 -1.033322 1.016973 0
M  V30 11 C 0.460770 -0.096270 0.042067 0
M  V30 12 C 0.383566 1.260130 0.313958 0
M  V30 13 C 0.591841 2.421343 -0.428401 0
M  V30 14 N 0.979496 2.339844 -1.797809 0
M  V30 15 C 2.391196 2.319785 -1.960829 0
M  V30 16 O 3.638369 2.319788 -1.799117 0
M  V30 17 C 3.010523 2.236778 -3.303770 0
M  V30 18 C 2.344070 1.184853 -4.173394 0
M  V30 19 C 2.317164 2.628385 -4.538224 0
M  V30 20 N 0.353517 3.456954 0.412239 0
M  V30 21 N 0.016988 2.988558 1.606959 0
M  V30 22 C 0.018397 1.634403 1.607018 0
M  V30 23 C -0.257203 0.696364 2.584261 0
M  V30 24 C -0.987319 -2.915004 2.790330 0
M  V30 25 H -3.037874 -5.358566 1.202437 0
M  V30 26 H -3.061588 -5.353778 1.255174 0
M  V30 27 H -1.306165 -4.722181 5.626485 0
M  V30 28 H -0.373818 -2.640939 6.511403 0
M  V30 29 H 0.170604 -0.717398 4.999103 0
M  V30 30 H 0.273444 -2.052790 0.706924 0
M  V30 31 H 0.747092 -0.401983 -0.972351 0
M  V30 32 H 0.436763 2.292497 -2.682133 0
M  V30 33 H 4.121290 2.231131 -3.338200 0
M  V30 34 H 1.408003 0.700440 -3.845492 0
M  V30 35 H 2.976291 0.550268 -4.846898 0
M  V30 36 H 2.890108 2.986578 -5.400957 0
M  V30 37 H 1.322832 3.127400 -4.445396 0
M  V30 38 H -0.221413 3.558059 2.449685 0
M  V30 39 H -0.540590 0.976614 3.587380 0
M  V30 40 H -1.188123 -3.062439 1.738147 0
M  V30 END ATOM
M  V30 BEGIN BOND
M  V30 1 1 1 2
M  V30 2 2 2 3
M  V30 3 1 2 4
M  V30 4 2 4 5
M  V30 5 1 5 6
M  V30 6 2 6 7
M  V30 7 1 7 8
M  V30 8 1 8 9
M  V30 9 2 9 10
M  V30 10 1 10 11
M  V30 11 2 11 12
M  V30 12 1 12 13
M  V30 13 1 13 14
M  V30 14 1 14 15
M  V30 15 2 15 16
M  V30 16 1 15 17
M  V30 17 1 17 18
M  V30 18 1 18 19
M  V30 19 2 13 20
M  V30 20 1 20 21
M  V30 21 1 21 22
M  V30 22 2 22 23
M  V30 23 2 8 24
M  V30 24 1 24 4
M  V30 25 1 23 9
M  V30 26 1 22 12
M  V30 27 1 19 17
M  V30 28 1 1 25
M  V30 29 1 1 26
M  V30 30 1 5 27
M  V30 31 1 6 28
M  V30 32 1 7 29
M  V30 33 1 10 30
M  V30 34 1 11 31
M  V30 35 1 14 32
M  V30 36 1 17 33
M  V30 37 1 18 34
M  V30 38 1 18 35
M  V30 39 1 19 36
M  V30 40 1 19 37
M  V30 41 1 21 38
M  V30 42 1 23 39
M  V30 43 1 24 40
M  V30 END BOND
M  V30 END CTAB
M  END
>  <Dataset>  (912) 
ChEMBL_Kinases

>  <Ligand_Instance>  (912) 
nan

>  <PDB_ID>  (912) 
nan

>  <Standardized_SMILES>  (912) 
NC(=O)c1cccc(-c2ccc3c(NC(=O)C4CC4)n[nH]c3c2)c1

>  <Name>  (912) 
nan

>  <Pocket>  (912) 
nan

>  <ATP_Site>  (912) 
nan

>  <Peripheral>  (912) 
nan

>  <Num_H_Atoms_ProtBoundConf>  (912) 
nan

>  <Num_Resolved_Atoms>  (912) 
nan

>  <Num_Not_Resolved_Atoms>  (912) 
nan

$$$$
CHEMBL4749972
     RDKit          3D

  0  0  0  0  0  0  0  0  0  0999 V3000
M  V30 BEGIN CTAB
M  V30 COUNTS 94 99 0 0 0
M  V30 BEGIN ATOM
M  V30 1 C -5.079350 -3.669713 2.487421 0
M  V30 2 N -3.827693 -2.959515 2.654983 0
M  V30 3 C -2.637092 -3.566038 2.231378 0
M  V30 4 O -2.850501 -4.705405 1.739838 0
M  V30 5 C -1.414888 -2.803096 2.427434 0
M  V30 6 S -1.229001 -1.180026 3.144258 0
M  V30 7 C 0.594965 -1.153265 2.923042 0
M  V30 8 C 1.422120 0.023572 3.302807 0
M  V30 9 C 2.788389 0.030285 3.199927 0
M  V30 10 C 3.412224 1.202024 3.539398 0
M  V30 11 N 2.765876 2.313756 3.957508 0
M  V30 12 C 1.414560 2.336358 4.069698 0
M  V30 13 N 0.853721 3.549305 4.479204 0
M  V30 14 C -0.504318 3.814260 4.722865 0
M  V30 15 O -1.384557 2.933386 4.599932 0
M  V30 16 C -1.313571 4.960273 5.129861 0
M  V30 17 C -0.651982 5.977183 6.044212 0
M  V30 18 C -1.021873 6.323846 4.594290 0
M  V30 19 C 0.800327 1.176208 3.733376 0
M  V30 20 N 0.858268 -2.201592 2.412344 0
M  V30 21 C -0.049726 -3.109253 2.112813 0
M  V30 22 O 0.122432 -4.339523 1.519705 0
M  V30 23 C 1.319751 -4.923335 1.103613 0
M  V30 24 C 2.061429 -4.004789 0.129167 0
M  V30 25 C 3.267474 -4.690863 -0.374563 0
M  V30 26 C 4.104733 -3.834306 -1.308997 0
M  V30 27 C 4.658379 -2.628403 -0.624151 0
M  V30 28 C 5.475204 -1.811935 -1.550266 0
M  V30 29 C 4.775258 -1.128161 -2.699710 0
M  V30 30 C 3.824365 -0.139493 -2.114106 0
M  V30 31 C 3.098331 0.789122 -2.959931 0
M  V30 32 C 2.129900 0.431584 -4.003058 0
M  V30 33 O 1.020362 -0.241359 -3.757388 0
M  V30 34 C 0.191665 -1.170753 -3.434212 0
M  V30 35 C 0.440358 -2.462031 -3.048248 0
M  V30 36 C -0.554427 -3.367985 -2.729074 0
M  V30 37 C -1.850974 -2.917031 -2.813052 0
M  V30 38 C -2.176467 -1.636539 -3.192380 0
M  V30 39 C -1.147832 -0.747472 -3.507809 0
M  V30 40 C -1.865195 0.503330 -3.838966 0
M  V30 41 O -1.277324 1.559013 -4.181885 0
M  V30 42 N -3.263535 0.302483 -3.704697 0
M  V30 43 C -4.278992 1.335670 -3.950921 0
M  V30 44 C -5.003897 1.709170 -2.709152 0
M  V30 45 C -6.423811 1.258560 -2.658396 0
M  V30 46 C -7.177959 1.446634 -3.917330 0
M  V30 47 O -8.360151 1.893186 -4.049465 0
M  V30 48 N -6.530784 1.096998 -5.111067 0
M  V30 49 C -5.139204 0.925429 -5.077326 0
M  V30 50 O -4.450457 0.396191 -6.013547 0
M  V30 51 C -3.501341 -1.037159 -3.298244 0
M  V30 52 O -4.567872 -1.617161 -3.072164 0
M  V30 53 H -4.996884 -4.757414 2.678972 0
M  V30 54 H -5.483507 -3.566169 1.447879 0
M  V30 55 H -5.880221 -3.309179 3.174273 0
M  V30 56 H -3.916195 -2.025916 3.089075 0
M  V30 57 H 3.237536 -0.887206 2.860123 0
M  V30 58 H 4.488225 1.233744 3.465326 0
M  V30 59 H 1.398816 4.415723 4.653100 0
M  V30 60 H -2.379400 4.733892 5.286439 0
M  V30 61 H -1.260544 6.428269 6.864100 0
M  V30 62 H 0.432283 5.855148 6.263583 0
M  V30 63 H -1.894326 6.985865 4.417251 0
M  V30 64 H -0.196725 6.478644 3.881161 0
M  V30 65 H -0.265293 1.144754 3.807157 0
M  V30 66 H 1.980442 -5.140545 1.945079 0
M  V30 67 H 1.113646 -5.891868 0.574993 0
M  V30 68 H 2.259874 -3.047715 0.654964 0
M  V30 69 H 1.372353 -3.749715 -0.689242 0
M  V30 70 H 2.983981 -5.618372 -0.914309 0
M  V30 71 H 3.944289 -5.031965 0.437477 0
M  V30 72 H 3.547282 -3.523717 -2.202108 0
M  V30 73 H 5.000520 -4.420660 -1.667867 0
M  V30 74 H 3.854370 -2.003486 -0.179703 0
M  V30 75 H 5.361171 -2.981421 0.182186 0
M  V30 76 H 6.324856 -2.418372 -2.008849 0
M  V30 77 H 6.077191 -1.018086 -0.983965 0
M  V30 78 H 5.507292 -0.560866 -3.323110 0
M  V30 79 H 4.223394 -1.873236 -3.295260 0
M  V30 80 H 4.468499 0.498220 -1.413417 0
M  V30 81 H 3.129131 -0.650763 -1.390698 0
M  V30 82 H 3.887719 1.438463 -3.485993 0
M  V30 83 H 2.625119 1.576630 -2.279062 0
M  V30 84 H 1.829501 1.448979 -4.469096 0
M  V30 85 H 2.710348 -0.110337 -4.834935 0
M  V30 86 H 1.483252 -2.675936 -3.027704 0
M  V30 87 H -0.177216 -4.341944 -2.445723 0
M  V30 88 H -2.586730 -3.658256 -2.555710 0
M  V30 89 H -3.749640 2.281994 -4.294513 0
M  V30 90 H -4.929500 2.832094 -2.581555 0
M  V30 91 H -4.473675 1.226183 -1.853711 0
M  V30 92 H -6.432940 0.175855 -2.344323 0
M  V30 93 H -6.932914 1.801071 -1.813688 0
M  V30 94 H -7.032441 0.957052 -6.026559 0
M  V30 END ATOM
M  V30 BEGIN BOND
M  V30 1 1 1 2
M  V30 2 1 2 3
M  V30 3 2 3 4
M  V30 4 1 3 5
M  V30 5 1 5 6
M  V30 6 1 6 7
M  V30 7 1 7 8
M  V30 8 2 8 9
M  V30 9 1 9 10
M  V30 10 2 10 11
M  V30 11 1 11 12
M  V30 12 1 12 13
M  V30 13 1 13 14
M  V30 14 2 14 15
M  V30 15 1 14 16
M  V30 16 1 16 17
M  V30 17 1 17 18
M  V30 18 2 12 19
M  V30 19 2 7 20
M  V30 20 1 20 21
M  V30 21 1 21 22
M  V30 22 1 22 23
M  V30 23 1 23 24
M  V30 24 1 24 25
M  V30 25 1 25 26
M  V30 26 1 26 27
M  V30 27 1 27 28
M  V30 28 1 28 29
M  V30 29 1 29 30
M  V30 30 1 30 31
M  V30 31 1 31 32
M  V30 32 1 32 33
M  V30 33 1 33 34
M  V30 34 2 34 35
M  V30 35 1 35 36
M  V30 36 2 36 37
M  V30 37 1 37 38
M  V30 38 2 38 39
M  V30 39 1 39 40
M  V30 40 2 40 41
M  V30 41 1 40 42
M  V30 42 1 42 43
M  V30 43 1 43 44
M  V30 44 1 44 45
M  V30 45 1 45 46
M  V30 46 2 46 47
M  V30 47 1 46 48
M  V30 48 1 48 49
M  V30 49 2 49 50
M  V30 50 1 42 51
M  V30 51 2 51 52
M  V30 52 2 21 5
M  V30 53 1 39 34
M  V30 54 1 49 43
M  V30 55 1 19 8
M  V30 56 1 51 38
M  V30 57 1 18 16
M  V30 58 1 1 53
M  V30 59 1 1 54
M  V30 60 1 1 55
M  V30 61 1 2 56
M  V30 62 1 9 57
M  V30 63 1 10 58
M  V30 64 1 13 59
M  V30 65 1 16 60
M  V30 66 1 17 61
M  V30 67 1 17 62
M  V30 68 1 18 63
M  V30 69 1 18 64
M  V30 70 1 19 65
M  V30 71 1 23 66
M  V30 72 1 23 67
M  V30 73 1 24 68
M  V30 74 1 24 69
M  V30 75 1 25 70
M  V30 76 1 25 71
M  V30 77 1 26 72
M  V30 78 1 26 73
M  V30 79 1 27 74
M  V30 80 1 27 75
M  V30 81 1 28 76
M  V30 82 1 28 77
M  V30 83 1 29 78
M  V30 84 1 29 79
M  V30 85 1 30 80
M  V30 86 1 30 81
M  V30 87 1 31 82
M  V30 88 1 31 83
M  V30 89 1 32 84
M  V30 90 1 32 85
M  V30 91 1 35 86
M  V30 92 1 36 87
M  V30 93 1 37 88
M  V30 94 1 43 89
M  V30 95 1 44 90
M  V30 96 1 44 91
M  V30 97 1 45 92
M  V30 98 1 45 93
M  V30 99 1 48 94
M  V30 END BOND
M  V30 END CTAB
M  END
>  <Dataset>  (913) 
ChEMBL_Kinases

>  <Ligand_Instance>  (913) 
nan

>  <PDB_ID>  (913) 
nan

>  <Standardized_SMILES>  (913) 
CNC(=O)c1sc(-c2ccnc(NC(=O)C3CC3)c2)nc1OCCCCCCCCCCOc1cccc2c1C(=O)N(C1CCC(=O)NC1=O)C2=O

>  <Name>  (913) 
nan

>  <Pocket>  (913) 
nan

>  <ATP_Site>  (913) 
nan

>  <Peripheral>  (913) 
nan

>  <Num_H_Atoms_ProtBoundConf>  (913) 
nan

>  <Num_Resolved_Atoms>  (913) 
nan

>  <Num_Not_Resolved_Atoms>  (913) 
nan

$$$$
CHEMBL4447521
     RDKit          3D

  0  0  0  0  0  0  0  0  0  0999 V3000
M  V30 BEGIN CTAB
M  V30 COUNTS 46 48 0 0 0
M  V30 BEGIN ATOM
M  V30 1 C 0.750479 -6.758135 -1.239780 0
M  V30 2 O 0.284987 -5.425960 -1.318271 0
M  V30 3 C 1.111089 -4.392134 -1.737969 0
M  V30 4 C 2.428577 -4.540001 -2.111335 0
M  V30 5 C 3.222204 -3.494249 -2.522578 0
M  V30 6 C 2.707022 -2.216240 -2.577244 0
M  V30 7 C 1.386023 -2.042451 -2.207205 0
M  V30 8 C 0.694534 -0.706182 -2.218069 0
M  V30 9 N 0.590975 -0.244375 -0.856050 0
M  V30 10 C -0.016256 0.992662 -0.510114 0
M  V30 11 O -0.453442 1.641383 -1.506959 0
M  V30 12 C -0.131529 1.480249 0.859019 0
M  V30 13 C 0.316744 0.844145 1.995988 0
M  V30 14 C 0.174561 1.363564 3.264746 0
M  V30 15 C -0.454374 2.601397 3.438665 0
M  V30 16 C -0.607092 3.153136 4.778030 0
M  V30 17 C -0.624556 4.497906 5.143359 0
M  V30 18 C -0.780237 4.842890 6.471052 0
M  V30 19 N -0.920144 3.923493 7.461724 0
M  V30 20 C -0.904006 2.615441 7.112244 0
M  V30 21 C -0.751932 2.217683 5.804642 0
M  V30 22 C -0.906788 3.246558 2.304434 0
M  V30 23 C -0.757706 2.713506 1.034859 0
M  V30 24 C 0.599418 -3.103269 -1.795424 0
M  V30 25 O -0.730161 -2.925532 -1.423490 0
M  V30 26 C -1.822504 -3.003724 -2.310656 0
M  V30 27 H 0.760533 -7.256840 -2.223442 0
M  V30 28 H 1.785705 -6.820497 -0.807666 0
M  V30 29 H 0.095541 -7.346194 -0.545553 0
M  V30 30 H 2.847247 -5.531155 -2.075048 0
M  V30 31 H 4.264471 -3.638382 -2.812754 0
M  V30 32 H 3.269590 -1.349498 -2.889168 0
M  V30 33 H 1.290385 0.020278 -2.815923 0
M  V30 34 H -0.254964 -0.879408 -2.731337 0
M  V30 35 H 0.969492 -0.818748 -0.049567 0
M  V30 36 H 0.799038 -0.107111 1.853838 0
M  V30 37 H 0.553712 0.800553 4.111283 0
M  V30 38 H -0.511417 5.180730 4.330515 0
M  V30 39 H -0.788340 5.911739 6.717680 0
M  V30 40 H -1.021530 1.922223 7.956125 0
M  V30 41 H -0.758209 1.144203 5.675917 0
M  V30 42 H -1.385510 4.201602 2.494348 0
M  V30 43 H -1.134584 3.267976 0.184352 0
M  V30 44 H -1.419175 -3.207923 -3.339739 0
M  V30 45 H -2.347041 -2.010075 -2.408304 0
M  V30 46 H -2.532538 -3.811700 -2.071275 0
M  V30 END ATOM
M  V30 BEGIN BOND
M  V30 1 1 1 2
M  V30 2 1 2 3
M  V30 3 2 3 4
M  V30 4 1 4 5
M  V30 5 2 5 6
M  V30 6 1 6 7
M  V30 7 1 7 8
M  V30 8 1 8 9
M  V30 9 1 9 10
M  V30 10 2 10 11
M  V30 11 1 10 12
M  V30 12 2 12 13
M  V30 13 1 13 14
M  V30 14 2 14 15
M  V30 15 1 15 16
M  V30 16 2 16 17
M  V30 17 1 17 18
M  V30 18 2 18 19
M  V30 19 1 19 20
M  V30 20 2 20 21
M  V30 21 1 15 22
M  V30 22 2 22 23
M  V30 23 2 7 24
M  V30 24 1 24 25
M  V30 25 1 25 26
M  V30 26 1 24 3
M  V30 27 1 23 12
M  V30 28 1 21 16
M  V30 29 1 1 27
M  V30 30 1 1 28
M  V30 31 1 1 29
M  V30 32 1 4 30
M  V30 33 1 5 31
M  V30 34 1 6 32
M  V30 35 1 8 33
M  V30 36 1 8 34
M  V30 37 1 9 35
M  V30 38 1 13 36
M  V30 39 1 14 37
M  V30 40 1 17 38
M  V30 41 1 18 39
M  V30 42 1 20 40
M  V30 43 1 21 41
M  V30 44 1 22 42
M  V30 45 1 23 43
M  V30 46 1 26 44
M  V30 47 1 26 45
M  V30 48 1 26 46
M  V30 END BOND
M  V30 END CTAB
M  END
>  <Dataset>  (914) 
ChEMBL_Kinases

>  <Ligand_Instance>  (914) 
nan

>  <PDB_ID>  (914) 
nan

>  <Standardized_SMILES>  (914) 
COc1cccc(CNC(=O)c2ccc(-c3ccncc3)cc2)c1OC

>  <Name>  (914) 
nan

>  <Pocket>  (914) 
nan

>  <ATP_Site>  (914) 
nan

>  <Peripheral>  (914) 
nan

>  <Num_H_Atoms_ProtBoundConf>  (914) 
nan

>  <Num_Resolved_Atoms>  (914) 
nan

>  <Num_Not_Resolved_Atoms>  (914) 
nan

$$$$
CHEMBL4447510
     RDKit          3D

  0  0  0  0  0  0  0  0  0  0999 V3000
M  V30 BEGIN CTAB
M  V30 COUNTS 36 39 0 0 0
M  V30 BEGIN ATOM
M  V30 1 F 1.626765 -3.207972 3.577646 0
M  V30 2 C 1.886438 -3.774394 2.372166 0
M  V30 3 C 2.628122 -4.951513 2.398045 0
M  V30 4 C 2.936982 -5.594708 1.204413 0
M  V30 5 C 2.477103 -5.013385 0.019075 0
M  V30 6 Cl 2.835228 -5.779012 -1.521050 0
M  V30 7 C 1.742729 -3.844067 0.023363 0
M  V30 8 C 1.435502 -3.205770 1.198871 0
M  V30 9 C 0.666922 -1.970223 1.295417 0
M  V30 10 C 0.167371 -1.315598 0.188862 0
M  V30 11 C -0.564038 -0.146322 0.228938 0
M  V30 12 N -1.074948 0.520754 -0.903933 0
M  V30 13 C -0.856778 1.825223 -1.424651 0
M  V30 14 C 0.021794 2.655442 -0.762351 0
M  V30 15 C 0.165063 3.903625 -1.347156 0
M  V30 16 N -0.486294 4.309952 -2.474383 0
M  V30 17 C -1.336866 3.424846 -3.064969 0
M  V30 18 C -1.550350 2.140648 -2.551966 0
M  V30 19 C -0.820668 0.420607 1.477083 0
M  V30 20 C -1.474926 1.525358 1.982476 0
M  V30 21 C -1.354569 1.506557 3.346401 0
M  V30 22 N -0.637060 0.412763 3.722511 0
M  V30 23 C -0.315236 -0.244420 2.575480 0
M  V30 24 N 0.392837 -1.384791 2.470248 0
M  V30 25 H 2.975610 -5.384808 3.340551 0
M  V30 26 H 3.511508 -6.511666 1.183973 0
M  V30 27 H 1.407786 -3.427207 -0.891346 0
M  V30 28 H 0.330216 -1.699313 -0.791718 0
M  V30 29 H -1.698238 -0.194894 -1.319131 0
M  V30 30 H 0.572434 2.405043 0.131785 0
M  V30 31 H 0.823560 4.665559 -0.937683 0
M  V30 32 H -1.861605 3.732266 -3.960686 0
M  V30 33 H -2.227031 1.446985 -3.028350 0
M  V30 34 H -1.962750 2.217680 1.321354 0
M  V30 35 H -1.784563 2.274279 4.007443 0
M  V30 36 H -0.384386 0.135609 4.708256 0
M  V30 END ATOM
M  V30 BEGIN BOND
M  V30 1 1 1 2
M  V30 2 2 2 3
M  V30 3 1 3 4
M  V30 4 2 4 5
M  V30 5 1 5 6
M  V30 6 1 5 7
M  V30 7 2 7 8
M  V30 8 1 8 9
M  V30 9 2 9 10
M  V30 10 1 10 11
M  V30 11 1 11 12
M  V30 12 1 12 13
M  V30 13 2 13 14
M  V30 14 1 14 15
M  V30 15 2 15 16
M  V30 16 1 16 17
M  V30 17 2 17 18
M  V30 18 2 11 19
M  V30 19 1 19 20
M  V30 20 2 20 21
M  V30 21 1 21 22
M  V30 22 1 22 23
M  V30 23 2 23 24
M  V30 24 1 8 2
M  V30 25 1 24 9
M  V30 26 1 18 13
M  V30 27 1 23 19
M  V30 28 1 3 25
M  V30 29 1 4 26
M  V30 30 1 7 27
M  V30 31 1 10 28
M  V30 32 1 12 29
M  V30 33 1 14 30
M  V30 34 1 15 31
M  V30 35 1 17 32
M  V30 36 1 18 33
M  V30 37 1 20 34
M  V30 38 1 21 35
M  V30 39 1 22 36
M  V30 END BOND
M  V30 END CTAB
M  END
>  <Dataset>  (915) 
ChEMBL_Kinases

>  <Ligand_Instance>  (915) 
nan

>  <PDB_ID>  (915) 
nan

>  <Standardized_SMILES>  (915) 
Fc1ccc(Cl)cc1-c1cc(Nc2ccncc2)c2cc[nH]c2n1

>  <Name>  (915) 
nan

>  <Pocket>  (915) 
nan

>  <ATP_Site>  (915) 
nan

>  <Peripheral>  (915) 
nan

>  <Num_H_Atoms_ProtBoundConf>  (915) 
nan

>  <Num_Resolved_Atoms>  (915) 
nan

>  <Num_Not_Resolved_Atoms>  (915) 
nan

$$$$
CHEMBL4749926
     RDKit          3D

  0  0  0  0  0  0  0  0  0  0999 V3000
M  V30 BEGIN CTAB
M  V30 COUNTS 53 56 0 0 0
M  V30 BEGIN ATOM
M  V30 1 C 2.481159 -6.739773 3.103319 0
M  V30 2 O 3.025991 -5.952290 2.063774 0
M  V30 3 C 3.016718 -4.563191 2.114221 0
M  V30 4 C 2.455126 -3.965730 3.218672 0
M  V30 5 C 2.459750 -2.602903 3.242241 0
M  V30 6 C 2.993039 -1.872663 2.224561 0
M  V30 7 C 3.564536 -2.425902 1.101061 0
M  V30 8 C 4.176099 -1.823966 -0.105282 0
M  V30 9 O 3.359496 -1.669351 -1.199653 0
M  V30 10 C 2.215232 -0.948278 -1.358343 0
M  V30 11 C 1.392040 -0.115912 -0.631335 0
M  V30 12 C 0.261625 0.450949 -1.179221 0
M  V30 13 C -0.467212 1.297890 -0.237014 0
M  V30 14 C 0.082424 2.047361 0.784555 0
M  V30 15 N -0.908224 2.699448 1.442105 0
M  V30 16 N -2.070647 2.386831 0.869321 0
M  V30 17 C -3.371809 2.868677 1.266481 0
M  V30 18 C -4.012110 2.011110 2.326146 0
M  V30 19 C -4.582479 0.756096 1.805179 0
M  V30 20 N -5.035075 0.712005 0.475067 0
M  V30 21 C -5.103341 1.890823 -0.285063 0
M  V30 22 C -4.343429 3.074785 0.172213 0
M  V30 23 C -1.838927 1.530396 -0.162829 0
M  V30 24 C -0.099187 0.209624 -2.488447 0
M  V30 25 N 0.685013 -0.603161 -3.234699 0
M  V30 26 C 1.808151 -1.166277 -2.689624 0
M  V30 27 N 2.416103 -1.966671 -3.727810 0
M  V30 28 C 3.558646 -3.830828 1.079388 0
M  V30 29 H 2.914419 -6.500364 4.102047 0
M  V30 30 H 1.384404 -6.533683 3.204754 0
M  V30 31 H 2.674574 -7.805066 2.907976 0
M  V30 32 H 2.034040 -4.543426 4.023293 0
M  V30 33 H 2.039414 -2.056157 4.069527 0
M  V30 34 H 3.023564 -0.795788 2.210607 0
M  V30 35 H 4.608071 -0.815524 0.134064 0
M  V30 36 H 5.058487 -2.438364 -0.409717 0
M  V30 37 H 1.806315 -0.024638 0.358195 0
M  V30 38 H 1.121373 2.138927 1.063458 0
M  V30 39 H -3.203456 3.862888 1.772070 0
M  V30 40 H -3.215877 1.788037 3.079815 0
M  V30 41 H -4.772641 2.585906 2.875318 0
M  V30 42 H -5.427413 0.450138 2.478134 0
M  V30 43 H -3.816962 -0.059994 1.933916 0
M  V30 44 H -4.725138 -0.126210 -0.045639 0
M  V30 45 H -6.194336 2.144237 -0.390385 0
M  V30 46 H -4.789200 1.653217 -1.331218 0
M  V30 47 H -5.067258 3.877401 0.503592 0
M  V30 48 H -3.796475 3.579256 -0.674033 0
M  V30 49 H -2.512996 1.067040 -0.847675 0
M  V30 50 H -1.001227 0.695094 -2.836889 0
M  V30 51 H 2.530972 -3.009087 -3.824559 0
M  V30 52 H 2.818664 -1.427895 -4.532079 0
M  V30 53 H 3.976043 -4.409025 0.254047 0
M  V30 END ATOM
M  V30 BEGIN BOND
M  V30 1 1 1 2
M  V30 2 1 2 3
M  V30 3 2 3 4
M  V30 4 1 4 5
M  V30 5 2 5 6
M  V30 6 1 6 7
M  V30 7 1 7 8
M  V30 8 1 8 9
M  V30 9 1 9 10
M  V30 10 2 10 11
M  V30 11 1 11 12
M  V30 12 1 12 13
M  V30 13 1 13 14
M  V30 14 2 14 15
M  V30 15 1 15 16
M  V30 16 1 16 17
M  V30 17 1 17 18
M  V30 18 1 18 19
M  V30 19 1 19 20
M  V30 20 1 20 21
M  V30 21 1 21 22
M  V30 22 1 16 23
M  V30 23 2 12 24
M  V30 24 1 24 25
M  V30 25 2 25 26
M  V30 26 1 26 27
M  V30 27 2 7 28
M  V30 28 1 28 3
M  V30 29 1 26 10
M  V30 30 2 23 13
M  V30 31 1 22 17
M  V30 32 1 1 29
M  V30 33 1 1 30
M  V30 34 1 1 31
M  V30 35 1 4 32
M  V30 36 1 5 33
M  V30 37 1 6 34
M  V30 38 1 8 35
M  V30 39 1 8 36
M  V30 40 1 11 37
M  V30 41 1 14 38
M  V30 42 1 17 39
M  V30 43 1 18 40
M  V30 44 1 18 41
M  V30 45 1 19 42
M  V30 46 1 19 43
M  V30 47 1 20 44
M  V30 48 1 21 45
M  V30 49 1 21 46
M  V30 50 1 22 47
M  V30 51 1 22 48
M  V30 52 1 23 49
M  V30 53 1 24 50
M  V30 54 1 27 51
M  V30 55 1 27 52
M  V30 56 1 28 53
M  V30 END BOND
M  V30 END CTAB
M  END
>  <Dataset>  (916) 
ChEMBL_Kinases

>  <Ligand_Instance>  (916) 
nan

>  <PDB_ID>  (916) 
nan

>  <Standardized_SMILES>  (916) 
COc1cccc(COc2cc(-c3cnn(C4CCNCC4)c3)cnc2N)c1

>  <Name>  (916) 
nan

>  <Pocket>  (916) 
nan

>  <ATP_Site>  (916) 
nan

>  <Peripheral>  (916) 
nan

>  <Num_H_Atoms_ProtBoundConf>  (916) 
nan

>  <Num_Resolved_Atoms>  (916) 
nan

>  <Num_Not_Resolved_Atoms>  (916) 
nan

$$$$
CHEMBL4749940
     RDKit          3D

  0  0  0  0  0  0  0  0  0  0999 V3000
M  V30 BEGIN CTAB
M  V30 COUNTS 62 69 0 0 0
M  V30 BEGIN ATOM
M  V30 1 C 5.042861 0.712367 2.784510 0
M  V30 2 O 4.010536 -0.161437 2.645885 0
M  V30 3 C 3.936137 -0.853596 1.441580 0 CFG=1
M  V30 4 N 4.352068 -2.237108 1.835075 0
M  V30 5 C 3.249695 -3.116250 1.718249 0
M  V30 6 O 3.507327 -4.264979 2.102926 0
M  V30 7 C 2.129304 -2.396152 1.173461 0
M  V30 8 C 2.553227 -1.098578 0.968177 0
M  V30 9 C 1.596267 -0.250969 0.389637 0
M  V30 10 C 1.611334 1.071306 0.020556 0
M  V30 11 C 2.575144 2.051797 0.094342 0
M  V30 12 C 2.393494 3.362285 -0.336744 0
M  V30 13 C 1.152830 3.661999 -0.867562 0
M  V30 14 C 0.190904 2.675548 -0.939485 0
M  V30 15 C 0.387547 1.383508 -0.508964 0
M  V30 16 N -0.426116 0.324436 -0.506098 0
M  V30 17 C 0.326723 -0.650069 0.045195 0
M  V30 18 C -0.024951 -1.962918 0.285996 0
M  V30 19 C 0.882645 -2.823102 0.847654 0
M  V30 20 C 0.246045 -4.018498 0.972503 0
M  V30 21 C 0.482081 -5.281116 1.417671 0
M  V30 22 C -0.421428 -6.318783 1.406761 0
M  V30 23 C -1.684503 -6.093125 0.908171 0
M  V30 24 C -1.973216 -4.830945 0.445167 0
M  V30 25 C -1.026438 -3.827620 0.480810 0
M  V30 26 N -1.195487 -2.585521 0.065760 0
M  V30 27 C -2.427903 -2.007172 -0.480009 0 CFG=2
M  V30 28 O -2.034048 -1.088010 -1.352194 0
M  V30 29 C -1.791324 0.230188 -1.030681 0 CFG=2
M  V30 30 C -1.861776 0.874326 -2.426817 0
M  V30 31 C -2.877061 0.651246 -0.154145 0 CFG=2
M  V30 32 O -3.077761 1.956184 0.159250 0
M  V30 33 C -4.306115 2.465562 -0.179577 0
M  V30 34 C -2.880222 -0.134797 1.130408 0 CFG=1
M  V30 35 O -3.890492 0.360965 1.953848 0
M  V30 36 C -3.144985 -1.567990 0.774908 0 CFG=1
M  V30 37 O -4.510807 -1.731114 0.545952 0
M  V30 38 H 6.049966 0.243763 2.695215 0
M  V30 39 H 5.022681 1.050517 3.870156 0
M  V30 40 H 5.055903 1.622658 2.205884 0
M  V30 41 H 4.668216 -0.585570 0.689593 0
M  V30 42 H 5.367306 -2.358129 2.134668 0
M  V30 43 H 3.512680 1.782232 0.498299 0
M  V30 44 H 3.201514 4.079697 -0.245639 0
M  V30 45 H 0.999134 4.675775 -1.205488 0
M  V30 46 H -0.766324 2.952016 -1.346953 0
M  V30 47 H 1.441099 -5.511237 1.815498 0
M  V30 48 H -0.153784 -7.305392 1.783101 0
M  V30 49 H -2.415059 -6.888145 0.886651 0
M  V30 50 H -2.973553 -4.691573 0.061654 0
M  V30 51 H -3.009968 -2.841353 -0.961783 0
M  V30 52 H -2.250202 0.108631 -3.124884 0
M  V30 53 H -0.854052 1.122990 -2.820804 0
M  V30 54 H -2.446535 1.803585 -2.457902 0
M  V30 55 H -3.848723 0.358945 -0.641587 0
M  V30 56 H -4.443816 2.378087 -1.275715 0
M  V30 57 H -5.144162 2.016904 0.390243 0
M  V30 58 H -4.358945 3.553374 0.031300 0
M  V30 59 H -1.900732 0.030106 1.625244 0
M  V30 60 H -3.728691 1.283693 2.209259 0
M  V30 61 H -2.901307 -2.167168 1.674989 0
M  V30 62 H -4.995361 -2.018512 1.360536 0
M  V30 END ATOM
M  V30 BEGIN BOND
M  V30 1 1 1 2
M  V30 2 1 2 3
M  V30 3 1 3 4
M  V30 4 1 4 5
M  V30 5 2 5 6
M  V30 6 1 5 7
M  V30 7 2 7 8
M  V30 8 1 8 9
M  V30 9 1 9 10
M  V30 10 2 10 11
M  V30 11 1 11 12
M  V30 12 2 12 13
M  V30 13 1 13 14
M  V30 14 2 14 15
M  V30 15 1 15 16
M  V30 16 1 16 17
M  V30 17 1 17 18
M  V30 18 2 18 19
M  V30 19 1 19 20
M  V30 20 2 20 21
M  V30 21 1 21 22
M  V30 22 2 22 23
M  V30 23 1 23 24
M  V30 24 2 24 25
M  V30 25 1 25 26
M  V30 26 1 26 27
M  V30 27 1 27 28
M  V30 28 1 28 29
M  V30 29 1 29 30 CFG=3
M  V30 30 1 29 31
M  V30 31 1 31 32
M  V30 32 1 32 33
M  V30 33 1 31 34
M  V30 34 1 34 35
M  V30 35 1 34 36
M  V30 36 1 36 37
M  V30 37 1 8 3
M  V30 38 2 17 9
M  V30 39 1 26 18
M  V30 40 1 36 27
M  V30 41 1 19 7
M  V30 42 1 25 20
M  V30 43 1 15 10
M  V30 44 1 29 16
M  V30 45 1 1 38
M  V30 46 1 1 39
M  V30 47 1 1 40
M  V30 48 1 3 41 CFG=3
M  V30 49 1 4 42
M  V30 50 1 11 43
M  V30 51 1 12 44
M  V30 52 1 13 45
M  V30 53 1 14 46
M  V30 54 1 21 47
M  V30 55 1 22 48
M  V30 56 1 23 49
M  V30 57 1 24 50
M  V30 58 1 27 51 CFG=3
M  V30 59 1 30 52
M  V30 60 1 30 53
M  V30 61 1 30 54
M  V30 62 1 31 55 CFG=3
M  V30 63 1 33 56
M  V30 64 1 33 57
M  V30 65 1 33 58
M  V30 66 1 34 59 CFG=1
M  V30 67 1 35 60
M  V30 68 1 36 61 CFG=1
M  V30 69 1 37 62
M  V30 END BOND
M  V30 END CTAB
M  END
>  <Dataset>  (917) 
ChEMBL_Kinases

>  <Ligand_Instance>  (917) 
nan

>  <PDB_ID>  (917) 
nan

>  <Standardized_SMILES>  (917) 
CO[C@H]1NC(=O)c2c1c1c3ccccc3n3c1c1c2c2ccccc2n1[C@@H]1O[C@@]3(C)[C@H](OC)[C@@H](O)[C@H]1O

>  <Name>  (917) 
nan

>  <Pocket>  (917) 
nan

>  <ATP_Site>  (917) 
nan

>  <Peripheral>  (917) 
nan

>  <Num_H_Atoms_ProtBoundConf>  (917) 
nan

>  <Num_Resolved_Atoms>  (917) 
nan

>  <Num_Not_Resolved_Atoms>  (917) 
nan

$$$$
CHEMBL4447392
     RDKit          3D

  0  0  0  0  0  0  0  0  0  0999 V3000
M  V30 BEGIN CTAB
M  V30 COUNTS 40 43 0 0 0
M  V30 BEGIN ATOM
M  V30 1 C 1.774565 -4.279266 3.362511 0
M  V30 2 C 0.404038 -4.330372 2.794938 0
M  V30 3 O -0.458585 -5.136300 3.531463 0
M  V30 4 C -0.082438 -2.958473 2.663771 0
M  V30 5 C -0.482033 -1.826257 2.535662 0
M  V30 6 C -0.976621 -0.476694 2.365509 0
M  V30 7 C -0.609906 0.136536 1.163888 0
M  V30 8 C -1.055209 1.434607 0.942381 0
M  V30 9 N -0.728043 2.132134 -0.253420 0
M  V30 10 C -1.632270 2.258587 -1.257512 0
M  V30 11 C -1.041760 2.980723 -2.289753 0
M  V30 12 C 0.249199 3.300198 -1.905036 0
M  V30 13 C 1.325015 3.983809 -2.459913 0
M  V30 14 N 2.468010 4.090009 -1.748731 0
M  V30 15 C 2.603922 3.554972 -0.515389 0
M  V30 16 N 3.817275 3.690129 0.192543 0
M  V30 17 N 1.566462 2.898756 0.013369 0
M  V30 18 C 0.406572 2.760442 -0.644256 0
M  V30 19 C -1.822827 2.014341 1.924576 0
M  V30 20 C -2.185837 1.411289 3.110782 0
M  V30 21 N -1.727963 0.140235 3.286163 0
M  V30 22 C 0.565852 -4.938099 1.395087 0
M  V30 23 N 1.282148 -5.352498 0.637396 0
M  V30 24 C 1.051422 -5.826192 -0.569623 0
M  V30 25 C -0.314631 -5.804217 -0.960837 0
M  V30 26 S -1.140414 -5.049936 0.573568 0
M  V30 27 H 2.390324 -3.595231 2.762579 0
M  V30 28 H 2.174820 -5.318650 3.423235 0
M  V30 29 H 1.705020 -3.940204 4.434452 0
M  V30 30 H -1.410225 -4.912908 3.360192 0
M  V30 31 H -0.001540 -0.348494 0.406503 0
M  V30 32 H -2.652684 1.877176 -1.291253 0
M  V30 33 H -1.458367 3.274174 -3.245708 0
M  V30 34 H 1.161673 4.389919 -3.445236 0
M  V30 35 H 4.499985 4.457138 0.126834 0
M  V30 36 H 4.089529 2.940691 0.875065 0
M  V30 37 H -2.186498 3.031763 1.778801 0
M  V30 38 H -2.793204 1.917969 3.848464 0
M  V30 39 H 1.905395 -6.179133 -1.135718 0
M  V30 40 H -0.476691 -6.251118 -2.081516 0
M  V30 END ATOM
M  V30 BEGIN BOND
M  V30 1 1 1 2
M  V30 2 1 2 3
M  V30 3 1 2 4
M  V30 4 3 4 5
M  V30 5 1 5 6
M  V30 6 2 6 7
M  V30 7 1 7 8
M  V30 8 1 8 9
M  V30 9 1 9 10
M  V30 10 2 10 11
M  V30 11 1 11 12
M  V30 12 2 12 13
M  V30 13 1 13 14
M  V30 14 2 14 15
M  V30 15 1 15 16
M  V30 16 1 15 17
M  V30 17 2 17 18
M  V30 18 2 8 19
M  V30 19 1 19 20
M  V30 20 2 20 21
M  V30 21 1 2 22
M  V30 22 2 22 23
M  V30 23 1 23 24
M  V30 24 2 24 25
M  V30 25 1 25 26
M  V30 26 1 21 6
M  V30 27 1 26 22
M  V30 28 1 18 9
M  V30 29 1 18 12
M  V30 30 1 1 27
M  V30 31 1 1 28
M  V30 32 1 1 29
M  V30 33 1 3 30
M  V30 34 1 7 31
M  V30 35 1 10 32
M  V30 36 1 11 33
M  V30 37 1 13 34
M  V30 38 1 16 35
M  V30 39 1 16 36
M  V30 40 1 19 37
M  V30 41 1 20 38
M  V30 42 1 24 39
M  V30 43 1 25 40
M  V30 END BOND
M  V30 END CTAB
M  END
>  <Dataset>  (918) 
ChEMBL_Kinases

>  <Ligand_Instance>  (918) 
nan

>  <PDB_ID>  (918) 
nan

>  <Standardized_SMILES>  (918) 
CC(O)(C#Cc1cc(-n2ccc3cnc(N)nc32)ccn1)c1nccs1

>  <Name>  (918) 
nan

>  <Pocket>  (918) 
nan

>  <ATP_Site>  (918) 
nan

>  <Peripheral>  (918) 
nan

>  <Num_H_Atoms_ProtBoundConf>  (918) 
nan

>  <Num_Resolved_Atoms>  (918) 
nan

>  <Num_Not_Resolved_Atoms>  (918) 
nan

$$$$
CHEMBL4447362
     RDKit          3D

  0  0  0  0  0  0  0  0  0  0999 V3000
M  V30 BEGIN CTAB
M  V30 COUNTS 47 49 0 0 0
M  V30 BEGIN ATOM
M  V30 1 C 4.113476 -6.043807 3.646873 0
M  V30 2 C 3.625027 -4.829740 4.404362 0
M  V30 3 C 2.498015 -5.296510 5.298433 0
M  V30 4 C 3.120517 -3.806644 3.459744 0
M  V30 5 C 3.378004 -2.514335 3.095077 0
M  V30 6 C 2.468851 -2.179594 2.097008 0
M  V30 7 C 2.510784 -0.839698 1.510551 0
M  V30 8 C 3.387866 0.170947 1.851031 0
M  V30 9 C 3.278765 1.388549 1.181825 0
M  V30 10 C 2.312087 1.577679 0.198520 0
M  V30 11 C 1.428937 0.539876 -0.134906 0
M  V30 12 N 0.483321 0.844324 -1.152491 0
M  V30 13 C -0.767339 1.390047 -0.802987 0
M  V30 14 O -0.938533 1.562560 0.404026 0
M  V30 15 N -1.776084 1.730396 -1.704029 0
M  V30 16 C -3.066550 2.281500 -1.485447 0
M  V30 17 C -3.597372 2.604356 -0.256685 0
M  V30 18 C -4.847126 3.136913 -0.058457 0
M  V30 19 C -5.655657 3.378601 -1.148110 0
M  V30 20 C -5.141522 3.061826 -2.386432 0
M  V30 21 C -5.958943 3.296305 -3.604906 0
M  V30 22 F -6.650573 2.155524 -3.970283 0
M  V30 23 F -5.147302 3.647314 -4.676879 0
M  V30 24 F -6.865062 4.285276 -3.336918 0
M  V30 25 C -3.880360 2.528292 -2.540478 0
M  V30 26 C 1.554627 -0.652106 0.537703 0
M  V30 27 N 1.695186 -3.262009 1.885753 0
M  V30 28 N 2.088368 -4.237661 2.705146 0
M  V30 29 H 4.272151 -6.852976 4.404585 0
M  V30 30 H 5.081222 -5.894459 3.138076 0
M  V30 31 H 3.328394 -6.445768 2.965742 0
M  V30 32 H 4.470818 -4.455473 5.012842 0
M  V30 33 H 2.924421 -5.801076 6.212558 0
M  V30 34 H 1.853848 -6.051571 4.791792 0
M  V30 35 H 1.828633 -4.484869 5.635044 0
M  V30 36 H 4.192676 -2.025350 3.621238 0
M  V30 37 H 4.094622 -0.070017 2.617859 0
M  V30 38 H 3.987574 2.146388 1.484469 0
M  V30 39 H 2.344507 2.583583 -0.240862 0
M  V30 40 H 0.700705 0.667882 -2.179957 0
M  V30 41 H -1.489872 1.528050 -2.702161 0
M  V30 42 H -3.021162 2.442288 0.640298 0
M  V30 43 H -5.219722 3.374657 0.935755 0
M  V30 44 H -6.649935 3.794628 -1.081122 0
M  V30 45 H -3.536729 2.302013 -3.540456 0
M  V30 46 H 0.839009 -1.389047 0.218994 0
M  V30 47 H 0.937520 -3.231337 1.169859 0
M  V30 END ATOM
M  V30 BEGIN BOND
M  V30 1 1 1 2
M  V30 2 1 2 3
M  V30 3 1 2 4
M  V30 4 1 4 5
M  V30 5 2 5 6
M  V30 6 1 6 7
M  V30 7 2 7 8
M  V30 8 1 8 9
M  V30 9 2 9 10
M  V30 10 1 10 11
M  V30 11 1 11 12
M  V30 12 1 12 13
M  V30 13 2 13 14
M  V30 14 1 13 15
M  V30 15 1 15 16
M  V30 16 2 16 17
M  V30 17 1 17 18
M  V30 18 2 18 19
M  V30 19 1 19 20
M  V30 20 1 20 21
M  V30 21 1 21 22
M  V30 22 1 21 23
M  V30 23 1 21 24
M  V30 24 2 20 25
M  V30 25 2 11 26
M  V30 26 1 6 27
M  V30 27 1 27 28
M  V30 28 2 28 4
M  V30 29 1 26 7
M  V30 30 1 25 16
M  V30 31 1 1 29
M  V30 32 1 1 30
M  V30 33 1 1 31
M  V30 34 1 2 32
M  V30 35 1 3 33
M  V30 36 1 3 34
M  V30 37 1 3 35
M  V30 38 1 5 36
M  V30 39 1 8 37
M  V30 40 1 9 38
M  V30 41 1 10 39
M  V30 42 1 12 40
M  V30 43 1 15 41
M  V30 44 1 17 42
M  V30 45 1 18 43
M  V30 46 1 19 44
M  V30 47 1 25 45
M  V30 48 1 26 46
M  V30 49 1 27 47
M  V30 END BOND
M  V30 END CTAB
M  END
>  <Dataset>  (919) 
ChEMBL_Kinases

>  <Ligand_Instance>  (919) 
nan

>  <PDB_ID>  (919) 
nan

>  <Standardized_SMILES>  (919) 
CC(C)c1cc(-c2cccc(NC(=O)Nc3cccc(C(F)(F)F)c3)c2)[nH]n1

>  <Name>  (919) 
nan

>  <Pocket>  (919) 
nan

>  <ATP_Site>  (919) 
nan

>  <Peripheral>  (919) 
nan

>  <Num_H_Atoms_ProtBoundConf>  (919) 
nan

>  <Num_Resolved_Atoms>  (919) 
nan

>  <Num_Not_Resolved_Atoms>  (919) 
nan

$$$$
CHEMBL4447312
     RDKit          3D

  0  0  0  0  0  0  0  0  0  0999 V3000
M  V30 BEGIN CTAB
M  V30 COUNTS 52 55 0 0 0
M  V30 BEGIN ATOM
M  V30 1 C 2.752840 -4.703551 2.704671 0
M  V30 2 C 2.962689 -3.343582 2.141277 0
M  V30 3 C 2.692156 -3.066804 0.816755 0
M  V30 4 C 2.910384 -1.764607 0.345392 0
M  V30 5 C 3.386539 -0.804736 1.215516 0
M  V30 6 N 3.610420 0.538169 0.721014 0
M  V30 7 C 3.303824 0.725572 -0.647323 0
M  V30 8 N 4.313126 0.420640 -1.472430 0
M  V30 9 C 4.327564 0.489963 -2.789544 0
M  V30 10 N 3.177942 0.921078 -3.333206 0
M  V30 11 C 2.137335 1.240241 -2.564198 0
M  V30 12 S 0.494863 1.836612 -2.957387 0
M  V30 13 C -0.100663 1.951230 -1.297069 0
M  V30 14 C 0.997306 1.523888 -0.519296 0
M  V30 15 C 2.128123 1.167125 -1.208686 0
M  V30 16 C 0.615239 1.584460 0.908728 0
M  V30 17 C -0.709403 0.941893 1.149062 0
M  V30 18 N -1.721452 1.209123 0.176686 0
M  V30 19 C -2.924737 0.467062 0.059608 0
M  V30 20 O -3.803333 0.725611 -0.805333 0
M  V30 21 O -3.086465 -0.574505 0.960150 0
M  V30 22 C -4.223730 -1.383431 0.951642 0
M  V30 23 C -4.024589 -2.397447 2.076581 0
M  V30 24 C -5.521418 -0.691289 1.185947 0
M  V30 25 C -4.313184 -2.232048 -0.316075 0
M  V30 26 C -1.347442 2.344891 -0.684481 0
M  V30 27 C 3.667054 -1.060557 2.558312 0
M  V30 28 Br 4.322977 0.292235 3.730757 0
M  V30 29 C 3.439437 -2.368646 2.999370 0
M  V30 30 H 2.276770 -4.649071 3.727588 0
M  V30 31 H 1.998825 -5.236748 2.071524 0
M  V30 32 H 3.692924 -5.278305 2.785855 0
M  V30 33 H 2.320769 -3.854409 0.176768 0
M  V30 34 H 2.692567 -1.576445 -0.687214 0
M  V30 35 H 3.968251 1.275614 1.353215 0
M  V30 36 H 5.170841 0.231521 -3.412676 0
M  V30 37 H 0.476605 2.656297 1.252399 0
M  V30 38 H 1.323899 1.165272 1.612431 0
M  V30 39 H -0.606024 -0.176530 1.233724 0
M  V30 40 H -1.105502 1.264933 2.136384 0
M  V30 41 H -4.074071 -1.903403 3.070082 0
M  V30 42 H -4.816462 -3.156768 2.048148 0
M  V30 43 H -3.015648 -2.891356 1.991177 0
M  V30 44 H -6.337800 -1.357755 0.781756 0
M  V30 45 H -5.732517 -0.505645 2.246125 0
M  V30 46 H -5.629545 0.270204 0.647883 0
M  V30 47 H -3.333584 -2.709888 -0.519419 0
M  V30 48 H -5.025812 -3.051475 -0.076564 0
M  V30 49 H -4.720272 -1.677634 -1.169984 0
M  V30 50 H -1.183082 3.210070 -0.011722 0
M  V30 51 H -2.112008 2.580941 -1.424603 0
M  V30 52 H 3.671813 -2.514553 4.044371 0
M  V30 END ATOM
M  V30 BEGIN BOND
M  V30 1 1 1 2
M  V30 2 2 2 3
M  V30 3 1 3 4
M  V30 4 2 4 5
M  V30 5 1 5 6
M  V30 6 1 6 7
M  V30 7 2 7 8
M  V30 8 1 8 9
M  V30 9 2 9 10
M  V30 10 1 10 11
M  V30 11 1 11 12
M  V30 12 1 12 13
M  V30 13 2 13 14
M  V30 14 1 14 15
M  V30 15 1 14 16
M  V30 16 1 16 17
M  V30 17 1 17 18
M  V30 18 1 18 19
M  V30 19 2 19 20
M  V30 20 1 19 21
M  V30 21 1 21 22
M  V30 22 1 22 23
M  V30 23 1 22 24
M  V30 24 1 22 25
M  V30 25 1 18 26
M  V30 26 1 5 27
M  V30 27 1 27 28
M  V30 28 2 27 29
M  V30 29 1 29 2
M  V30 30 1 15 7
M  V30 31 2 15 11
M  V30 32 1 26 13
M  V30 33 1 1 30
M  V30 34 1 1 31
M  V30 35 1 1 32
M  V30 36 1 3 33
M  V30 37 1 4 34
M  V30 38 1 6 35
M  V30 39 1 9 36
M  V30 40 1 16 37
M  V30 41 1 16 38
M  V30 42 1 17 39
M  V30 43 1 17 40
M  V30 44 1 23 41
M  V30 45 1 23 42
M  V30 46 1 23 43
M  V30 47 1 24 44
M  V30 48 1 24 45
M  V30 49 1 24 46
M  V30 50 1 25 47
M  V30 51 1 25 48
M  V30 52 1 25 49
M  V30 53 1 26 50
M  V30 54 1 26 51
M  V30 55 1 29 52
M  V30 END BOND
M  V30 END CTAB
M  END
>  <Dataset>  (920) 
ChEMBL_Kinases

>  <Ligand_Instance>  (920) 
nan

>  <PDB_ID>  (920) 
nan

>  <Standardized_SMILES>  (920) 
Cc1ccc(Nc2ncnc3sc4c(c23)CCN(C(=O)OC(C)(C)C)C4)c(Br)c1

>  <Name>  (920) 
nan

>  <Pocket>  (920) 
nan

>  <ATP_Site>  (920) 
nan

>  <Peripheral>  (920) 
nan

>  <Num_H_Atoms_ProtBoundConf>  (920) 
nan

>  <Num_Resolved_Atoms>  (920) 
nan

>  <Num_Not_Resolved_Atoms>  (920) 
nan

$$$$
CHEMBL4447253
     RDKit          3D

  0  0  0  0  0  0  0  0  0  0999 V3000
M  V30 BEGIN CTAB
M  V30 COUNTS 37 39 0 0 0
M  V30 BEGIN ATOM
M  V30 1 C -1.866625 -3.863839 2.256583 0
M  V30 2 C -0.775618 -4.157896 1.281774 0
M  V30 3 C 0.209570 -3.025532 1.087195 0
M  V30 4 C 1.236931 -3.546641 0.070681 0
M  V30 5 C 0.864822 -2.739971 2.335734 0
M  V30 6 N 1.375035 -2.497521 3.330655 0
M  V30 7 C -0.522633 -1.865650 0.513815 0
M  V30 8 C -1.823689 -1.693511 0.093299 0
M  V30 9 C -2.221256 -0.468486 -0.395517 0
M  V30 10 C -1.372211 0.614071 -0.488566 0
M  V30 11 C -0.061137 0.450272 -0.068047 0
M  V30 12 C 0.764732 1.641511 -0.204024 0
M  V30 13 C 0.685586 2.326531 -1.421525 0
M  V30 14 C 1.419228 3.468232 -1.682359 0
M  V30 15 N 2.243787 3.934806 -0.716797 0
M  V30 16 C 2.354151 3.314173 0.465532 0
M  V30 17 N 3.052380 3.502236 1.605923 0
M  V30 18 N 2.792277 2.573191 2.509092 0
M  V30 19 C 1.893606 1.723112 1.981253 0
M  V30 20 C 1.629784 2.188571 0.720542 0
M  V30 21 C 0.356662 -0.779242 0.427904 0
M  V30 22 H -1.972112 -2.797349 2.535632 0
M  V30 23 H -2.820036 -4.248140 1.856881 0
M  V30 24 H -1.650299 -4.392699 3.212694 0
M  V30 25 H -0.169560 -5.026646 1.656210 0
M  V30 26 H -1.157316 -4.502761 0.293882 0
M  V30 27 H 1.197495 -4.638113 -0.035872 0
M  V30 28 H 2.262080 -3.288732 0.434077 0
M  V30 29 H 1.102419 -3.082775 -0.912710 0
M  V30 30 H -2.386226 -2.590875 0.204433 0
M  V30 31 H -3.279111 -0.449909 -0.699902 0
M  V30 32 H -1.783196 1.528762 -0.885776 0
M  V30 33 H 0.040888 1.990098 -2.220116 0
M  V30 34 H 1.349752 3.991500 -2.630861 0
M  V30 35 H 3.728806 4.307807 1.746969 0
M  V30 36 H 1.492383 0.871509 2.478533 0
M  V30 37 H 1.406296 -0.726520 0.705749 0
M  V30 END ATOM
M  V30 BEGIN BOND
M  V30 1 1 1 2
M  V30 2 1 2 3
M  V30 3 1 3 4
M  V30 4 1 3 5
M  V30 5 3 5 6
M  V30 6 1 3 7
M  V30 7 2 7 8
M  V30 8 1 8 9
M  V30 9 2 9 10
M  V30 10 1 10 11
M  V30 11 1 11 12
M  V30 12 2 12 13
M  V30 13 1 13 14
M  V30 14 2 14 15
M  V30 15 1 15 16
M  V30 16 1 16 17
M  V30 17 1 17 18
M  V30 18 2 18 19
M  V30 19 1 19 20
M  V30 20 2 11 21
M  V30 21 1 21 7
M  V30 22 1 20 12
M  V30 23 2 20 16
M  V30 24 1 1 22
M  V30 25 1 1 23
M  V30 26 1 1 24
M  V30 27 1 2 25
M  V30 28 1 2 26
M  V30 29 1 4 27
M  V30 30 1 4 28
M  V30 31 1 4 29
M  V30 32 1 8 30
M  V30 33 1 9 31
M  V30 34 1 10 32
M  V30 35 1 13 33
M  V30 36 1 14 34
M  V30 37 1 17 35
M  V30 38 1 19 36
M  V30 39 1 21 37
M  V30 END BOND
M  V30 END CTAB
M  END
>  <Dataset>  (921) 
ChEMBL_Kinases

>  <Ligand_Instance>  (921) 
nan

>  <PDB_ID>  (921) 
nan

>  <Standardized_SMILES>  (921) 
CCC(C)(C#N)c1cccc(-c2ccnc3[nH]ncc23)c1

>  <Name>  (921) 
nan

>  <Pocket>  (921) 
nan

>  <ATP_Site>  (921) 
nan

>  <Peripheral>  (921) 
nan

>  <Num_H_Atoms_ProtBoundConf>  (921) 
nan

>  <Num_Resolved_Atoms>  (921) 
nan

>  <Num_Not_Resolved_Atoms>  (921) 
nan

$$$$
CHEMBL4447158
     RDKit          3D

  0  0  0  0  0  0  0  0  0  0999 V3000
M  V30 BEGIN CTAB
M  V30 COUNTS 65 69 0 0 0
M  V30 BEGIN ATOM
M  V30 1 C 1.618679 -3.137248 7.933235 0
M  V30 2 N 1.491688 -3.614943 6.575860 0
M  V30 3 N 1.979478 -4.812501 6.204211 0
M  V30 4 C 1.732765 -4.999451 4.912106 0
M  V30 5 C 1.067912 -3.849708 4.518066 0
M  V30 6 Cl 0.661934 -3.937975 2.804480 0
M  V30 7 C 0.915795 -2.975165 5.570111 0
M  V30 8 C 0.256757 -1.729234 5.362572 0
M  V30 9 C -0.245499 -1.309741 4.152191 0
M  V30 10 C -0.839328 -0.066309 4.225456 0
M  V30 11 C -1.491893 0.775323 3.235532 0
M  V30 12 O -2.011853 1.883300 3.503500 0
M  V30 13 N -1.550072 0.331485 1.883104 0
M  V30 14 C -2.107938 0.921545 0.688206 0 CFG=2
M  V30 15 C -2.933941 -0.094182 -0.025511 0
M  V30 16 N -3.244199 0.192638 -1.363456 0
M  V30 17 C -2.458062 1.074172 -2.122989 0 CFG=2
M  V30 18 C -1.964808 0.500976 -3.436341 0
M  V30 19 C -1.138913 -0.708271 -3.306837 0
M  V30 20 O -0.613578 -1.597272 -2.574001 0
M  V30 21 N -0.694635 -1.101072 -4.627151 0
M  V30 22 C 0.129394 -2.232052 -4.917295 0
M  V30 23 C -0.358456 -3.102183 -6.061767 0
M  V30 24 C 1.125972 -3.341592 -6.372607 0
M  V30 25 C 1.346407 -1.930988 -5.804260 0
M  V30 26 C -1.390979 1.863507 -1.435074 0
M  V30 27 C -0.897187 1.146138 -0.236410 0 CFG=1
M  V30 28 C 0.179795 1.858086 0.487458 0
M  V30 29 C 1.399075 1.271172 0.763469 0
M  V30 30 C 2.331604 2.021130 1.445388 0
M  V30 31 C 2.080754 3.309908 1.847102 0
M  V30 32 Cl 3.308525 4.222647 2.715684 0
M  V30 33 C 0.846491 3.878827 1.557865 0
M  V30 34 Cl 0.507548 5.514036 2.058607 0
M  V30 35 C -0.122879 3.142225 0.865887 0
M  V30 36 O -0.714489 0.311152 5.497840 0
M  V30 37 C -0.079659 -0.659956 6.140812 0
M  V30 38 Cl 0.186065 -0.369097 7.817833 0
M  V30 39 H 0.644652 -3.051754 8.445786 0
M  V30 40 H 2.127142 -3.960619 8.554647 0
M  V30 41 H 2.237232 -2.252767 8.038593 0
M  V30 42 H 2.093017 -5.939415 4.533205 0
M  V30 43 H -0.289148 -1.719408 3.150518 0
M  V30 44 H -1.116750 -0.602227 1.658061 0
M  V30 45 H -2.596093 1.867306 0.930917 0
M  V30 46 H -2.406333 -1.067195 0.047912 0
M  V30 47 H -3.900677 -0.222722 0.542174 0
M  V30 48 H -3.435167 -0.677893 -1.893178 0
M  V30 49 H -3.206318 1.881373 -2.489345 0
M  V30 50 H -1.377639 1.292053 -3.949955 0
M  V30 51 H -2.812927 0.276058 -4.138531 0
M  V30 52 H -0.894418 -0.636818 -5.567973 0
M  V30 53 H 0.450229 -2.870221 -4.074876 0
M  V30 54 H -0.912189 -4.000697 -5.790657 0
M  V30 55 H -0.792046 -2.501943 -6.902162 0
M  V30 56 H 1.528290 -4.128635 -5.709291 0
M  V30 57 H 1.370413 -3.422961 -7.441810 0
M  V30 58 H 2.297161 -1.838578 -5.256999 0
M  V30 59 H 1.172422 -1.209671 -6.610078 0
M  V30 60 H -0.587218 2.086109 -2.180458 0
M  V30 61 H -1.855111 2.825492 -1.074221 0
M  V30 62 H -0.575201 0.127878 -0.507045 0
M  V30 63 H 1.603524 0.248076 0.448104 0
M  V30 64 H 3.310199 1.618750 1.694829 0
M  V30 65 H -1.066381 3.623297 0.663745 0
M  V30 END ATOM
M  V30 BEGIN BOND
M  V30 1 1 1 2
M  V30 2 1 2 3
M  V30 3 2 3 4
M  V30 4 1 4 5
M  V30 5 1 5 6
M  V30 6 2 5 7
M  V30 7 1 7 8
M  V30 8 1 8 9
M  V30 9 2 9 10
M  V30 10 1 10 11
M  V30 11 2 11 12
M  V30 12 1 11 13
M  V30 13 1 13 14
M  V30 14 1 14 15
M  V30 15 1 15 16
M  V30 16 1 16 17
M  V30 17 1 17 18
M  V30 18 1 18 19
M  V30 19 2 19 20
M  V30 20 1 19 21
M  V30 21 1 21 22
M  V30 22 1 22 23
M  V30 23 1 23 24
M  V30 24 1 24 25
M  V30 25 1 17 26
M  V30 26 1 26 27
M  V30 27 1 27 28
M  V30 28 2 28 29
M  V30 29 1 29 30
M  V30 30 2 30 31
M  V30 31 1 31 32
M  V30 32 1 31 33
M  V30 33 1 33 34
M  V30 34 2 33 35
M  V30 35 1 10 36
M  V30 36 1 36 37
M  V30 37 1 37 38
M  V30 38 1 7 2
M  V30 39 2 37 8
M  V30 40 1 27 14
M  V30 41 1 35 28
M  V30 42 1 25 22
M  V30 43 1 1 39
M  V30 44 1 1 40
M  V30 45 1 1 41
M  V30 46 1 4 42
M  V30 47 1 9 43
M  V30 48 1 13 44
M  V30 49 1 14 45 CFG=1
M  V30 50 1 15 46
M  V30 51 1 15 47
M  V30 52 1 16 48
M  V30 53 1 17 49 CFG=3
M  V30 54 1 18 50
M  V30 55 1 18 51
M  V30 56 1 21 52
M  V30 57 1 22 53
M  V30 58 1 23 54
M  V30 59 1 23 55
M  V30 60 1 24 56
M  V30 61 1 24 57
M  V30 62 1 25 58
M  V30 63 1 25 59
M  V30 64 1 26 60
M  V30 65 1 26 61
M  V30 66 1 27 62 CFG=3
M  V30 67 1 29 63
M  V30 68 1 30 64
M  V30 69 1 35 65
M  V30 END BOND
M  V30 END CTAB
M  END
>  <Dataset>  (922) 
ChEMBL_Kinases

>  <Ligand_Instance>  (922) 
nan

>  <PDB_ID>  (922) 
nan

>  <Standardized_SMILES>  (922) 
Cn1ncc(Cl)c1-c1cc(C(=O)N[C@@H]2CN[C@H](CC(=O)NC3CCC3)C[C@H]2c2ccc(Cl)c(Cl)c2)oc1Cl

>  <Name>  (922) 
nan

>  <Pocket>  (922) 
nan

>  <ATP_Site>  (922) 
nan

>  <Peripheral>  (922) 
nan

>  <Num_H_Atoms_ProtBoundConf>  (922) 
nan

>  <Num_Resolved_Atoms>  (922) 
nan

>  <Num_Not_Resolved_Atoms>  (922) 
nan

$$$$
CHEMBL4447153
     RDKit          3D

  0  0  0  0  0  0  0  0  0  0999 V3000
M  V30 BEGIN CTAB
M  V30 COUNTS 43 45 0 0 0
M  V30 BEGIN ATOM
M  V30 1 C 2.846054 -3.639296 0.277236 0
M  V30 2 C 1.408418 -3.375321 0.693351 0
M  V30 3 C 1.233117 -4.019289 2.045575 0
M  V30 4 C 0.516599 -4.073545 -0.319243 0
M  V30 5 N 0.814824 -5.493421 -0.295764 0
M  V30 6 C 1.169086 -1.904682 0.705830 0
M  V30 7 N -0.176842 -1.517514 1.089859 0
M  V30 8 C -0.518817 -0.147780 1.136756 0
M  V30 9 N 0.396121 0.786335 0.827928 0
M  V30 10 C 0.135996 2.105584 0.852524 0
M  V30 11 C 1.173822 3.070394 0.505921 0
M  V30 12 C 0.896711 4.417166 0.534455 0
M  V30 13 C 1.910661 5.290318 0.198570 0
M  V30 14 N 3.145020 4.888629 -0.151880 0
M  V30 15 C 3.392861 3.561268 -0.172498 0
M  V30 16 C 2.430780 2.626819 0.150431 0
M  V30 17 N -1.091973 2.530652 1.200061 0
M  V30 18 C -2.086412 1.676514 1.529297 0
M  V30 19 C -3.356979 2.070838 1.890701 0
M  V30 20 N -4.304641 1.166369 2.208059 0
M  V30 21 C -4.034282 -0.171136 2.181150 0
M  V30 22 C -2.760093 -0.552702 1.818159 0
M  V30 23 C -1.760183 0.336693 1.485897 0
M  V30 24 H 3.483025 -3.673047 1.208444 0
M  V30 25 H 2.947271 -4.679182 -0.150829 0
M  V30 26 H 3.247083 -2.864414 -0.388164 0
M  V30 27 H 1.743483 -5.008180 2.063001 0
M  V30 28 H 1.702287 -3.407852 2.823791 0
M  V30 29 H 0.157017 -4.214831 2.214709 0
M  V30 30 H -0.554814 -3.866055 -0.144012 0
M  V30 31 H 0.764089 -3.724762 -1.348413 0
M  V30 32 H 0.059791 -6.017233 0.220453 0
M  V30 33 H 0.830670 -5.894501 -1.262299 0
M  V30 34 H 1.907330 -1.435489 1.394086 0
M  V30 35 H 1.421572 -1.514487 -0.302913 0
M  V30 36 H -0.790433 -2.329510 1.304344 0
M  V30 37 H -0.104419 4.722090 0.819545 0
M  V30 38 H 1.619450 6.351497 0.242677 0
M  V30 39 H 4.410730 3.318873 -0.465030 0
M  V30 40 H 2.684568 1.592425 0.116354 0
M  V30 41 H -3.535732 3.142859 1.901000 0
M  V30 42 H -4.805409 -0.903994 2.439267 0
M  V30 43 H -2.592441 -1.606479 1.810404 0
M  V30 END ATOM
M  V30 BEGIN BOND
M  V30 1 1 1 2
M  V30 2 1 2 3
M  V30 3 1 2 4
M  V30 4 1 4 5
M  V30 5 1 2 6
M  V30 6 1 6 7
M  V30 7 1 7 8
M  V30 8 2 8 9
M  V30 9 1 9 10
M  V30 10 1 10 11
M  V30 11 2 11 12
M  V30 12 1 12 13
M  V30 13 2 13 14
M  V30 14 1 14 15
M  V30 15 2 15 16
M  V30 16 2 10 17
M  V30 17 1 17 18
M  V30 18 2 18 19
M  V30 19 1 19 20
M  V30 20 2 20 21
M  V30 21 1 21 22
M  V30 22 2 22 23
M  V30 23 1 23 8
M  V30 24 1 16 11
M  V30 25 1 23 18
M  V30 26 1 1 24
M  V30 27 1 1 25
M  V30 28 1 1 26
M  V30 29 1 3 27
M  V30 30 1 3 28
M  V30 31 1 3 29
M  V30 32 1 4 30
M  V30 33 1 4 31
M  V30 34 1 5 32
M  V30 35 1 5 33
M  V30 36 1 6 34
M  V30 37 1 6 35
M  V30 38 1 7 36
M  V30 39 1 12 37
M  V30 40 1 13 38
M  V30 41 1 15 39
M  V30 42 1 16 40
M  V30 43 1 19 41
M  V30 44 1 21 42
M  V30 45 1 22 43
M  V30 END BOND
M  V30 END CTAB
M  END
>  <Dataset>  (923) 
ChEMBL_Kinases

>  <Ligand_Instance>  (923) 
nan

>  <PDB_ID>  (923) 
nan

>  <Standardized_SMILES>  (923) 
CC(C)(CN)CNc1nc(-c2ccncc2)nc2cnccc12

>  <Name>  (923) 
nan

>  <Pocket>  (923) 
nan

>  <ATP_Site>  (923) 
nan

>  <Peripheral>  (923) 
nan

>  <Num_H_Atoms_ProtBoundConf>  (923) 
nan

>  <Num_Resolved_Atoms>  (923) 
nan

>  <Num_Not_Resolved_Atoms>  (923) 
nan

$$$$
CHEMBL4447080
     RDKit          3D

  0  0  0  0  0  0  0  0  0  0999 V3000
M  V30 BEGIN CTAB
M  V30 COUNTS 40 42 0 0 0
M  V30 BEGIN ATOM
M  V30 1 C 0.965520 -2.868259 1.628827 0
M  V30 2 C 0.000131 -2.884717 0.463770 0
M  V30 3 C -0.454755 -4.327326 0.316106 0
M  V30 4 C 0.794122 -2.558907 -0.781069 0
M  V30 5 N 0.006425 -2.536496 -1.980391 0
M  V30 6 N -1.104339 -1.987686 0.699006 0
M  V30 7 C -0.830212 -0.609639 0.898153 0
M  V30 8 N 0.429323 -0.141633 0.870180 0
M  V30 9 C 0.745810 1.145547 1.051508 0
M  V30 10 C 2.132589 1.570793 1.006131 0
M  V30 11 C 2.503664 2.877883 1.186317 0
M  V30 12 C 3.829107 3.287267 1.143424 0
M  V30 13 N 4.783267 2.368298 0.916937 0
M  V30 14 C 4.461227 1.087922 0.737028 0
M  V30 15 C 3.145310 0.670459 0.777839 0
M  V30 16 N -0.197449 2.071984 1.278103 0
M  V30 17 C -1.487180 1.691688 1.322678 0
M  V30 18 C -2.479196 2.615156 1.552777 0
M  V30 19 N -3.775992 2.197957 1.591964 0
M  V30 20 C -4.106302 0.908385 1.411375 0
M  V30 21 C -3.099313 0.001280 1.182684 0
M  V30 22 C -1.783754 0.358394 1.132285 0
M  V30 23 H 2.000708 -2.628289 1.314104 0
M  V30 24 H 0.909289 -3.791208 2.230656 0
M  V30 25 H 0.661240 -2.032506 2.291337 0
M  V30 26 H 0.456599 -4.954587 0.279551 0
M  V30 27 H -1.047758 -4.448973 -0.610865 0
M  V30 28 H -1.032353 -4.662557 1.196847 0
M  V30 29 H 1.388313 -1.652044 -0.689888 0
M  V30 30 H 1.509143 -3.424854 -0.907176 0
M  V30 31 H -0.874727 -1.997582 -1.847928 0
M  V30 32 H 0.588601 -2.051831 -2.712706 0
M  V30 33 H -2.043828 -2.432110 0.704741 0
M  V30 34 H 1.738182 3.626453 1.369832 0
M  V30 35 H 4.042264 4.351398 1.297417 0
M  V30 36 H 5.295561 0.436509 0.563501 0
M  V30 37 H 2.956976 -0.391499 0.622160 0
M  V30 38 H -2.258586 3.667490 1.704162 0
M  V30 39 H -5.147482 0.620114 1.450359 0
M  V30 40 H -3.416665 -1.020719 1.044092 0
M  V30 END ATOM
M  V30 BEGIN BOND
M  V30 1 1 1 2
M  V30 2 1 2 3
M  V30 3 1 2 4
M  V30 4 1 4 5
M  V30 5 1 2 6
M  V30 6 1 6 7
M  V30 7 2 7 8
M  V30 8 1 8 9
M  V30 9 1 9 10
M  V30 10 2 10 11
M  V30 11 1 11 12
M  V30 12 2 12 13
M  V30 13 1 13 14
M  V30 14 2 14 15
M  V30 15 2 9 16
M  V30 16 1 16 17
M  V30 17 2 17 18
M  V30 18 1 18 19
M  V30 19 2 19 20
M  V30 20 1 20 21
M  V30 21 2 21 22
M  V30 22 1 22 7
M  V30 23 1 15 10
M  V30 24 1 22 17
M  V30 25 1 1 23
M  V30 26 1 1 24
M  V30 27 1 1 25
M  V30 28 1 3 26
M  V30 29 1 3 27
M  V30 30 1 3 28
M  V30 31 1 4 29
M  V30 32 1 4 30
M  V30 33 1 5 31
M  V30 34 1 5 32
M  V30 35 1 6 33
M  V30 36 1 11 34
M  V30 37 1 12 35
M  V30 38 1 14 36
M  V30 39 1 15 37
M  V30 40 1 18 38
M  V30 41 1 20 39
M  V30 42 1 21 40
M  V30 END BOND
M  V30 END CTAB
M  END
>  <Dataset>  (924) 
ChEMBL_Kinases

>  <Ligand_Instance>  (924) 
nan

>  <PDB_ID>  (924) 
nan

>  <Standardized_SMILES>  (924) 
CC(C)(CN)Nc1nc(-c2ccncc2)nc2cnccc12

>  <Name>  (924) 
nan

>  <Pocket>  (924) 
nan

>  <ATP_Site>  (924) 
nan

>  <Peripheral>  (924) 
nan

>  <Num_H_Atoms_ProtBoundConf>  (924) 
nan

>  <Num_Resolved_Atoms>  (924) 
nan

>  <Num_Not_Resolved_Atoms>  (924) 
nan

$$$$
CHEMBL4447000
     RDKit          3D

  0  0  0  0  0  0  0  0  0  0999 V3000
M  V30 BEGIN CTAB
M  V30 COUNTS 51 55 0 0 0
M  V30 BEGIN ATOM
M  V30 1 C 1.418388 -2.716417 -2.956602 0
M  V30 2 O 1.474001 -1.493333 -2.234656 0
M  V30 3 C 2.584235 -1.205684 -1.447415 0
M  V30 4 C 3.663900 -2.055179 -1.321320 0
M  V30 5 C 4.743556 -1.724906 -0.525950 0
M  V30 6 F 5.707361 -2.692242 -0.531746 0
M  V30 7 C 4.794688 -0.536443 0.175990 0
M  V30 8 C 3.717336 0.338361 0.064768 0
M  V30 9 C 2.666743 -0.011198 -0.724148 0
M  V30 10 N 1.547376 0.845886 -0.850652 0
M  V30 11 C 1.092828 2.072343 -0.358495 0
M  V30 12 N 1.649434 3.141413 -0.943079 0
M  V30 13 C 1.375633 4.421603 -0.657494 0
M  V30 14 N 0.459238 4.642632 0.301233 0
M  V30 15 C -0.125161 3.610854 0.914357 0
M  V30 16 S -1.374098 3.520024 2.200747 0
M  V30 17 C -1.450574 1.731960 2.276180 0
M  V30 18 C -0.521194 1.338149 1.319386 0
M  V30 19 C 0.151441 2.301529 0.627153 0
M  V30 20 C -0.523547 -0.147649 1.337152 0
M  V30 21 C -0.361091 -0.509195 2.801959 0
M  V30 22 N -1.660311 -0.364123 3.351804 0
M  V30 23 C -2.417808 -1.485585 3.676449 0
M  V30 24 C -2.680668 -2.308402 2.469482 0
M  V30 25 C -3.770434 -2.151896 1.612241 0
M  V30 26 C -3.967701 -2.941052 0.513248 0
M  V30 27 C -3.084094 -3.946065 0.195456 0
M  V30 28 C -1.987015 -4.138861 1.018765 0
M  V30 29 C -1.833292 -3.318109 2.112480 0
M  V30 30 C -2.287264 0.889549 3.118926 0
M  V30 31 H 2.287655 -2.779002 -3.625744 0
M  V30 32 H 0.471310 -2.733595 -3.554619 0
M  V30 33 H 1.378625 -3.556259 -2.219601 0
M  V30 34 H 3.581809 -2.993757 -1.896051 0
M  V30 35 H 5.682713 -0.366565 0.773864 0
M  V30 36 H 3.764391 1.259704 0.615105 0
M  V30 37 H 0.717762 0.624514 -1.482875 0
M  V30 38 H 1.860281 5.235987 -1.167853 0
M  V30 39 H -1.481208 -0.562275 0.997125 0
M  V30 40 H 0.350721 -0.610218 0.839212 0
M  V30 41 H 0.051272 -1.494360 2.986451 0
M  V30 42 H 0.358721 0.258193 3.231301 0
M  V30 43 H -3.369621 -1.220047 4.157343 0
M  V30 44 H -1.825533 -2.106280 4.413728 0
M  V30 45 H -4.474985 -1.353284 1.869569 0
M  V30 46 H -4.804382 -2.820356 -0.143743 0
M  V30 47 H -3.237059 -4.576714 -0.682435 0
M  V30 48 H -1.320835 -4.936748 0.729320 0
M  V30 49 H -0.937336 -3.591925 2.666997 0
M  V30 50 H -2.531237 1.396316 4.070802 0
M  V30 51 H -3.277269 0.692003 2.610542 0
M  V30 END ATOM
M  V30 BEGIN BOND
M  V30 1 1 1 2
M  V30 2 1 2 3
M  V30 3 2 3 4
M  V30 4 1 4 5
M  V30 5 1 5 6
M  V30 6 2 5 7
M  V30 7 1 7 8
M  V30 8 2 8 9
M  V30 9 1 9 10
M  V30 10 1 10 11
M  V30 11 2 11 12
M  V30 12 1 12 13
M  V30 13 2 13 14
M  V30 14 1 14 15
M  V30 15 1 15 16
M  V30 16 1 16 17
M  V30 17 2 17 18
M  V30 18 1 18 19
M  V30 19 1 18 20
M  V30 20 1 20 21
M  V30 21 1 21 22
M  V30 22 1 22 23
M  V30 23 1 23 24
M  V30 24 2 24 25
M  V30 25 1 25 26
M  V30 26 2 26 27
M  V30 27 1 27 28
M  V30 28 2 28 29
M  V30 29 1 22 30
M  V30 30 1 9 3
M  V30 31 1 19 11
M  V30 32 1 29 24
M  V30 33 2 19 15
M  V30 34 1 30 17
M  V30 35 1 1 31
M  V30 36 1 1 32
M  V30 37 1 1 33
M  V30 38 1 4 34
M  V30 39 1 7 35
M  V30 40 1 8 36
M  V30 41 1 10 37
M  V30 42 1 13 38
M  V30 43 1 20 39
M  V30 44 1 20 40
M  V30 45 1 21 41
M  V30 46 1 21 42
M  V30 47 1 23 43
M  V30 48 1 23 44
M  V30 49 1 25 45
M  V30 50 1 26 46
M  V30 51 1 27 47
M  V30 52 1 28 48
M  V30 53 1 29 49
M  V30 54 1 30 50
M  V30 55 1 30 51
M  V30 END BOND
M  V30 END CTAB
M  END
>  <Dataset>  (925) 
ChEMBL_Kinases

>  <Ligand_Instance>  (925) 
nan

>  <PDB_ID>  (925) 
nan

>  <Standardized_SMILES>  (925) 
COc1cc(F)ccc1Nc1ncnc2sc3c(c12)CCN(Cc1ccccc1)C3

>  <Name>  (925) 
nan

>  <Pocket>  (925) 
nan

>  <ATP_Site>  (925) 
nan

>  <Peripheral>  (925) 
nan

>  <Num_H_Atoms_ProtBoundConf>  (925) 
nan

>  <Num_Resolved_Atoms>  (925) 
nan

>  <Num_Not_Resolved_Atoms>  (925) 
nan

$$$$
CHEMBL4447545
     RDKit          3D

  0  0  0  0  0  0  0  0  0  0999 V3000
M  V30 BEGIN CTAB
M  V30 COUNTS 39 41 0 0 0
M  V30 BEGIN ATOM
M  V30 1 C 1.012028 -6.928901 1.540382 0
M  V30 2 O 1.309119 -6.421654 0.258992 0
M  V30 3 C 1.700836 -5.100840 0.141704 0
M  V30 4 C 1.943714 -4.800261 -1.195492 0
M  V30 5 C 2.354646 -3.518716 -1.570892 0
M  V30 6 C 2.529761 -2.514721 -0.613183 0
M  V30 7 C 2.959947 -1.178246 -1.026802 0
M  V30 8 N 1.903636 -0.263806 -1.347408 0
M  V30 9 C 1.065614 0.425806 -0.411300 0
M  V30 10 O 1.225487 0.251832 0.815164 0
M  V30 11 N 0.034542 1.322340 -0.841662 0
M  V30 12 C -0.759961 1.974577 0.150271 0
M  V30 13 N -0.273081 3.140051 0.560135 0
M  V30 14 C -1.066407 3.700313 1.490860 0
M  V30 15 C -1.059240 4.867734 2.244000 0
M  V30 16 C -2.128349 5.049951 3.124659 0
M  V30 17 C -3.159652 4.132655 3.264412 0
M  V30 18 C -4.223189 4.393310 4.189617 0
M  V30 19 N -5.086294 4.620681 4.957366 0
M  V30 20 C -3.147321 2.984317 2.510026 0
M  V30 21 C -2.094971 2.792659 1.635092 0
M  V30 22 N -1.909603 1.735690 0.815724 0
M  V30 23 C 2.279980 -2.848269 0.702831 0
M  V30 24 C 1.874822 -4.108323 1.080471 0
M  V30 25 H 1.161690 -8.026812 1.602950 0
M  V30 26 H 1.728143 -6.479598 2.254928 0
M  V30 27 H -0.025343 -6.643311 1.835772 0
M  V30 28 H 1.853528 -5.471497 -2.062239 0
M  V30 29 H 2.554671 -3.239822 -2.598657 0
M  V30 30 H 3.562524 -0.689221 -0.209278 0
M  V30 31 H 3.598839 -1.288293 -1.929584 0
M  V30 32 H 1.667756 -0.034224 -2.355493 0
M  V30 33 H -0.111976 1.478793 -1.880877 0
M  V30 34 H -0.255559 5.564583 2.123520 0
M  V30 35 H -2.122805 5.970033 3.717806 0
M  V30 36 H -3.948196 2.257013 2.609729 0
M  V30 37 H -2.411289 0.851434 0.598015 0
M  V30 38 H 2.390992 -2.141831 1.486395 0
M  V30 39 H 1.657928 -4.456228 2.078158 0
M  V30 END ATOM
M  V30 BEGIN BOND
M  V30 1 1 1 2
M  V30 2 1 2 3
M  V30 3 2 3 4
M  V30 4 1 4 5
M  V30 5 2 5 6
M  V30 6 1 6 7
M  V30 7 1 7 8
M  V30 8 1 8 9
M  V30 9 2 9 10
M  V30 10 1 9 11
M  V30 11 1 11 12
M  V30 12 2 12 13
M  V30 13 1 13 14
M  V30 14 2 14 15
M  V30 15 1 15 16
M  V30 16 2 16 17
M  V30 17 1 17 18
M  V30 18 3 18 19
M  V30 19 1 17 20
M  V30 20 2 20 21
M  V30 21 1 21 22
M  V30 22 1 6 23
M  V30 23 2 23 24
M  V30 24 1 24 3
M  V30 25 1 22 12
M  V30 26 1 21 14
M  V30 27 1 1 25
M  V30 28 1 1 26
M  V30 29 1 1 27
M  V30 30 1 4 28
M  V30 31 1 5 29
M  V30 32 1 7 30
M  V30 33 1 7 31
M  V30 34 1 8 32
M  V30 35 1 11 33
M  V30 36 1 15 34
M  V30 37 1 16 35
M  V30 38 1 20 36
M  V30 39 1 22 37
M  V30 40 1 23 38
M  V30 41 1 24 39
M  V30 END BOND
M  V30 END CTAB
M  END
>  <Dataset>  (926) 
ChEMBL_Kinases

>  <Ligand_Instance>  (926) 
nan

>  <PDB_ID>  (926) 
nan

>  <Standardized_SMILES>  (926) 
COc1ccc(CNC(=O)Nc2nc3ccc(C#N)cc3[nH]2)cc1

>  <Name>  (926) 
nan

>  <Pocket>  (926) 
nan

>  <ATP_Site>  (926) 
nan

>  <Peripheral>  (926) 
nan

>  <Num_H_Atoms_ProtBoundConf>  (926) 
nan

>  <Num_Resolved_Atoms>  (926) 
nan

>  <Num_Not_Resolved_Atoms>  (926) 
nan

$$$$
CHEMBL4445992
     RDKit          3D

  0  0  0  0  0  0  0  0  0  0999 V3000
M  V30 BEGIN CTAB
M  V30 COUNTS 42 45 0 0 0
M  V30 BEGIN ATOM
M  V30 1 C 1.794450 -3.415238 5.214857 0
M  V30 2 C 2.440835 -3.862291 4.082005 0
M  V30 3 N 2.028194 -3.333985 2.922535 0
M  V30 4 C 1.049318 -2.420454 2.804983 0
M  V30 5 C 0.714798 -1.948971 1.529907 0
M  V30 6 N 1.369842 -2.439440 0.367337 0
M  V30 7 C 1.220840 -2.113392 -1.005490 0
M  V30 8 C 1.868927 -0.828367 -1.471914 0 CFG=1
M  V30 9 C 1.551088 -0.708454 -2.930680 0
M  V30 10 C 1.709653 0.635155 -3.539632 0
M  V30 11 C 1.319417 1.754873 -2.592691 0
M  V30 12 N 1.949356 1.565516 -1.306802 0
M  V30 13 C 1.368359 0.347802 -0.715966 0
M  V30 14 N -0.275519 -1.043206 1.554094 0
M  V30 15 C -0.922445 -0.585257 2.606447 0
M  V30 16 C -1.992324 0.416844 2.449640 0
M  V30 17 C -2.734444 0.969644 3.444131 0
M  V30 18 C -3.611502 1.851598 2.846819 0
M  V30 19 N -3.374083 1.804353 1.523826 0
M  V30 20 N -2.401060 0.942727 1.280721 0
M  V30 21 C -0.603972 -1.040092 3.866267 0
M  V30 22 C 0.404691 -1.974310 3.932370 0
M  V30 23 N 0.812733 -2.501972 5.119574 0
M  V30 24 H 2.112340 -3.829139 6.161589 0
M  V30 25 H 3.239789 -4.590085 4.039710 0
M  V30 26 H 2.105361 -3.184307 0.566835 0
M  V30 27 H 0.139485 -2.010076 -1.310321 0
M  V30 28 H 1.599002 -2.946326 -1.655007 0
M  V30 29 H 2.990534 -0.898709 -1.333878 0
M  V30 30 H 0.468367 -1.009143 -3.037510 0
M  V30 31 H 2.126167 -1.425600 -3.557590 0
M  V30 32 H 2.730404 0.816760 -3.960404 0
M  V30 33 H 1.010140 0.719984 -4.416657 0
M  V30 34 H 0.226531 1.879864 -2.547348 0
M  V30 35 H 1.735570 2.697397 -3.027041 0
M  V30 36 H 1.636370 2.357860 -0.687744 0
M  V30 37 H 0.277970 0.408473 -0.782499 0
M  V30 38 H 1.735385 0.266839 0.347789 0
M  V30 39 H -2.680723 0.784717 4.495622 0
M  V30 40 H -4.363422 2.484345 3.291146 0
M  V30 41 H -3.805558 2.306107 0.703727 0
M  V30 42 H -1.105972 -0.694588 4.758954 0
M  V30 END ATOM
M  V30 BEGIN BOND
M  V30 1 2 1 2
M  V30 2 1 2 3
M  V30 3 2 3 4
M  V30 4 1 4 5
M  V30 5 1 5 6
M  V30 6 1 6 7
M  V30 7 1 7 8
M  V30 8 1 8 9
M  V30 9 1 9 10
M  V30 10 1 10 11
M  V30 11 1 11 12
M  V30 12 1 12 13
M  V30 13 2 5 14
M  V30 14 1 14 15
M  V30 15 1 15 16
M  V30 16 1 16 17
M  V30 17 2 17 18
M  V30 18 1 18 19
M  V30 19 1 19 20
M  V30 20 2 15 21
M  V30 21 1 21 22
M  V30 22 2 22 23
M  V30 23 1 23 1
M  V30 24 1 22 4
M  V30 25 1 13 8
M  V30 26 2 20 16
M  V30 27 1 1 24
M  V30 28 1 2 25
M  V30 29 1 6 26
M  V30 30 1 7 27
M  V30 31 1 7 28
M  V30 32 1 8 29 CFG=3
M  V30 33 1 9 30
M  V30 34 1 9 31
M  V30 35 1 10 32
M  V30 36 1 10 33
M  V30 37 1 11 34
M  V30 38 1 11 35
M  V30 39 1 12 36
M  V30 40 1 13 37
M  V30 41 1 13 38
M  V30 42 1 17 39
M  V30 43 1 18 40
M  V30 44 1 19 41
M  V30 45 1 21 42
M  V30 END BOND
M  V30 END CTAB
M  END
>  <Dataset>  (927) 
ChEMBL_Kinases

>  <Ligand_Instance>  (927) 
nan

>  <PDB_ID>  (927) 
nan

>  <Standardized_SMILES>  (927) 
c1cnc2c(NC[C@H]3CCCNC3)nc(-c3cc[nH]n3)cc2n1

>  <Name>  (927) 
nan

>  <Pocket>  (927) 
nan

>  <ATP_Site>  (927) 
nan

>  <Peripheral>  (927) 
nan

>  <Num_H_Atoms_ProtBoundConf>  (927) 
nan

>  <Num_Resolved_Atoms>  (927) 
nan

>  <Num_Not_Resolved_Atoms>  (927) 
nan

$$$$
CHEMBL4445991
     RDKit          3D

  0  0  0  0  0  0  0  0  0  0999 V3000
M  V30 BEGIN CTAB
M  V30 COUNTS 37 40 0 0 0
M  V30 BEGIN ATOM
M  V30 1 C -0.296654 -1.427440 4.276023 0
M  V30 2 N 0.429553 -2.665907 4.001561 0
M  V30 3 N 0.872482 -3.559214 4.875610 0
M  V30 4 C 1.497536 -4.575861 4.267018 0
M  V30 5 C 1.449361 -4.312060 2.913745 0
M  V30 6 C 0.771311 -3.103633 2.776779 0
M  V30 7 C 0.511601 -2.476800 1.485102 0
M  V30 8 N 0.510175 -1.143272 1.508918 0
M  V30 9 C 0.278882 -0.435213 0.362705 0
M  V30 10 N 0.272248 0.965100 0.354243 0
M  V30 11 C 0.139610 2.259644 -0.244759 0
M  V30 12 C -1.257201 2.694703 -0.731290 0
M  V30 13 C 1.288409 2.712862 -1.177445 0
M  V30 14 C 1.046478 3.401041 0.092467 0
M  V30 15 C 0.056021 -1.182958 -0.776627 0
M  V30 16 C -0.186477 -0.593667 -2.000091 0
M  V30 17 C -0.416790 -1.255138 -3.187432 0
M  V30 18 N -0.403859 -2.616497 -3.150634 0
M  V30 19 C -0.174137 -3.277921 -1.995321 0
M  V30 20 C 0.049453 -2.561473 -0.841404 0
M  V30 21 N 0.288005 -3.143218 0.345325 0
M  V30 22 H 0.454082 -0.585287 4.257598 0
M  V30 23 H -0.651392 -1.504985 5.329664 0
M  V30 24 H -1.104197 -1.249527 3.543692 0
M  V30 25 H 1.973996 -5.464197 4.658837 0
M  V30 26 H 1.848044 -4.901951 2.083500 0
M  V30 27 H 0.451264 1.346686 1.331774 0
M  V30 28 H -1.670655 3.278307 0.116720 0
M  V30 29 H -1.167364 3.359515 -1.600892 0
M  V30 30 H -1.852917 1.796115 -0.945645 0
M  V30 31 H 2.152239 2.018649 -1.190228 0
M  V30 32 H 0.977116 3.169832 -2.155138 0
M  V30 33 H 1.793104 3.276768 0.924399 0
M  V30 34 H 0.630966 4.413990 0.068218 0
M  V30 35 H -0.204877 0.477073 -2.089139 0
M  V30 36 H -0.601720 -0.737833 -4.118455 0
M  V30 37 H -0.156050 -4.352655 -1.926427 0
M  V30 END ATOM
M  V30 BEGIN BOND
M  V30 1 1 1 2
M  V30 2 1 2 3
M  V30 3 2 3 4
M  V30 4 1 4 5
M  V30 5 2 5 6
M  V30 6 1 6 7
M  V30 7 2 7 8
M  V30 8 1 8 9
M  V30 9 1 9 10
M  V30 10 1 10 11
M  V30 11 1 11 12
M  V30 12 1 11 13
M  V30 13 1 13 14
M  V30 14 2 9 15
M  V30 15 1 15 16
M  V30 16 2 16 17
M  V30 17 1 17 18
M  V30 18 2 18 19
M  V30 19 1 19 20
M  V30 20 2 20 21
M  V30 21 1 6 2
M  V30 22 1 21 7
M  V30 23 1 14 11
M  V30 24 1 20 15
M  V30 25 1 1 22
M  V30 26 1 1 23
M  V30 27 1 1 24
M  V30 28 1 4 25
M  V30 29 1 5 26
M  V30 30 1 10 27
M  V30 31 1 12 28
M  V30 32 1 12 29
M  V30 33 1 12 30
M  V30 34 1 13 31
M  V30 35 1 13 32
M  V30 36 1 14 33
M  V30 37 1 14 34
M  V30 38 1 16 35
M  V30 39 1 17 36
M  V30 40 1 19 37
M  V30 END BOND
M  V30 END CTAB
M  END
>  <Dataset>  (928) 
ChEMBL_Kinases

>  <Ligand_Instance>  (928) 
nan

>  <PDB_ID>  (928) 
nan

>  <Standardized_SMILES>  (928) 
Cn1nccc1-c1nc(NC2(C)CC2)c2ccncc2n1

>  <Name>  (928) 
nan

>  <Pocket>  (928) 
nan

>  <ATP_Site>  (928) 
nan

>  <Peripheral>  (928) 
nan

>  <Num_H_Atoms_ProtBoundConf>  (928) 
nan

>  <Num_Resolved_Atoms>  (928) 
nan

>  <Num_Not_Resolved_Atoms>  (928) 
nan

$$$$
CHEMBL4445946
     RDKit          3D

  0  0  0  0  0  0  0  0  0  0999 V3000
M  V30 BEGIN CTAB
M  V30 COUNTS 108 108 0 0 0
M  V30 BEGIN ATOM
M  V30 1 C 1.675304 -11.829894 -0.277707 0
M  V30 2 C 2.255988 -10.846983 -1.293881 0
M  V30 3 C 2.452428 -9.480183 -0.707153 0
M  V30 4 C 3.026254 -8.534435 -1.754469 0
M  V30 5 C 3.214289 -7.162432 -1.161164 0
M  V30 6 C 3.785611 -6.169821 -2.179043 0
M  V30 7 C 3.926850 -4.837205 -1.506519 0
M  V30 8 C 4.494251 -3.763778 -2.415491 0
M  V30 9 C 4.547117 -2.504228 -1.561314 0
M  V30 10 C 5.106517 -1.315309 -2.289432 0
M  V30 11 C 5.121771 -0.104482 -1.352170 0
M  V30 12 C 3.753597 0.264540 -0.888851 0
M  V30 13 C 2.830812 0.642978 -2.025754 0
M  V30 14 C 3.350562 1.855828 -2.774398 0
M  V30 15 C 3.447920 3.056754 -1.853038 0
M  V30 16 C 2.091862 3.411054 -1.277128 0
M  V30 17 C 1.101835 3.783983 -2.328457 0
M  V30 18 C -0.252285 4.084296 -1.652549 0
M  V30 19 O -0.197654 5.089732 -0.745731 0
M  V30 20 C -1.350598 5.406049 -0.069876 0
M  V30 21 C -2.500584 5.952102 -0.838622 0 CFG=2
M  V30 22 C -3.694402 5.923791 0.185123 0
M  V30 23 O -3.756396 4.600865 0.544749 0
M  V30 24 P -5.150139 4.189104 1.422810 0
M  V30 25 O -4.777308 4.652290 2.848262 0
M  V30 26 O -6.334882 5.276937 0.994130 0
M  V30 27 O -5.356669 2.654081 1.474485 0
M  V30 28 C -5.586857 1.697666 2.299251 0 CFG=1
M  V30 29 C -6.480729 0.556537 2.048403 0 CFG=2
M  V30 30 O -6.604407 -0.130519 3.258244 0
M  V30 31 C -5.979218 -0.431039 1.019549 0 CFG=1
M  V30 32 O -6.993615 -0.873057 0.199715 0
M  V30 33 C -4.797005 0.146621 0.264316 0 CFG=2
M  V30 34 O -4.310941 -0.790980 -0.646221 0
M  V30 35 C -3.699865 0.406682 1.266012 0
M  V30 36 C -4.171830 1.041424 2.545322 0 CFG=1
M  V30 37 O -3.286157 2.005007 2.891111 0
M  V30 38 C -2.609697 2.016249 4.041142 0
M  V30 39 C -1.660058 0.879622 4.235722 0
M  V30 40 C -0.599574 0.784487 3.149460 0
M  V30 41 C -2.251186 -0.448963 4.499050 0
M  V30 42 O -2.921619 5.096333 -1.839688 0
M  V30 43 C -3.141333 5.868333 -3.005956 0
M  V30 44 H 1.922482 -11.579677 0.756283 0
M  V30 45 H 2.073484 -12.852467 -0.520789 0
M  V30 46 H 0.573621 -11.905753 -0.376882 0
M  V30 47 H 3.201186 -11.250512 -1.706200 0
M  V30 48 H 1.510407 -10.745465 -2.124743 0
M  V30 49 H 1.506841 -9.094127 -0.291791 0
M  V30 50 H 3.165417 -9.554634 0.145071 0
M  V30 51 H 3.969990 -8.948102 -2.122053 0
M  V30 52 H 2.300403 -8.513466 -2.574436 0
M  V30 53 H 3.936749 -7.199435 -0.295453 0
M  V30 54 H 2.256213 -6.766731 -0.827453 0
M  V30 55 H 4.779145 -6.519144 -2.522432 0
M  V30 56 H 3.104200 -6.075641 -3.039918 0
M  V30 57 H 4.599079 -4.901114 -0.623328 0
M  V30 58 H 2.946527 -4.488447 -1.133745 0
M  V30 59 H 5.536395 -3.994188 -2.714100 0
M  V30 60 H 3.839502 -3.618906 -3.289028 0
M  V30 61 H 5.122673 -2.754588 -0.658558 0
M  V30 62 H 3.482269 -2.339552 -1.252754 0
M  V30 63 H 4.596018 -1.121184 -3.232693 0
M  V30 64 H 6.174219 -1.568164 -2.525308 0
M  V30 65 H 5.693605 -0.449903 -0.461026 0
M  V30 66 H 5.693629 0.724692 -1.781864 0
M  V30 67 H 3.300864 -0.583690 -0.356822 0
M  V30 68 H 3.803993 1.089086 -0.149868 0
M  V30 69 H 1.824340 0.765450 -1.618476 0
M  V30 70 H 2.805330 -0.188228 -2.758375 0
M  V30 71 H 2.680701 2.083093 -3.618205 0
M  V30 72 H 4.344619 1.638201 -3.157041 0
M  V30 73 H 4.137418 2.880989 -1.034509 0
M  V30 74 H 3.803398 3.906002 -2.469721 0
M  V30 75 H 1.739983 2.595727 -0.611606 0
M  V30 76 H 2.245728 4.287971 -0.618930 0
M  V30 77 H 1.375313 4.770854 -2.792303 0
M  V30 78 H 0.969443 3.076062 -3.145145 0
M  V30 79 H -0.587066 3.161987 -1.094426 0
M  V30 80 H -0.946088 4.187429 -2.494230 0
M  V30 81 H -1.138964 6.053619 0.827508 0
M  V30 82 H -1.705631 4.424687 0.391478 0
M  V30 83 H -2.386176 6.997936 -1.123766 0
M  V30 84 H -3.386612 6.531550 1.057671 0
M  V30 85 H -4.611250 6.263134 -0.306245 0
M  V30 86 H -7.243766 4.962249 0.924035 0
M  V30 87 H -5.808986 2.078710 3.315133 0
M  V30 88 H -7.531314 0.785642 1.785738 0
M  V30 89 H -5.954695 -0.844642 3.373690 0
M  V30 90 H -5.570888 -1.328674 1.529768 0
M  V30 91 H -6.751487 -0.996066 -0.744953 0
M  V30 92 H -5.036685 1.055094 -0.308812 0
M  V30 93 H -3.625952 -0.405469 -1.221464 0
M  V30 94 H -2.983933 1.092981 0.743474 0
M  V30 95 H -3.192878 -0.529998 1.478980 0
M  V30 96 H -4.268760 0.279627 3.306403 0
M  V30 97 H -3.301419 2.018069 4.934803 0
M  V30 98 H -1.998978 2.954794 4.198937 0
M  V30 99 H -1.067720 1.146182 5.186811 0
M  V30 100 H 0.298051 0.321710 3.604477 0
M  V30 101 H -0.956922 0.080687 2.369723 0
M  V30 102 H -0.383552 1.793093 2.756861 0
M  V30 103 H -1.466428 -1.026480 5.104693 0
M  V30 104 H -3.124434 -0.424011 5.200638 0
M  V30 105 H -2.415378 -1.098579 3.634306 0
M  V30 106 H -3.475730 5.204618 -3.811341 0
M  V30 107 H -3.902574 6.662408 -2.828007 0
M  V30 108 H -2.144474 6.267967 -3.280813 0
M  V30 END ATOM
M  V30 BEGIN BOND
M  V30 1 1 1 2
M  V30 2 1 2 3
M  V30 3 1 3 4
M  V30 4 1 4 5
M  V30 5 1 5 6
M  V30 6 1 6 7
M  V30 7 1 7 8
M  V30 8 1 8 9
M  V30 9 1 9 10
M  V30 10 1 10 11
M  V30 11 1 11 12
M  V30 12 1 12 13
M  V30 13 1 13 14
M  V30 14 1 14 15
M  V30 15 1 15 16
M  V30 16 1 16 17
M  V30 17 1 17 18
M  V30 18 1 18 19
M  V30 19 1 19 20
M  V30 20 1 20 21
M  V30 21 1 21 22
M  V30 22 1 22 23
M  V30 23 1 23 24
M  V30 24 2 24 25
M  V30 25 1 24 26
M  V30 26 1 24 27
M  V30 27 1 27 28
M  V30 28 1 28 29
M  V30 29 1 29 30
M  V30 30 1 29 31
M  V30 31 1 31 32
M  V30 32 1 31 33
M  V30 33 1 33 34
M  V30 34 1 33 35
M  V30 35 1 35 36
M  V30 36 1 36 37
M  V30 37 1 37 38
M  V30 38 1 38 39
M  V30 39 1 39 40
M  V30 40 1 39 41
M  V30 41 1 21 42
M  V30 42 1 42 43
M  V30 43 1 36 28
M  V30 44 1 1 44
M  V30 45 1 1 45
M  V30 46 1 1 46
M  V30 47 1 2 47
M  V30 48 1 2 48
M  V30 49 1 3 49
M  V30 50 1 3 50
M  V30 51 1 4 51
M  V30 52 1 4 52
M  V30 53 1 5 53
M  V30 54 1 5 54
M  V30 55 1 6 55
M  V30 56 1 6 56
M  V30 57 1 7 57
M  V30 58 1 7 58
M  V30 59 1 8 59
M  V30 60 1 8 60
M  V30 61 1 9 61
M  V30 62 1 9 62
M  V30 63 1 10 63
M  V30 64 1 10 64
M  V30 65 1 11 65
M  V30 66 1 11 66
M  V30 67 1 12 67
M  V30 68 1 12 68
M  V30 69 1 13 69
M  V30 70 1 13 70
M  V30 71 1 14 71
M  V30 72 1 14 72
M  V30 73 1 15 73
M  V30 74 1 15 74
M  V30 75 1 16 75
M  V30 76 1 16 76
M  V30 77 1 17 77
M  V30 78 1 17 78
M  V30 79 1 18 79
M  V30 80 1 18 80
M  V30 81 1 20 81
M  V30 82 1 20 82
M  V30 83 1 21 83 CFG=3
M  V30 84 1 22 84
M  V30 85 1 22 85
M  V30 86 1 26 86
M  V30 87 1 28 87 CFG=1
M  V30 88 1 29 88 CFG=3
M  V30 89 1 30 89
M  V30 90 1 31 90 CFG=1
M  V30 91 1 32 91
M  V30 92 1 33 92 CFG=3
M  V30 93 1 34 93
M  V30 94 1 35 94
M  V30 95 1 35 95
M  V30 96 1 36 96 CFG=1
M  V30 97 1 38 97
M  V30 98 1 38 98
M  V30 99 1 39 99
M  V30 100 1 40 100
M  V30 101 1 40 101
M  V30 102 1 40 102
M  V30 103 1 41 103
M  V30 104 1 41 104
M  V30 105 1 41 105
M  V30 106 1 43 106
M  V30 107 1 43 107
M  V30 108 1 43 108
M  V30 END BOND
M  V30 END CTAB
M  END
>  <Dataset>  (929) 
ChEMBL_Kinases

>  <Ligand_Instance>  (929) 
nan

>  <PDB_ID>  (929) 
nan

>  <Standardized_SMILES>  (929) 
CCCCCCCCCCCCCCCCCCOC[C@H](COP(=O)(O)O[C@H]1[C@H](O)[C@@H](O)[C@H](O)C[C@H]1OCC(C)C)OC

>  <Name>  (929) 
nan

>  <Pocket>  (929) 
nan

>  <ATP_Site>  (929) 
nan

>  <Peripheral>  (929) 
nan

>  <Num_H_Atoms_ProtBoundConf>  (929) 
nan

>  <Num_Resolved_Atoms>  (929) 
nan

>  <Num_Not_Resolved_Atoms>  (929) 
nan

$$$$
CHEMBL4445876
     RDKit          3D

  0  0  0  0  0  0  0  0  0  0999 V3000
M  V30 BEGIN CTAB
M  V30 COUNTS 55 58 0 0 0
M  V30 BEGIN ATOM
M  V30 1 C -2.090062 -3.543044 3.698582 0
M  V30 2 O -1.183921 -3.878647 2.687074 0
M  V30 3 C -0.333158 -3.003576 2.037569 0
M  V30 4 C -0.165096 -1.650263 2.206002 0
M  V30 5 N 0.737781 -1.018632 1.442217 0
M  V30 6 C 1.505886 -1.636248 0.504237 0
M  V30 7 N 2.441978 -0.817959 -0.232842 0
M  V30 8 C 2.361994 0.592193 -0.062930 0
M  V30 9 C 3.442712 1.442627 0.057026 0
M  V30 10 C 3.189769 2.804969 0.186108 0
M  V30 11 C 1.904297 3.294555 0.193286 0
M  V30 12 N 1.619738 4.681100 0.353573 0
M  V30 13 C 2.491778 5.620963 1.096930 0
M  V30 14 C 1.616682 5.905039 2.330265 0
M  V30 15 O 0.484929 6.572490 1.932134 0
M  V30 16 C -0.300900 5.928147 1.024246 0
M  V30 17 C 0.477161 5.399374 -0.178295 0
M  V30 18 C 0.795757 2.449218 0.072075 0
M  V30 19 C 1.052944 1.097530 -0.055503 0
M  V30 20 N 1.338651 -2.958455 0.342059 0
M  V30 21 C 0.441571 -3.660398 1.080499 0
M  V30 22 N 0.403963 -5.045561 0.784870 0
M  V30 23 C -0.718800 -5.457176 -0.010434 0
M  V30 24 C -0.842449 -6.741774 -0.477024 0
M  V30 25 C -1.895116 -7.213002 -1.228957 0
M  V30 26 C -2.877116 -6.291063 -1.511530 0
M  V30 27 C -4.080040 -6.697969 -2.322480 0
M  V30 28 C -2.842623 -4.983372 -1.089803 0
M  V30 29 O -3.838772 -4.087357 -1.389257 0
M  V30 30 C -1.757339 -4.612847 -0.350215 0
M  V30 31 H -3.044078 -4.146092 3.632231 0
M  V30 32 H -2.393350 -2.460051 3.698046 0
M  V30 33 H -1.676633 -3.767292 4.701660 0
M  V30 34 H -0.799612 -1.221992 2.963518 0
M  V30 35 H 3.116108 -1.301429 -0.841177 0
M  V30 36 H 4.425753 0.993922 0.043477 0
M  V30 37 H 4.037753 3.467969 0.279066 0
M  V30 38 H 2.606121 6.578744 0.590103 0
M  V30 39 H 3.454856 5.162767 1.364577 0
M  V30 40 H 1.395930 4.944239 2.848208 0
M  V30 41 H 2.181926 6.513746 3.028206 0
M  V30 42 H -1.004820 6.697476 0.608065 0
M  V30 43 H -0.930017 5.132278 1.421413 0
M  V30 44 H -0.193758 4.813343 -0.801282 0
M  V30 45 H 0.834107 6.285738 -0.742793 0
M  V30 46 H -0.213751 2.842522 0.074999 0
M  V30 47 H 0.131300 0.515620 -0.159104 0
M  V30 48 H 1.088973 -5.745632 1.081680 0
M  V30 49 H -0.015254 -7.408431 -0.207342 0
M  V30 50 H -1.960268 -8.225664 -1.577993 0
M  V30 51 H -4.914544 -6.893508 -1.610594 0
M  V30 52 H -3.827357 -7.629081 -2.842115 0
M  V30 53 H -4.369950 -5.887218 -2.986660 0
M  V30 54 H -3.646228 -3.106228 -1.566638 0
M  V30 55 H -1.720327 -3.587543 -0.011786 0
M  V30 END ATOM
M  V30 BEGIN BOND
M  V30 1 1 1 2
M  V30 2 1 2 3
M  V30 3 2 3 4
M  V30 4 1 4 5
M  V30 5 2 5 6
M  V30 6 1 6 7
M  V30 7 1 7 8
M  V30 8 2 8 9
M  V30 9 1 9 10
M  V30 10 2 10 11
M  V30 11 1 11 12
M  V30 12 1 12 13
M  V30 13 1 13 14
M  V30 14 1 14 15
M  V30 15 1 15 16
M  V30 16 1 16 17
M  V30 17 1 11 18
M  V30 18 2 18 19
M  V30 19 1 6 20
M  V30 20 2 20 21
M  V30 21 1 21 22
M  V30 22 1 22 23
M  V30 23 2 23 24
M  V30 24 1 24 25
M  V30 25 2 25 26
M  V30 26 1 26 27
M  V30 27 1 26 28
M  V30 28 1 28 29
M  V30 29 2 28 30
M  V30 30 1 21 3
M  V30 31 1 30 23
M  V30 32 1 19 8
M  V30 33 1 17 12
M  V30 34 1 1 31
M  V30 35 1 1 32
M  V30 36 1 1 33
M  V30 37 1 4 34
M  V30 38 1 7 35
M  V30 39 1 9 36
M  V30 40 1 10 37
M  V30 41 1 13 38
M  V30 42 1 13 39
M  V30 43 1 14 40
M  V30 44 1 14 41
M  V30 45 1 16 42
M  V30 46 1 16 43
M  V30 47 1 17 44
M  V30 48 1 17 45
M  V30 49 1 18 46
M  V30 50 1 19 47
M  V30 51 1 22 48
M  V30 52 1 24 49
M  V30 53 1 25 50
M  V30 54 1 27 51
M  V30 55 1 27 52
M  V30 56 1 27 53
M  V30 57 1 29 54
M  V30 58 1 30 55
M  V30 END BOND
M  V30 END CTAB
M  END
>  <Dataset>  (930) 
ChEMBL_Kinases

>  <Ligand_Instance>  (930) 
nan

>  <PDB_ID>  (930) 
nan

>  <Standardized_SMILES>  (930) 
COc1cnc(Nc2ccc(N3CCOCC3)cc2)nc1Nc1ccc(C)c(O)c1

>  <Name>  (930) 
nan

>  <Pocket>  (930) 
nan

>  <ATP_Site>  (930) 
nan

>  <Peripheral>  (930) 
nan

>  <Num_H_Atoms_ProtBoundConf>  (930) 
nan

>  <Num_Resolved_Atoms>  (930) 
nan

>  <Num_Not_Resolved_Atoms>  (930) 
nan

$$$$
CHEMBL4750823
     RDKit          3D

  0  0  0  0  0  0  0  0  0  0999 V3000
M  V30 BEGIN CTAB
M  V30 COUNTS 62 66 0 0 0
M  V30 BEGIN ATOM
M  V30 1 C 6.196242 -1.741903 4.652686 0
M  V30 2 O 4.996860 -1.086837 4.928443 0
M  V30 3 C 4.507458 -0.089392 4.115146 0
M  V30 4 C 3.281497 0.479786 4.524431 0
M  V30 5 C 2.737441 1.466994 3.777731 0
M  V30 6 C 3.272775 1.974332 2.641853 0
M  V30 7 C 2.779340 3.041197 1.796961 0
M  V30 8 O 3.243327 3.453119 0.711849 0
M  V30 9 N 1.605697 3.789991 2.169435 0
M  V30 10 C 0.818071 4.856567 1.683399 0
M  V30 11 C 1.021379 6.165185 1.978535 0
M  V30 12 N 0.049346 6.797308 1.308029 0
M  V30 13 N -0.693174 5.909020 0.647772 0
M  V30 14 C -0.285839 4.637543 0.820370 0
M  V30 15 C -0.883941 3.500983 0.210188 0
M  V30 16 N -0.577954 2.196715 0.225125 0
M  V30 17 C -1.466460 1.486778 -0.478096 0
M  V30 18 C -1.762687 0.121935 -1.023580 0
M  V30 19 C -2.876457 -0.292203 -1.715085 0
M  V30 20 C -2.767776 -1.649720 -2.058553 0
M  V30 21 C -1.761571 -2.514063 -1.796770 0
M  V30 22 C -1.887400 -3.931457 -2.274740 0
M  V30 23 N -2.430347 -4.826939 -1.336337 0
M  V30 24 C -3.718333 -4.616837 -0.812421 0
M  V30 25 C -4.677113 -5.770335 -0.988276 0
M  V30 26 C -4.149917 -6.569996 -2.171419 0
M  V30 27 C -2.885800 -7.241272 -1.647013 0
M  V30 28 C -1.893470 -6.141315 -1.288887 0
M  V30 29 C -0.665638 -2.031348 -1.093748 0
M  V30 30 C -0.670472 -0.692873 -0.703936 0
M  V30 31 C -2.399416 2.413563 -0.966926 0
M  V30 32 N -2.025982 3.655204 -0.533337 0
M  V30 33 C 4.449375 1.440911 2.227143 0
M  V30 34 C 5.071058 0.421883 2.946241 0
M  V30 35 H 7.047214 -1.051977 4.487766 0
M  V30 36 H 6.066163 -2.293135 3.696614 0
M  V30 37 H 6.430499 -2.487885 5.464678 0
M  V30 38 H 2.820817 0.117876 5.420248 0
M  V30 39 H 1.787824 1.898392 4.100274 0
M  V30 40 H 1.167789 3.483213 3.086909 0
M  V30 41 H 1.736221 6.678071 2.584365 0
M  V30 42 H -0.259811 7.782396 1.181723 0
M  V30 43 H -3.629326 0.426560 -1.881843 0
M  V30 44 H -3.666906 -1.929657 -2.615017 0
M  V30 45 H -2.381680 -3.920353 -3.275357 0
M  V30 46 H -0.818437 -4.247310 -2.455043 0
M  V30 47 H -4.239490 -3.739279 -1.277312 0
M  V30 48 H -3.640125 -4.408024 0.294154 0
M  V30 49 H -5.672947 -5.402851 -1.248689 0
M  V30 50 H -4.706262 -6.423803 -0.097629 0
M  V30 51 H -4.836737 -7.299150 -2.574072 0
M  V30 52 H -3.852593 -5.843623 -2.940642 0
M  V30 53 H -2.431542 -7.942847 -2.335302 0
M  V30 54 H -3.189226 -7.704756 -0.662880 0
M  V30 55 H -1.050018 -6.202757 -2.006274 0
M  V30 56 H -1.469499 -6.329735 -0.285393 0
M  V30 57 H 0.100834 -2.772630 -0.927854 0
M  V30 58 H 0.224290 -0.421968 -0.168551 0
M  V30 59 H -3.318666 2.363775 -1.588610 0
M  V30 60 H -2.576305 4.535145 -0.781525 0
M  V30 61 H 5.003362 1.725938 1.357471 0
M  V30 62 H 6.003260 -0.024390 2.655285 0
M  V30 END ATOM
M  V30 BEGIN BOND
M  V30 1 1 1 2
M  V30 2 1 2 3
M  V30 3 2 3 4
M  V30 4 1 4 5
M  V30 5 2 5 6
M  V30 6 1 6 7
M  V30 7 2 7 8
M  V30 8 1 7 9
M  V30 9 1 9 10
M  V30 10 2 10 11
M  V30 11 1 11 12
M  V30 12 1 12 13
M  V30 13 2 13 14
M  V30 14 1 14 15
M  V30 15 2 15 16
M  V30 16 1 16 17
M  V30 17 1 17 18
M  V30 18 2 18 19
M  V30 19 1 19 20
M  V30 20 2 20 21
M  V30 21 1 21 22
M  V30 22 1 22 23
M  V30 23 1 23 24
M  V30 24 1 24 25
M  V30 25 1 25 26
M  V30 26 1 26 27
M  V30 27 1 27 28
M  V30 28 1 21 29
M  V30 29 2 29 30
M  V30 30 2 17 31
M  V30 31 1 31 32
M  V30 32 1 6 33
M  V30 33 2 33 34
M  V30 34 1 34 3
M  V30 35 1 14 10
M  V30 36 1 32 15
M  V30 37 1 30 18
M  V30 38 1 28 23
M  V30 39 1 1 35
M  V30 40 1 1 36
M  V30 41 1 1 37
M  V30 42 1 4 38
M  V30 43 1 5 39
M  V30 44 1 9 40
M  V30 45 1 11 41
M  V30 46 1 12 42
M  V30 47 1 19 43
M  V30 48 1 20 44
M  V30 49 1 22 45
M  V30 50 1 22 46
M  V30 51 1 24 47
M  V30 52 1 24 48
M  V30 53 1 25 49
M  V30 54 1 25 50
M  V30 55 1 26 51
M  V30 56 1 26 52
M  V30 57 1 27 53
M  V30 58 1 27 54
M  V30 59 1 28 55
M  V30 60 1 28 56
M  V30 61 1 29 57
M  V30 62 1 30 58
M  V30 63 1 31 59
M  V30 64 1 32 60
M  V30 65 1 33 61
M  V30 66 1 34 62
M  V30 END BOND
M  V30 END CTAB
M  END
>  <Dataset>  (931) 
ChEMBL_Kinases

>  <Ligand_Instance>  (931) 
nan

>  <PDB_ID>  (931) 
nan

>  <Standardized_SMILES>  (931) 
COc1ccc(C(=O)Nc2c[nH]nc2-c2nc(-c3ccc(CN4CCCCC4)cc3)c[nH]2)cc1

>  <Name>  (931) 
nan

>  <Pocket>  (931) 
nan

>  <ATP_Site>  (931) 
nan

>  <Peripheral>  (931) 
nan

>  <Num_H_Atoms_ProtBoundConf>  (931) 
nan

>  <Num_Resolved_Atoms>  (931) 
nan

>  <Num_Not_Resolved_Atoms>  (931) 
nan

$$$$
CHEMBL4445835
     RDKit          3D

  0  0  0  0  0  0  0  0  0  0999 V3000
M  V30 BEGIN CTAB
M  V30 COUNTS 51 55 0 0 0
M  V30 BEGIN ATOM
M  V30 1 C 5.912625 -2.995371 1.347611 0
M  V30 2 O 5.328159 -2.481436 2.537967 0
M  V30 3 C 4.417625 -1.439617 2.514661 0
M  V30 4 C 3.850024 -0.935295 3.665177 0
M  V30 5 C 2.933303 0.120625 3.590643 0
M  V30 6 C 2.582175 0.674914 2.352771 0
M  V30 7 C 3.141087 0.182669 1.169637 0
M  V30 8 N 2.850053 0.661423 -0.128303 0
M  V30 9 C 2.188255 1.869481 -0.455029 0
M  V30 10 N 3.059260 2.798165 -0.867383 0
M  V30 11 C 2.767151 4.043166 -1.241059 0
M  V30 12 N 1.464372 4.371398 -1.189438 0
M  V30 13 C 0.555999 3.495047 -0.789711 0
M  V30 14 S -1.198614 3.551811 -0.587366 0
M  V30 15 C -1.436184 1.875774 -0.004990 0
M  V30 16 C -0.161872 1.365230 0.002740 0
M  V30 17 C 0.852318 2.194695 -0.397873 0
M  V30 18 C -0.231952 -0.039505 0.466324 0
M  V30 19 C -1.434915 -0.688096 -0.197503 0
M  V30 20 N -2.657985 -0.135209 0.232993 0
M  V30 21 S -3.616680 -1.042427 1.283400 0
M  V30 22 O -2.797110 -1.332895 2.532148 0
M  V30 23 O -4.788074 -0.216514 1.720689 0
M  V30 24 C -4.158880 -2.565626 0.620540 0
M  V30 25 C -3.842089 -3.761549 1.226745 0
M  V30 26 C -4.302519 -4.953418 0.660537 0
M  V30 27 C -5.066795 -4.873794 -0.501128 0
M  V30 28 F -5.481365 -6.070158 -0.996951 0
M  V30 29 C -5.360190 -3.657232 -1.074977 0
M  V30 30 C -4.915190 -2.457581 -0.532346 0
M  V30 31 F -5.205740 -1.264930 -1.101606 0
M  V30 32 C -2.695892 1.269141 0.358744 0
M  V30 33 C 4.024903 -0.848217 1.367624 0
M  V30 34 H 6.307809 -2.099904 0.785898 0
M  V30 35 H 6.769341 -3.646022 1.557146 0
M  V30 36 H 5.165348 -3.467636 0.687998 0
M  V30 37 H 4.093893 -1.340079 4.647728 0
M  V30 38 H 2.456566 0.550865 4.484233 0
M  V30 39 H 1.869621 1.500428 2.251367 0
M  V30 40 H 3.141274 0.083279 -0.942494 0
M  V30 41 H 3.464115 4.795950 -1.572977 0
M  V30 42 H 0.631128 -0.656482 0.122348 0
M  V30 43 H -0.341468 -0.027235 1.558914 0
M  V30 44 H -1.315567 -0.483875 -1.291951 0
M  V30 45 H -1.385926 -1.781078 -0.090937 0
M  V30 46 H -3.238505 -3.761814 2.136316 0
M  V30 47 H -4.005231 -5.841783 1.203754 0
M  V30 48 H -5.959671 -3.632243 -1.981621 0
M  V30 49 H -3.527276 1.665299 -0.268190 0
M  V30 50 H -2.936936 1.554257 1.403177 0
M  V30 51 H 4.483927 -1.253304 0.448664 0
M  V30 END ATOM
M  V30 BEGIN BOND
M  V30 1 1 1 2
M  V30 2 1 2 3
M  V30 3 2 3 4
M  V30 4 1 4 5
M  V30 5 2 5 6
M  V30 6 1 6 7
M  V30 7 1 7 8
M  V30 8 1 8 9
M  V30 9 2 9 10
M  V30 10 1 10 11
M  V30 11 2 11 12
M  V30 12 1 12 13
M  V30 13 1 13 14
M  V30 14 1 14 15
M  V30 15 2 15 16
M  V30 16 1 16 17
M  V30 17 1 16 18
M  V30 18 1 18 19
M  V30 19 1 19 20
M  V30 20 1 20 21
M  V30 21 2 21 22
M  V30 22 2 21 23
M  V30 23 1 21 24
M  V30 24 2 24 25
M  V30 25 1 25 26
M  V30 26 2 26 27
M  V30 27 1 27 28
M  V30 28 1 27 29
M  V30 29 2 29 30
M  V30 30 1 30 31
M  V30 31 1 20 32
M  V30 32 2 7 33
M  V30 33 1 33 3
M  V30 34 1 17 9
M  V30 35 1 30 24
M  V30 36 2 17 13
M  V30 37 1 32 15
M  V30 38 1 1 34
M  V30 39 1 1 35
M  V30 40 1 1 36
M  V30 41 1 4 37
M  V30 42 1 5 38
M  V30 43 1 6 39
M  V30 44 1 8 40
M  V30 45 1 11 41
M  V30 46 1 18 42
M  V30 47 1 18 43
M  V30 48 1 19 44
M  V30 49 1 19 45
M  V30 50 1 25 46
M  V30 51 1 26 47
M  V30 52 1 29 48
M  V30 53 1 32 49
M  V30 54 1 32 50
M  V30 55 1 33 51
M  V30 END BOND
M  V30 END CTAB
M  END
>  <Dataset>  (932) 
ChEMBL_Kinases

>  <Ligand_Instance>  (932) 
nan

>  <PDB_ID>  (932) 
nan

>  <Standardized_SMILES>  (932) 
COc1cccc(Nc2ncnc3sc4c(c23)CCN(S(=O)(=O)c2ccc(F)cc2F)C4)c1

>  <Name>  (932) 
nan

>  <Pocket>  (932) 
nan

>  <ATP_Site>  (932) 
nan

>  <Peripheral>  (932) 
nan

>  <Num_H_Atoms_ProtBoundConf>  (932) 
nan

>  <Num_Resolved_Atoms>  (932) 
nan

>  <Num_Not_Resolved_Atoms>  (932) 
nan

$$$$
CHEMBL4445830
     RDKit          3D

  0  0  0  0  0  0  0  0  0  0999 V3000
M  V30 BEGIN CTAB
M  V30 COUNTS 39 42 0 0 0
M  V30 BEGIN ATOM
M  V30 1 C 0.555925 -5.249248 -0.305716 0
M  V30 2 N 0.986564 -4.001615 0.289466 0
M  V30 3 C 1.892844 -3.927587 1.406743 0
M  V30 4 C 2.062877 -2.486740 1.695570 0
M  V30 5 N 2.792618 -1.851735 2.628365 0
M  V30 6 C 2.793497 -0.505852 2.702578 0
M  V30 7 C 2.029903 0.216508 1.801974 0
M  V30 8 C 1.254188 -0.398029 0.813773 0
M  V30 9 C 0.508740 0.468926 -0.057183 0
M  V30 10 C 0.790894 0.478646 -1.420876 0
M  V30 11 N -0.052514 1.375175 -1.978075 0
M  V30 12 C -0.105476 1.709111 -3.404244 0
M  V30 13 N -0.811255 1.891071 -1.024791 0
M  V30 14 C -0.506035 1.365597 0.183250 0
M  V30 15 C -1.061459 1.617589 1.503432 0
M  V30 16 C -1.655253 0.486146 2.017017 0
M  V30 17 C -2.258332 0.491578 3.279477 0
M  V30 18 C -2.236328 1.684074 3.998564 0
M  V30 19 F -2.805120 1.775902 5.244373 0
M  V30 20 C -1.644297 2.815129 3.488279 0
M  V30 21 C -1.054810 2.790640 2.241960 0
M  V30 22 C 1.295568 -1.776730 0.789580 0
M  V30 23 C 0.597430 -2.679004 -0.118032 0
M  V30 24 O -0.178439 -2.354924 -1.055316 0
M  V30 25 H 0.271744 -5.973865 0.497402 0
M  V30 26 H -0.356104 -5.071187 -0.924361 0
M  V30 27 H 1.314694 -5.693473 -0.979564 0
M  V30 28 H 2.867754 -4.409265 1.138590 0
M  V30 29 H 1.438679 -4.469170 2.248715 0
M  V30 30 H 3.384067 -0.003838 3.457672 0
M  V30 31 H 2.056793 1.297804 1.893329 0
M  V30 32 H 1.526608 -0.094085 -1.984398 0
M  V30 33 H 0.470527 0.954828 -3.967888 0
M  V30 34 H -1.156443 1.613593 -3.770931 0
M  V30 35 H 0.200915 2.739319 -3.601518 0
M  V30 36 H -1.731409 -0.485080 1.552458 0
M  V30 37 H -2.743641 -0.351680 3.751841 0
M  V30 38 H -1.594325 3.774704 3.999919 0
M  V30 39 H -0.554625 3.595965 1.714681 0
M  V30 END ATOM
M  V30 BEGIN BOND
M  V30 1 1 1 2
M  V30 2 1 2 3
M  V30 3 1 3 4
M  V30 4 2 4 5
M  V30 5 1 5 6
M  V30 6 2 6 7
M  V30 7 1 7 8
M  V30 8 1 8 9
M  V30 9 2 9 10
M  V30 10 1 10 11
M  V30 11 1 11 12
M  V30 12 1 11 13
M  V30 13 2 13 14
M  V30 14 1 14 15
M  V30 15 2 15 16
M  V30 16 1 16 17
M  V30 17 2 17 18
M  V30 18 1 18 19
M  V30 19 1 18 20
M  V30 20 2 20 21
M  V30 21 2 8 22
M  V30 22 1 22 23
M  V30 23 2 23 24
M  V30 24 1 23 2
M  V30 25 1 22 4
M  V30 26 1 14 9
M  V30 27 1 21 15
M  V30 28 1 1 25
M  V30 29 1 1 26
M  V30 30 1 1 27
M  V30 31 1 3 28
M  V30 32 1 3 29
M  V30 33 1 6 30
M  V30 34 1 7 31
M  V30 35 1 10 32
M  V30 36 1 12 33
M  V30 37 1 12 34
M  V30 38 1 12 35
M  V30 39 1 16 36
M  V30 40 1 17 37
M  V30 41 1 20 38
M  V30 42 1 21 39
M  V30 END BOND
M  V30 END CTAB
M  END
>  <Dataset>  (933) 
ChEMBL_Kinases

>  <Ligand_Instance>  (933) 
nan

>  <PDB_ID>  (933) 
nan

>  <Standardized_SMILES>  (933) 
CN1Cc2nccc(-c3cn(C)nc3-c3ccc(F)cc3)c2C1=O

>  <Name>  (933) 
nan

>  <Pocket>  (933) 
nan

>  <ATP_Site>  (933) 
nan

>  <Peripheral>  (933) 
nan

>  <Num_H_Atoms_ProtBoundConf>  (933) 
nan

>  <Num_Resolved_Atoms>  (933) 
nan

>  <Num_Not_Resolved_Atoms>  (933) 
nan

$$$$
CHEMBL4445719
     RDKit          3D

  0  0  0  0  0  0  0  0  0  0999 V3000
M  V30 BEGIN CTAB
M  V30 COUNTS 41 44 0 0 0
M  V30 BEGIN ATOM
M  V30 1 C 1.768094 -4.802262 2.830171 0
M  V30 2 C 0.644641 -4.583875 1.856544 0 CFG=1
M  V30 3 O -0.543353 -4.699993 2.615321 0
M  V30 4 C 0.698271 -3.286594 1.180737 0
M  V30 5 C 0.761277 -2.212456 0.631992 0
M  V30 6 C 0.817798 -0.926970 -0.016536 0
M  V30 7 C 0.718345 -0.898768 -1.402097 0
M  V30 8 C 0.767398 0.315314 -2.073659 0
M  V30 9 C 0.916169 1.446717 -1.295947 0
M  V30 10 F 0.960081 2.617901 -1.990219 0
M  V30 11 C 1.015645 1.424684 0.083127 0
M  V30 12 C 1.170650 2.710652 0.775203 0
M  V30 13 C 2.224260 3.507752 1.175915 0
M  V30 14 N 1.741298 4.602374 1.783163 0
M  V30 15 C 0.399845 4.552531 1.795760 0
M  V30 16 C -0.483594 5.475098 2.321622 0
M  V30 17 N -1.801583 5.164176 2.192094 0
M  V30 18 C -2.211470 4.041019 1.595745 0
M  V30 19 N -3.599797 3.813857 1.513665 0
M  V30 20 N -1.315467 3.167417 1.096038 0
M  V30 21 C 0.013698 3.376574 1.170106 0
M  V30 22 C 0.965054 0.207691 0.736952 0
M  V30 23 C 0.575597 -5.628104 0.832893 0
M  V30 24 N -0.019485 -6.731839 0.746980 0
M  V30 25 C 0.126550 -7.474188 -0.350524 0
M  V30 26 C 0.978948 -6.999330 -1.448641 0
M  V30 27 S 1.522265 -5.406711 -0.724474 0
M  V30 28 H 2.699761 -4.286578 2.475269 0
M  V30 29 H 1.953610 -5.882452 2.966304 0
M  V30 30 H 1.553266 -4.384667 3.838633 0
M  V30 31 H -1.170990 -3.986990 2.415354 0
M  V30 32 H 0.601918 -1.841570 -1.947435 0
M  V30 33 H 0.689246 0.319085 -3.142158 0
M  V30 34 H 3.219558 3.144947 0.949995 0
M  V30 35 H 2.377423 5.346988 2.167763 0
M  V30 36 H -0.137470 6.385165 2.804415 0
M  V30 37 H -4.428678 3.991631 0.933579 0
M  V30 38 H -4.161091 3.298690 2.197840 0
M  V30 39 H 1.044470 0.217775 1.807434 0
M  V30 40 H -0.463662 -8.404790 -0.254569 0
M  V30 41 H 0.964340 -7.785949 -2.289274 0
M  V30 END ATOM
M  V30 BEGIN BOND
M  V30 1 1 1 2
M  V30 2 1 2 3
M  V30 3 1 2 4 CFG=3
M  V30 4 3 4 5
M  V30 5 1 5 6
M  V30 6 2 6 7
M  V30 7 1 7 8
M  V30 8 2 8 9
M  V30 9 1 9 10
M  V30 10 1 9 11
M  V30 11 1 11 12
M  V30 12 2 12 13
M  V30 13 1 13 14
M  V30 14 1 14 15
M  V30 15 2 15 16
M  V30 16 1 16 17
M  V30 17 2 17 18
M  V30 18 1 18 19
M  V30 19 1 18 20
M  V30 20 2 20 21
M  V30 21 2 11 22
M  V30 22 1 2 23
M  V30 23 2 23 24
M  V30 24 1 24 25
M  V30 25 2 25 26
M  V30 26 1 26 27
M  V30 27 1 22 6
M  V30 28 1 27 23
M  V30 29 1 21 12
M  V30 30 1 21 15
M  V30 31 1 1 28
M  V30 32 1 1 29
M  V30 33 1 1 30
M  V30 34 1 3 31
M  V30 35 1 7 32
M  V30 36 1 8 33
M  V30 37 1 13 34
M  V30 38 1 14 35
M  V30 39 1 16 36
M  V30 40 1 19 37
M  V30 41 1 19 38
M  V30 42 1 22 39
M  V30 43 1 25 40
M  V30 44 1 26 41
M  V30 END BOND
M  V30 END CTAB
M  END
>  <Dataset>  (934) 
ChEMBL_Kinases

>  <Ligand_Instance>  (934) 
nan

>  <PDB_ID>  (934) 
nan

>  <Standardized_SMILES>  (934) 
C[C@@](O)(C#Cc1ccc(F)c(-c2c[nH]c3cnc(N)nc23)c1)c1nccs1

>  <Name>  (934) 
nan

>  <Pocket>  (934) 
nan

>  <ATP_Site>  (934) 
nan

>  <Peripheral>  (934) 
nan

>  <Num_H_Atoms_ProtBoundConf>  (934) 
nan

>  <Num_Resolved_Atoms>  (934) 
nan

>  <Num_Not_Resolved_Atoms>  (934) 
nan

$$$$
CHEMBL4445702
     RDKit          3D

  0  0  0  0  0  0  0  0  0  0999 V3000
M  V30 BEGIN CTAB
M  V30 COUNTS 48 51 0 0 0
M  V30 BEGIN ATOM
M  V30 1 C 3.631789 -2.034648 3.558988 0
M  V30 2 N 4.741628 -2.385433 2.662664 0
M  V30 3 N 5.850026 -3.049286 3.028057 0
M  V30 4 C 6.646551 -3.195818 1.961656 0
M  V30 5 C 6.053592 -2.615265 0.859876 0
M  V30 6 C 4.863308 -2.122306 1.351803 0
M  V30 7 C 3.791364 -1.391235 0.640462 0
M  V30 8 C 3.741314 -1.027904 -0.716575 0
M  V30 9 C 2.633505 -0.357442 -1.109631 0
M  V30 10 C 1.669951 -0.082462 -0.212215 0
M  V30 11 C 0.385848 0.648586 -0.482368 0
M  V30 12 O -0.080077 1.145197 -1.510778 0
M  V30 13 N -0.465228 0.812144 0.629318 0
M  V30 14 C -1.728968 1.478341 0.577630 0 CFG=2
M  V30 15 C -1.896368 2.547904 1.614326 0
M  V30 16 N -2.826956 2.234265 2.661317 0
M  V30 17 C -4.148537 1.917008 2.178730 0
M  V30 18 C -4.118445 1.114380 0.898455 0
M  V30 19 C -2.772372 0.412258 0.864798 0 CFG=1
M  V30 20 C -2.741708 -0.705952 -0.095055 0
M  V30 21 C -2.540340 -1.991563 0.368904 0
M  V30 22 C -2.500905 -3.090127 -0.486169 0
M  V30 23 C -2.672597 -2.848463 -1.836284 0
M  V30 24 C -2.872559 -1.581358 -2.307652 0
M  V30 25 F -3.042214 -1.351881 -3.652147 0
M  V30 26 C -2.914428 -0.471070 -1.462444 0
M  V30 27 S 2.220061 -0.739916 1.287986 0
M  V30 28 H 3.803441 -2.509252 4.531844 0
M  V30 29 H 3.561879 -0.940000 3.664622 0
M  V30 30 H 2.661846 -2.414774 3.159152 0
M  V30 31 H 7.629850 -3.677692 1.855346 0
M  V30 32 H 6.292147 -2.480516 -0.177757 0
M  V30 33 H 4.590919 -1.315437 -1.326595 0
M  V30 34 H 2.529278 -0.041895 -2.161873 0
M  V30 35 H -0.296255 0.479333 1.616385 0
M  V30 36 H -1.977884 1.862090 -0.448342 0
M  V30 37 H -0.895506 2.622862 2.132488 0
M  V30 38 H -2.062654 3.537489 1.158282 0
M  V30 39 H -2.458048 1.613662 3.388427 0
M  V30 40 H -4.754533 2.844919 2.105160 0
M  V30 41 H -4.632910 1.285275 2.956065 0
M  V30 42 H -4.874009 0.312262 0.868290 0
M  V30 43 H -4.200678 1.840335 0.061885 0
M  V30 44 H -2.612812 -0.030772 1.876044 0
M  V30 45 H -2.404029 -2.191795 1.431474 0
M  V30 46 H -2.343162 -4.100236 -0.126070 0
M  V30 47 H -2.648947 -3.667646 -2.528242 0
M  V30 48 H -3.071144 0.536623 -1.815509 0
M  V30 END ATOM
M  V30 BEGIN BOND
M  V30 1 1 1 2
M  V30 2 1 2 3
M  V30 3 2 3 4
M  V30 4 1 4 5
M  V30 5 2 5 6
M  V30 6 1 6 7
M  V30 7 2 7 8
M  V30 8 1 8 9
M  V30 9 2 9 10
M  V30 10 1 10 11
M  V30 11 2 11 12
M  V30 12 1 11 13
M  V30 13 1 13 14
M  V30 14 1 14 15
M  V30 15 1 15 16
M  V30 16 1 16 17
M  V30 17 1 17 18
M  V30 18 1 18 19
M  V30 19 1 19 20
M  V30 20 2 20 21
M  V30 21 1 21 22
M  V30 22 2 22 23
M  V30 23 1 23 24
M  V30 24 1 24 25
M  V30 25 2 24 26
M  V30 26 1 10 27
M  V30 27 1 6 2
M  V30 28 1 27 7
M  V30 29 1 19 14
M  V30 30 1 26 20
M  V30 31 1 1 28
M  V30 32 1 1 29
M  V30 33 1 1 30
M  V30 34 1 4 31
M  V30 35 1 5 32
M  V30 36 1 8 33
M  V30 37 1 9 34
M  V30 38 1 13 35
M  V30 39 1 14 36 CFG=3
M  V30 40 1 15 37
M  V30 41 1 15 38
M  V30 42 1 16 39
M  V30 43 1 17 40
M  V30 44 1 17 41
M  V30 45 1 18 42
M  V30 46 1 18 43
M  V30 47 1 19 44 CFG=1
M  V30 48 1 21 45
M  V30 49 1 22 46
M  V30 50 1 23 47
M  V30 51 1 26 48
M  V30 END BOND
M  V30 END CTAB
M  END
>  <Dataset>  (935) 
ChEMBL_Kinases

>  <Ligand_Instance>  (935) 
nan

>  <PDB_ID>  (935) 
nan

>  <Standardized_SMILES>  (935) 
Cn1nccc1-c1ccc(C(=O)N[C@@H]2CNCC[C@H]2c2cccc(F)c2)s1

>  <Name>  (935) 
nan

>  <Pocket>  (935) 
nan

>  <ATP_Site>  (935) 
nan

>  <Peripheral>  (935) 
nan

>  <Num_H_Atoms_ProtBoundConf>  (935) 
nan

>  <Num_Resolved_Atoms>  (935) 
nan

>  <Num_Not_Resolved_Atoms>  (935) 
nan

$$$$
CHEMBL4445690
     RDKit          3D

  0  0  0  0  0  0  0  0  0  0999 V3000
M  V30 BEGIN CTAB
M  V30 COUNTS 51 54 0 0 0
M  V30 BEGIN ATOM
M  V30 1 C 4.443684 -3.476344 -2.910335 0
M  V30 2 N 5.373461 -3.079253 -1.847094 0
M  V30 3 N 6.637089 -3.509915 -1.797320 0
M  V30 4 C 7.247416 -2.983943 -0.717922 0
M  V30 5 C 6.282199 -2.199118 -0.100469 0
M  V30 6 Br 6.491541 -1.167713 1.493381 0
M  V30 7 C 5.098013 -2.255402 -0.808342 0
M  V30 8 C 3.854335 -1.587126 -0.505941 0
M  V30 9 C 3.365653 -1.584605 0.790509 0
M  V30 10 C 2.183675 -0.965789 1.151680 0
M  V30 11 C 1.450126 -0.316823 0.176177 0
M  V30 12 C 0.183452 0.394707 0.344313 0
M  V30 13 O -0.475204 0.987056 -0.576209 0
M  V30 14 N -0.428091 0.473386 1.626008 0
M  V30 15 C -1.669448 1.170556 1.791370 0 CFG=2
M  V30 16 C -1.456285 2.325223 2.745870 0
M  V30 17 N -1.739891 1.831810 4.081190 0
M  V30 18 C -3.182986 1.809975 4.233847 0
M  V30 19 C -3.821924 1.139520 3.048282 0
M  V30 20 C -2.765063 0.298518 2.361663 0 CFG=1
M  V30 21 C -3.489000 -0.404267 1.244050 0
M  V30 22 C -4.073980 0.264170 0.174257 0
M  V30 23 C -4.725695 -0.423815 -0.824405 0
M  V30 24 C -4.818996 -1.800323 -0.795055 0
M  V30 25 F -5.460408 -2.509171 -1.773658 0
M  V30 26 C -4.245950 -2.482303 0.256577 0
M  V30 27 F -4.285596 -3.840617 0.373330 0
M  V30 28 C -3.599987 -1.781520 1.243881 0
M  V30 29 C 1.923076 -0.307265 -1.132868 0
M  V30 30 C 3.110734 -0.934440 -1.471382 0
M  V30 31 H 4.489113 -4.588778 -3.073000 0
M  V30 32 H 4.710939 -3.026727 -3.873372 0
M  V30 33 H 3.389150 -3.310646 -2.591289 0
M  V30 34 H 8.281427 -3.121550 -0.368350 0
M  V30 35 H 3.898232 -2.071412 1.569563 0
M  V30 36 H 1.758423 -0.929918 2.127379 0
M  V30 37 H -0.017129 0.041620 2.482215 0
M  V30 38 H -2.059583 1.608166 0.852159 0
M  V30 39 H -2.136085 3.169454 2.486985 0
M  V30 40 H -0.386954 2.636770 2.645080 0
M  V30 41 H -1.350850 0.870963 4.196012 0
M  V30 42 H -3.512314 1.402279 5.208287 0
M  V30 43 H -3.502313 2.882829 4.183526 0
M  V30 44 H -4.287680 1.842841 2.332001 0
M  V30 45 H -4.575350 0.414032 3.443366 0
M  V30 46 H -2.402252 -0.469077 3.073390 0
M  V30 47 H -3.986620 1.355120 0.173466 0
M  V30 48 H -5.177974 0.098487 -1.652264 0
M  V30 49 H -3.137299 -2.293505 2.087782 0
M  V30 50 H 1.391028 0.189685 -1.959336 0
M  V30 51 H 3.455842 -0.912509 -2.494323 0
M  V30 END ATOM
M  V30 BEGIN BOND
M  V30 1 1 1 2
M  V30 2 1 2 3
M  V30 3 2 3 4
M  V30 4 1 4 5
M  V30 5 1 5 6
M  V30 6 2 5 7
M  V30 7 1 7 8
M  V30 8 2 8 9
M  V30 9 1 9 10
M  V30 10 2 10 11
M  V30 11 1 11 12
M  V30 12 2 12 13
M  V30 13 1 12 14
M  V30 14 1 14 15
M  V30 15 1 15 16
M  V30 16 1 16 17
M  V30 17 1 17 18
M  V30 18 1 18 19
M  V30 19 1 19 20
M  V30 20 1 20 21
M  V30 21 2 21 22
M  V30 22 1 22 23
M  V30 23 2 23 24
M  V30 24 1 24 25
M  V30 25 1 24 26
M  V30 26 1 26 27
M  V30 27 2 26 28
M  V30 28 1 11 29
M  V30 29 2 29 30
M  V30 30 1 7 2
M  V30 31 1 30 8
M  V30 32 1 20 15
M  V30 33 1 28 21
M  V30 34 1 1 31
M  V30 35 1 1 32
M  V30 36 1 1 33
M  V30 37 1 4 34
M  V30 38 1 9 35
M  V30 39 1 10 36
M  V30 40 1 14 37
M  V30 41 1 15 38 CFG=3
M  V30 42 1 16 39
M  V30 43 1 16 40
M  V30 44 1 17 41
M  V30 45 1 18 42
M  V30 46 1 18 43
M  V30 47 1 19 44
M  V30 48 1 19 45
M  V30 49 1 20 46 CFG=1
M  V30 50 1 22 47
M  V30 51 1 23 48
M  V30 52 1 28 49
M  V30 53 1 29 50
M  V30 54 1 30 51
M  V30 END BOND
M  V30 END CTAB
M  END
>  <Dataset>  (936) 
ChEMBL_Kinases

>  <Ligand_Instance>  (936) 
nan

>  <PDB_ID>  (936) 
nan

>  <Standardized_SMILES>  (936) 
Cn1ncc(Br)c1-c1ccc(C(=O)N[C@@H]2CNCC[C@H]2c2ccc(F)c(F)c2)cc1

>  <Name>  (936) 
nan

>  <Pocket>  (936) 
nan

>  <ATP_Site>  (936) 
nan

>  <Peripheral>  (936) 
nan

>  <Num_H_Atoms_ProtBoundConf>  (936) 
nan

>  <Num_Resolved_Atoms>  (936) 
nan

>  <Num_Not_Resolved_Atoms>  (936) 
nan

$$$$
CHEMBL4445670
     RDKit          3D

  0  0  0  0  0  0  0  0  0  0999 V3000
M  V30 BEGIN CTAB
M  V30 COUNTS 65 69 0 0 0
M  V30 BEGIN ATOM
M  V30 1 C 0.656574 1.445778 6.450574 0
M  V30 2 N 1.705006 1.448287 5.447655 0
M  V30 3 C 1.426658 0.413874 4.470380 0
M  V30 4 C 0.159220 0.894920 3.750736 0
M  V30 5 N 0.591692 1.995880 2.921518 0
M  V30 6 C 0.673518 1.988275 1.507043 0
M  V30 7 C 0.334505 0.890287 0.752954 0
M  V30 8 N 0.389529 0.820577 -0.583099 0
M  V30 9 C 0.794257 1.854641 -1.310382 0
M  V30 10 C 0.840325 1.734754 -2.686485 0
M  V30 11 C 0.453908 0.532965 -3.455599 0
M  V30 12 C 1.462976 -0.554283 -3.512685 0
M  V30 13 C 0.907381 -1.933715 -3.729181 0
M  V30 14 N -0.401794 -2.129809 -3.141339 0
M  V30 15 C -0.547566 -3.107602 -2.162583 0
M  V30 16 O 0.637757 -3.524288 -2.129747 0
M  V30 17 C -1.500880 -3.734760 -1.270068 0
M  V30 18 C -2.832655 -3.400982 -1.155153 0
M  V30 19 C -3.717336 -4.014835 -0.294401 0
M  V30 20 C -3.173385 -5.017621 0.472163 0
M  V30 21 O -3.968453 -5.693439 1.362210 0
M  V30 22 C -4.151022 -5.289531 2.708913 0
M  V30 23 F -4.694820 -4.023144 2.764184 0
M  V30 24 F -5.003880 -6.141801 3.375297 0
M  V30 25 F -2.957302 -5.248663 3.403172 0
M  V30 26 C -1.853463 -5.389597 0.397012 0
M  V30 27 C -0.983471 -4.743862 -0.489017 0
M  V30 28 N 0.363174 -5.199972 -0.494190 0
M  V30 29 C -1.330432 -1.194843 -3.748186 0
M  V30 30 C -0.943464 0.153446 -3.174888 0
M  V30 31 N 1.283237 2.877343 -3.294601 0
M  V30 32 C 1.630472 3.983241 -2.623212 0
M  V30 33 N 1.575424 4.072331 -1.283911 0
M  V30 34 C 1.144758 2.976032 -0.606673 0
M  V30 35 C 1.090976 3.056796 0.771105 0
M  V30 36 C 0.916754 3.077866 3.789469 0
M  V30 37 C 1.936145 2.718122 4.841251 0
M  V30 38 H -0.063504 2.258906 6.236538 0
M  V30 39 H 0.184601 0.438822 6.524150 0
M  V30 40 H 1.139179 1.593280 7.459262 0
M  V30 41 H 1.269196 -0.542053 4.984837 0
M  V30 42 H 2.218194 0.389931 3.694859 0
M  V30 43 H -0.618696 1.176958 4.491857 0
M  V30 44 H -0.221445 0.025246 3.220794 0
M  V30 45 H -0.014994 -0.031907 1.214972 0
M  V30 46 H 0.410256 0.929697 -4.532240 0
M  V30 47 H 2.035914 -0.574631 -2.559780 0
M  V30 48 H 2.224567 -0.374043 -4.300439 0
M  V30 49 H 0.752437 -2.105427 -4.840651 0
M  V30 50 H 1.623118 -2.730680 -3.465088 0
M  V30 51 H -3.236259 -2.614608 -1.761866 0
M  V30 52 H -4.750362 -3.739122 -0.221104 0
M  V30 53 H -1.472765 -6.196908 1.032636 0
M  V30 54 H 0.832147 -5.823217 -1.183173 0
M  V30 55 H 1.098027 -4.980280 0.196259 0
M  V30 56 H -1.193262 -1.187370 -4.869629 0
M  V30 57 H -2.377777 -1.367779 -3.548063 0
M  V30 58 H -1.698030 0.868592 -3.612140 0
M  V30 59 H -1.195198 0.108240 -2.105138 0
M  V30 60 H 1.958108 4.790465 -3.281199 0
M  V30 61 H 1.386051 3.978750 1.232857 0
M  V30 62 H -0.012088 3.357399 4.369996 0
M  V30 63 H 1.176835 3.983962 3.233165 0
M  V30 64 H 2.924672 2.665301 4.340227 0
M  V30 65 H 2.025696 3.502002 5.612656 0
M  V30 END ATOM
M  V30 BEGIN BOND
M  V30 1 1 1 2
M  V30 2 1 2 3
M  V30 3 1 3 4
M  V30 4 1 4 5
M  V30 5 1 5 6
M  V30 6 2 6 7
M  V30 7 1 7 8
M  V30 8 2 8 9
M  V30 9 1 9 10
M  V30 10 1 10 11
M  V30 11 1 11 12
M  V30 12 1 12 13
M  V30 13 1 13 14
M  V30 14 1 14 15
M  V30 15 2 15 16
M  V30 16 1 15 17
M  V30 17 2 17 18
M  V30 18 1 18 19
M  V30 19 2 19 20
M  V30 20 1 20 21
M  V30 21 1 21 22
M  V30 22 1 22 23
M  V30 23 1 22 24
M  V30 24 1 22 25
M  V30 25 1 20 26
M  V30 26 2 26 27
M  V30 27 1 27 28
M  V30 28 1 14 29
M  V30 29 1 29 30
M  V30 30 2 10 31
M  V30 31 1 31 32
M  V30 32 2 32 33
M  V30 33 1 33 34
M  V30 34 2 34 35
M  V30 35 1 5 36
M  V30 36 1 36 37
M  V30 37 1 37 2
M  V30 38 1 35 6
M  V30 39 1 34 9
M  V30 40 1 30 11
M  V30 41 1 27 17
M  V30 42 1 1 38
M  V30 43 1 1 39
M  V30 44 1 1 40
M  V30 45 1 3 41
M  V30 46 1 3 42
M  V30 47 1 4 43
M  V30 48 1 4 44
M  V30 49 1 7 45
M  V30 50 1 11 46
M  V30 51 1 12 47
M  V30 52 1 12 48
M  V30 53 1 13 49
M  V30 54 1 13 50
M  V30 55 1 18 51
M  V30 56 1 19 52
M  V30 57 1 26 53
M  V30 58 1 28 54
M  V30 59 1 28 55
M  V30 60 1 29 56
M  V30 61 1 29 57
M  V30 62 1 30 58
M  V30 63 1 30 59
M  V30 64 1 32 60
M  V30 65 1 35 61
M  V30 66 1 36 62
M  V30 67 1 36 63
M  V30 68 1 37 64
M  V30 69 1 37 65
M  V30 END BOND
M  V30 END CTAB
M  END
>  <Dataset>  (937) 
ChEMBL_Kinases

>  <Ligand_Instance>  (937) 
nan

>  <PDB_ID>  (937) 
nan

>  <Standardized_SMILES>  (937) 
CN1CCN(c2cnc3c(C4CCN(C(=O)c5ccc(OC(F)(F)F)cc5N)CC4)ncnc3c2)CC1

>  <Name>  (937) 
BAY-885

>  <Pocket>  (937) 
nan

>  <ATP_Site>  (937) 
nan

>  <Peripheral>  (937) 
nan

>  <Num_H_Atoms_ProtBoundConf>  (937) 
nan

>  <Num_Resolved_Atoms>  (937) 
nan

>  <Num_Not_Resolved_Atoms>  (937) 
nan

$$$$
CHEMBL4750258
     RDKit          3D

  0  0  0  0  0  0  0  0  0  0999 V3000
M  V30 BEGIN CTAB
M  V30 COUNTS 31 33 0 0 0
M  V30 BEGIN ATOM
M  V30 1 C -1.335544 -6.225587 2.450971 0
M  V30 2 O -0.139637 -5.650364 1.957726 0
M  V30 3 C -0.029814 -4.329555 1.543150 0
M  V30 4 C -0.991967 -3.340099 1.517034 0
M  V30 5 N -0.654370 -2.116222 1.068649 0
M  V30 6 C 0.609371 -1.857464 0.649101 0
M  V30 7 C 1.104921 -0.663228 0.166322 0
M  V30 8 C 0.451699 0.626785 -0.031504 0
M  V30 9 C -0.798841 0.710064 -0.618148 0
M  V30 10 C -1.428473 1.940010 -0.809990 0
M  V30 11 N -0.827537 3.076866 -0.425530 0
M  V30 12 C 0.398416 3.027782 0.152416 0
M  V30 13 O 1.137311 4.105693 0.597257 0
M  V30 14 C 0.582238 5.395756 0.446057 0
M  V30 15 C 1.035626 1.808485 0.348787 0
M  V30 16 C 2.437861 -0.935784 -0.117332 0
M  V30 17 N 2.694017 -2.238965 0.192439 0
M  V30 18 N 1.576065 -2.798870 0.659988 0
M  V30 19 C 1.265505 -4.045817 1.107728 0
M  V30 20 H -1.903167 -6.754006 1.637856 0
M  V30 21 H -1.930621 -5.419163 2.926302 0
M  V30 22 H -1.136298 -6.986755 3.233532 0
M  V30 23 H -1.954690 -3.670088 1.875343 0
M  V30 24 H -1.281343 -0.197694 -0.926416 0
M  V30 25 H -2.418708 1.973450 -1.277350 0
M  V30 26 H -0.369698 5.533448 1.008709 0
M  V30 27 H 0.445553 5.651682 -0.640753 0
M  V30 28 H 1.349884 6.112039 0.854527 0
M  V30 29 H 2.020287 1.696710 0.806700 0
M  V30 30 H 3.144501 -0.216695 -0.519215 0
M  V30 31 H 2.102089 -4.736728 1.081109 0
M  V30 END ATOM
M  V30 BEGIN BOND
M  V30 1 1 1 2
M  V30 2 1 2 3
M  V30 3 1 3 4
M  V30 4 2 4 5
M  V30 5 1 5 6
M  V30 6 2 6 7
M  V30 7 1 7 8
M  V30 8 2 8 9
M  V30 9 1 9 10
M  V30 10 2 10 11
M  V30 11 1 11 12
M  V30 12 1 12 13
M  V30 13 1 13 14
M  V30 14 2 12 15
M  V30 15 1 7 16
M  V30 16 2 16 17
M  V30 17 1 17 18
M  V30 18 1 18 19
M  V30 19 2 19 3
M  V30 20 1 18 6
M  V30 21 1 15 8
M  V30 22 1 1 20
M  V30 23 1 1 21
M  V30 24 1 1 22
M  V30 25 1 4 23
M  V30 26 1 9 24
M  V30 27 1 10 25
M  V30 28 1 14 26
M  V30 29 1 14 27
M  V30 30 1 14 28
M  V30 31 1 15 29
M  V30 32 1 16 30
M  V30 33 1 19 31
M  V30 END BOND
M  V30 END CTAB
M  END
>  <Dataset>  (938) 
ChEMBL_Kinases

>  <Ligand_Instance>  (938) 
nan

>  <PDB_ID>  (938) 
nan

>  <Standardized_SMILES>  (938) 
COc1cnc2c(-c3ccnc(OC)c3)cnn2c1

>  <Name>  (938) 
nan

>  <Pocket>  (938) 
nan

>  <ATP_Site>  (938) 
nan

>  <Peripheral>  (938) 
nan

>  <Num_H_Atoms_ProtBoundConf>  (938) 
nan

>  <Num_Resolved_Atoms>  (938) 
nan

>  <Num_Not_Resolved_Atoms>  (938) 
nan

$$$$
CHEMBL4445510
     RDKit          3D

  0  0  0  0  0  0  0  0  0  0999 V3000
M  V30 BEGIN CTAB
M  V30 COUNTS 48 51 0 0 0
M  V30 BEGIN ATOM
M  V30 1 C 5.303300 -4.533543 -1.595108 0
M  V30 2 N 5.092608 -3.949613 -0.289451 0
M  V30 3 N 5.865943 -4.252491 0.759032 0
M  V30 4 C 5.438399 -3.564982 1.828392 0
M  V30 5 C 4.367686 -2.838168 1.351688 0
M  V30 6 Cl 3.680541 -1.861595 2.663308 0
M  V30 7 C 4.145466 -3.077243 0.016422 0
M  V30 8 C 3.070693 -2.405327 -0.645539 0
M  V30 9 C 2.212546 -1.511957 -0.044382 0
M  V30 10 C 1.265835 -1.011161 -0.914438 0
M  V30 11 C 0.177843 -0.061716 -0.731836 0
M  V30 12 O -0.578476 0.265982 -1.653683 0
M  V30 13 N -0.077223 0.540577 0.509263 0
M  V30 14 C -1.061900 1.480053 0.927438 0 CFG=2
M  V30 15 C -0.577105 2.800488 1.399920 0
M  V30 16 N -0.252157 2.898235 2.796940 0
M  V30 17 C -1.105958 2.156127 3.656404 0
M  V30 18 C -2.399577 1.851689 2.961027 0
M  V30 19 C -2.065840 0.845324 1.878110 0 CFG=1
M  V30 20 C -3.279795 0.343264 1.183887 0
M  V30 21 C -4.078451 1.160965 0.402540 0
M  V30 22 C -5.215991 0.728591 -0.258651 0
M  V30 23 C -5.560493 -0.592246 -0.122354 0
M  V30 24 Cl -6.977085 -1.298775 -0.898205 0
M  V30 25 C -4.820764 -1.475137 0.636839 0
M  V30 26 Cl -5.196547 -3.163364 0.855543 0
M  V30 27 C -3.698900 -0.978920 1.269178 0
M  V30 28 O 1.535337 -1.600094 -2.078507 0
M  V30 29 C 2.566628 -2.392988 -1.913057 0
M  V30 30 Cl 3.076347 -3.256415 -3.322413 0
M  V30 31 H 5.654729 -3.816733 -2.354707 0
M  V30 32 H 6.203340 -5.232563 -1.511413 0
M  V30 33 H 4.512406 -5.223250 -1.920223 0
M  V30 34 H 6.016715 -3.758830 2.715934 0
M  V30 35 H 2.105990 -1.106622 0.961362 0
M  V30 36 H 0.515112 0.325615 1.362858 0
M  V30 37 H -1.669950 1.682662 -0.004314 0
M  V30 38 H 0.236517 3.126137 0.750341 0
M  V30 39 H -1.393356 3.549670 1.231340 0
M  V30 40 H -0.169255 3.900720 3.040726 0
M  V30 41 H -1.361329 2.802138 4.545254 0
M  V30 42 H -0.600172 1.245723 4.038871 0
M  V30 43 H -3.077852 1.369116 3.691815 0
M  V30 44 H -2.779009 2.808013 2.553350 0
M  V30 45 H -1.631048 -0.030521 2.423418 0
M  V30 46 H -3.763904 2.195280 0.326657 0
M  V30 47 H -5.826534 1.379073 -0.863120 0
M  V30 48 H -3.081284 -1.628399 1.878271 0
M  V30 END ATOM
M  V30 BEGIN BOND
M  V30 1 1 1 2
M  V30 2 1 2 3
M  V30 3 2 3 4
M  V30 4 1 4 5
M  V30 5 1 5 6
M  V30 6 2 5 7
M  V30 7 1 7 8
M  V30 8 1 8 9
M  V30 9 2 9 10
M  V30 10 1 10 11
M  V30 11 2 11 12
M  V30 12 1 11 13
M  V30 13 1 13 14
M  V30 14 1 14 15
M  V30 15 1 15 16
M  V30 16 1 16 17
M  V30 17 1 17 18
M  V30 18 1 18 19
M  V30 19 1 19 20
M  V30 20 2 20 21
M  V30 21 1 21 22
M  V30 22 2 22 23
M  V30 23 1 23 24
M  V30 24 1 23 25
M  V30 25 1 25 26
M  V30 26 2 25 27
M  V30 27 1 10 28
M  V30 28 1 28 29
M  V30 29 1 29 30
M  V30 30 1 7 2
M  V30 31 2 29 8
M  V30 32 1 19 14
M  V30 33 1 27 20
M  V30 34 1 1 31
M  V30 35 1 1 32
M  V30 36 1 1 33
M  V30 37 1 4 34
M  V30 38 1 9 35
M  V30 39 1 13 36
M  V30 40 1 14 37 CFG=3
M  V30 41 1 15 38
M  V30 42 1 15 39
M  V30 43 1 16 40
M  V30 44 1 17 41
M  V30 45 1 17 42
M  V30 46 1 18 43
M  V30 47 1 18 44
M  V30 48 1 19 45 CFG=1
M  V30 49 1 21 46
M  V30 50 1 22 47
M  V30 51 1 27 48
M  V30 END BOND
M  V30 END CTAB
M  END
>  <Dataset>  (939) 
ChEMBL_Kinases

>  <Ligand_Instance>  (939) 
nan

>  <PDB_ID>  (939) 
nan

>  <Standardized_SMILES>  (939) 
Cn1ncc(Cl)c1-c1cc(C(=O)N[C@@H]2CNCC[C@H]2c2ccc(Cl)c(Cl)c2)oc1Cl

>  <Name>  (939) 
nan

>  <Pocket>  (939) 
nan

>  <ATP_Site>  (939) 
nan

>  <Peripheral>  (939) 
nan

>  <Num_H_Atoms_ProtBoundConf>  (939) 
nan

>  <Num_Resolved_Atoms>  (939) 
nan

>  <Num_Not_Resolved_Atoms>  (939) 
nan

$$$$
CHEMBL4445449
     RDKit          3D

  0  0  0  0  0  0  0  0  0  0999 V3000
M  V30 BEGIN CTAB
M  V30 COUNTS 36 38 0 0 0
M  V30 BEGIN ATOM
M  V30 1 C 0.699637 -1.237708 3.285089 0
M  V30 2 C 1.704312 -1.940198 2.490360 0
M  V30 3 N 2.600094 -2.878324 2.922028 0
M  V30 4 C 3.329275 -3.258213 1.869633 0
M  V30 5 C 4.375032 -4.259849 2.031049 0
M  V30 6 N 5.108890 -4.612745 0.865062 0
M  V30 7 O 4.596550 -4.765941 3.139553 0
M  V30 8 N 2.906795 -2.581509 0.809174 0
M  V30 9 C 1.900283 -1.751264 1.142974 0
M  V30 10 C 1.275462 -0.905216 0.140552 0
M  V30 11 C 1.721411 -0.956630 -1.166448 0
M  V30 12 C 1.154591 -0.164011 -2.167539 0
M  V30 13 N 0.142283 0.688201 -1.893128 0
M  V30 14 C -0.328485 0.769722 -0.613121 0
M  V30 15 N -1.394799 1.666553 -0.321156 0
M  V30 16 C -2.649538 1.014799 -0.482760 0
M  V30 17 O -3.457004 0.073390 -0.741228 0
M  V30 18 C -3.959742 1.687997 -0.250884 0
M  V30 19 C -4.083965 2.878255 0.601561 0
M  V30 20 C -4.090175 3.084362 -0.899337 0
M  V30 21 C 0.246667 -0.016818 0.337794 0
M  V30 22 H -0.350761 -1.509730 3.029534 0
M  V30 23 H 0.798396 -1.637420 4.343258 0
M  V30 24 H 0.868123 -0.149844 3.416323 0
M  V30 25 H 5.968668 -4.864310 0.349180 0
M  V30 26 H 4.661338 -4.713808 -0.084756 0
M  V30 27 H 3.394151 -2.779620 -0.098313 0
M  V30 28 H 2.521408 -1.596623 -1.505878 0
M  V30 29 H 1.514823 -0.215858 -3.185525 0
M  V30 30 H -1.491192 2.644697 -0.029306 0
M  V30 31 H -4.819634 1.011688 -0.429539 0
M  V30 32 H -3.201024 3.207470 1.180503 0
M  V30 33 H -5.056878 3.006238 1.127148 0
M  V30 34 H -3.175303 3.545770 -1.313356 0
M  V30 35 H -5.055382 3.297790 -1.409494 0
M  V30 36 H -0.160642 0.091836 1.305976 0
M  V30 END ATOM
M  V30 BEGIN BOND
M  V30 1 1 1 2
M  V30 2 1 2 3
M  V30 3 2 3 4
M  V30 4 1 4 5
M  V30 5 1 5 6
M  V30 6 2 5 7
M  V30 7 1 4 8
M  V30 8 1 8 9
M  V30 9 1 9 10
M  V30 10 2 10 11
M  V30 11 1 11 12
M  V30 12 2 12 13
M  V30 13 1 13 14
M  V30 14 1 14 15
M  V30 15 1 15 16
M  V30 16 2 16 17
M  V30 17 1 16 18
M  V30 18 1 18 19
M  V30 19 1 19 20
M  V30 20 2 14 21
M  V30 21 2 9 2
M  V30 22 1 21 10
M  V30 23 1 20 18
M  V30 24 1 1 22
M  V30 25 1 1 23
M  V30 26 1 1 24
M  V30 27 1 6 25
M  V30 28 1 6 26
M  V30 29 1 8 27
M  V30 30 1 11 28
M  V30 31 1 12 29
M  V30 32 1 15 30
M  V30 33 1 18 31
M  V30 34 1 19 32
M  V30 35 1 19 33
M  V30 36 1 20 34
M  V30 37 1 20 35
M  V30 38 1 21 36
M  V30 END BOND
M  V30 END CTAB
M  END
>  <Dataset>  (940) 
ChEMBL_Kinases

>  <Ligand_Instance>  (940) 
nan

>  <PDB_ID>  (940) 
nan

>  <Standardized_SMILES>  (940) 
Cc1nc(C(N)=O)[nH]c1-c1ccnc(NC(=O)C2CC2)c1

>  <Name>  (940) 
nan

>  <Pocket>  (940) 
nan

>  <ATP_Site>  (940) 
nan

>  <Peripheral>  (940) 
nan

>  <Num_H_Atoms_ProtBoundConf>  (940) 
nan

>  <Num_Resolved_Atoms>  (940) 
nan

>  <Num_Not_Resolved_Atoms>  (940) 
nan

$$$$
CHEMBL4750870
     RDKit          3D

  0  0  0  0  0  0  0  0  0  0999 V3000
M  V30 BEGIN CTAB
M  V30 COUNTS 37 41 0 0 0
M  V30 BEGIN ATOM
M  V30 1 N 2.212509 -4.150873 4.597714 0
M  V30 2 C 1.419506 -3.744796 3.849507 0
M  V30 3 C 0.436497 -3.266204 2.920221 0
M  V30 4 C 0.804241 -2.185547 2.148203 0
M  V30 5 C 2.084995 -1.485281 2.182237 0
M  V30 6 C 3.216544 -1.780842 1.419599 0
M  V30 7 C 4.344996 -1.005049 1.587210 0
M  V30 8 C 4.388990 0.046201 2.478956 0
M  V30 9 C 3.259242 0.344489 3.243156 0
M  V30 10 C 2.132955 -0.430496 3.075276 0
M  V30 11 Cl 0.771362 0.043843 4.095864 0
M  V30 12 C -0.136654 -1.712310 1.245319 0
M  V30 13 C -1.402391 -2.271501 1.093573 0
M  V30 14 N -2.034006 -1.562593 0.139774 0
M  V30 15 N -1.274643 -0.592680 -0.333056 0
M  V30 16 C -1.526398 0.331943 -1.283860 0
M  V30 17 C -2.737132 0.392357 -1.958092 0
M  V30 18 C -2.902976 1.374877 -2.916297 0
M  V30 19 C -1.914955 2.301398 -3.233339 0
M  V30 20 O -2.106117 3.278336 -4.199557 0
M  V30 21 C -0.743410 2.171154 -2.517133 0
M  V30 22 C -0.487854 1.232038 -1.551523 0
M  V30 23 N 0.681226 1.174107 -0.900834 0
M  V30 24 N 0.858625 0.239043 0.021137 0
M  V30 25 C -0.108906 -0.672986 0.335810 0
M  V30 26 N -1.687071 -3.323611 1.882790 0
M  V30 27 C -0.822100 -3.832583 2.778521 0
M  V30 28 O -1.120437 -4.821508 3.504577 0
M  V30 29 H 3.103233 -2.617976 0.744510 0
M  V30 30 H 5.215813 -1.262890 0.973952 0
M  V30 31 H 5.302805 0.632876 2.578662 0
M  V30 32 H 3.336593 1.176807 3.930159 0
M  V30 33 H -3.518743 -0.312701 -1.732079 0
M  V30 34 H -3.837694 1.467147 -3.477370 0
M  V30 35 H -3.006859 3.740876 -4.307574 0
M  V30 36 H 0.045492 2.882297 -2.744810 0
M  V30 37 H -2.649629 -3.753785 1.771764 0
M  V30 END ATOM
M  V30 BEGIN BOND
M  V30 1 3 1 2
M  V30 2 1 2 3
M  V30 3 2 3 4
M  V30 4 1 4 5
M  V30 5 2 5 6
M  V30 6 1 6 7
M  V30 7 2 7 8
M  V30 8 1 8 9
M  V30 9 2 9 10
M  V30 10 1 10 11
M  V30 11 1 4 12
M  V30 12 1 12 13
M  V30 13 2 13 14
M  V30 14 1 14 15
M  V30 15 1 15 16
M  V30 16 2 16 17
M  V30 17 1 17 18
M  V30 18 2 18 19
M  V30 19 1 19 20
M  V30 20 1 19 21
M  V30 21 2 21 22
M  V30 22 1 22 23
M  V30 23 2 23 24
M  V30 24 1 24 25
M  V30 25 1 13 26
M  V30 26 1 26 27
M  V30 27 2 27 28
M  V30 28 1 27 3
M  V30 29 1 10 5
M  V30 30 2 25 12
M  V30 31 1 25 15
M  V30 32 1 22 16
M  V30 33 1 6 29
M  V30 34 1 7 30
M  V30 35 1 8 31
M  V30 36 1 9 32
M  V30 37 1 17 33
M  V30 38 1 18 34
M  V30 39 1 20 35
M  V30 40 1 21 36
M  V30 41 1 26 37
M  V30 END BOND
M  V30 END CTAB
M  END
>  <Dataset>  (941) 
ChEMBL_Kinases

>  <Ligand_Instance>  (941) 
nan

>  <PDB_ID>  (941) 
nan

>  <Standardized_SMILES>  (941) 
N#Cc1c(-c2ccccc2Cl)c2c(nn3c4ccc(O)cc4nnc23)[nH]c1=O

>  <Name>  (941) 
nan

>  <Pocket>  (941) 
nan

>  <ATP_Site>  (941) 
nan

>  <Peripheral>  (941) 
nan

>  <Num_H_Atoms_ProtBoundConf>  (941) 
nan

>  <Num_Resolved_Atoms>  (941) 
nan

>  <Num_Not_Resolved_Atoms>  (941) 
nan

$$$$
CHEMBL4445334
     RDKit          3D

  0  0  0  0  0  0  0  0  0  0999 V3000
M  V30 BEGIN CTAB
M  V30 COUNTS 43 45 0 0 0
M  V30 BEGIN ATOM
M  V30 1 O 0.540663 -0.396497 0.228226 0
M  V30 2 C 0.639266 0.862805 0.074395 0
M  V30 3 N 0.993640 1.379365 -1.150980 0
M  V30 4 C 1.223942 0.407076 -2.162984 0
M  V30 5 C 2.513786 -0.077097 -2.319412 0
M  V30 6 C 2.716352 -1.021705 -3.307333 0
M  V30 7 C 1.643136 -1.430984 -4.078416 0
M  V30 8 C 0.348252 -0.942767 -3.919156 0
M  V30 9 Cl -0.967978 -1.507068 -4.926303 0
M  V30 10 C 0.129237 0.003577 -2.933802 0
M  V30 11 C 0.268228 0.732527 1.426383 0
M  V30 12 C 0.370632 2.233476 1.457538 0
M  V30 13 C 0.152599 3.166840 2.530724 0
M  V30 14 C 0.193250 4.656549 2.792634 0
M  V30 15 F 1.141187 4.912894 3.729319 0
M  V30 16 F 0.534653 5.200321 1.546122 0
M  V30 17 F -1.068340 5.062587 3.088238 0
M  V30 18 C -0.222142 2.647284 3.788345 0
M  V30 19 C -0.343413 1.277654 3.863957 0
M  V30 20 C -0.087560 0.607981 2.722879 0
M  V30 21 O -0.124153 -0.792056 2.460633 0
M  V30 22 C -0.443270 -1.771448 3.372226 0
M  V30 23 C -0.365016 -3.094812 2.701888 0
M  V30 24 C -1.403419 -3.727522 2.042780 0
M  V30 25 C -1.194540 -4.970636 1.459241 0
M  V30 26 C 0.027621 -5.619252 1.506589 0
M  V30 27 C 1.099288 -5.016121 2.159362 0
M  V30 28 C 0.826219 -3.770266 2.724624 0
M  V30 29 H 0.972634 2.391693 -0.907059 0
M  V30 30 H 3.328267 0.255346 -1.705920 0
M  V30 31 H 3.722338 -1.417861 -3.453753 0
M  V30 32 H 1.879090 -2.172246 -4.832832 0
M  V30 33 H -0.851765 0.419837 -2.756964 0
M  V30 34 H 0.609793 3.151680 0.812759 0
M  V30 35 H -0.461376 2.997418 4.775732 0
M  V30 36 H -0.592994 0.513615 4.587582 0
M  V30 37 H -1.496515 -1.681390 3.767320 0
M  V30 38 H 0.208280 -1.807506 4.269522 0
M  V30 39 H -2.357906 -3.207279 2.014322 0
M  V30 40 H -2.023466 -5.459859 0.941354 0
M  V30 41 H 0.155139 -6.587809 1.046948 0
M  V30 42 H 2.061720 -5.470751 2.224748 0
M  V30 43 H 1.679609 -3.316976 3.227317 0
M  V30 END ATOM
M  V30 BEGIN BOND
M  V30 1 2 1 2
M  V30 2 1 2 3
M  V30 3 1 3 4
M  V30 4 2 4 5
M  V30 5 1 5 6
M  V30 6 2 6 7
M  V30 7 1 7 8
M  V30 8 1 8 9
M  V30 9 2 8 10
M  V30 10 1 2 11
M  V30 11 2 11 12
M  V30 12 1 12 13
M  V30 13 1 13 14
M  V30 14 1 14 15
M  V30 15 1 14 16
M  V30 16 1 14 17
M  V30 17 2 13 18
M  V30 18 1 18 19
M  V30 19 2 19 20
M  V30 20 1 20 21
M  V30 21 1 21 22
M  V30 22 1 22 23
M  V30 23 2 23 24
M  V30 24 1 24 25
M  V30 25 2 25 26
M  V30 26 1 26 27
M  V30 27 2 27 28
M  V30 28 1 10 4
M  V30 29 1 20 11
M  V30 30 1 28 23
M  V30 31 1 3 29
M  V30 32 1 5 30
M  V30 33 1 6 31
M  V30 34 1 7 32
M  V30 35 1 10 33
M  V30 36 1 12 34
M  V30 37 1 18 35
M  V30 38 1 19 36
M  V30 39 1 22 37
M  V30 40 1 22 38
M  V30 41 1 24 39
M  V30 42 1 25 40
M  V30 43 1 26 41
M  V30 44 1 27 42
M  V30 45 1 28 43
M  V30 END BOND
M  V30 END CTAB
M  END
>  <Dataset>  (942) 
ChEMBL_Kinases

>  <Ligand_Instance>  (942) 
nan

>  <PDB_ID>  (942) 
nan

>  <Standardized_SMILES>  (942) 
O=C(Nc1cccc(Cl)c1)c1cc(C(F)(F)F)ccc1OCc1ccccc1

>  <Name>  (942) 
nan

>  <Pocket>  (942) 
nan

>  <ATP_Site>  (942) 
nan

>  <Peripheral>  (942) 
nan

>  <Num_H_Atoms_ProtBoundConf>  (942) 
nan

>  <Num_Resolved_Atoms>  (942) 
nan

>  <Num_Not_Resolved_Atoms>  (942) 
nan

$$$$
CHEMBL4445322
     RDKit          3D

  0  0  0  0  0  0  0  0  0  0999 V3000
M  V30 BEGIN CTAB
M  V30 COUNTS 44 47 0 0 0
M  V30 BEGIN ATOM
M  V30 1 C -2.181374 -7.316132 -4.681646 0
M  V30 2 C -1.458060 -6.218903 -4.001271 0
M  V30 3 C -0.134730 -6.172350 -3.604501 0
M  V30 4 C 0.455640 -5.124532 -2.982791 0
M  V30 5 C -0.247069 -3.974090 -2.684634 0
M  V30 6 N 0.104310 -2.854491 -2.099656 0
M  V30 7 C -0.655577 -1.900059 -1.902486 0
M  V30 8 N -0.092703 -0.667629 -1.208081 0
M  V30 9 C -0.246216 -0.778727 0.174882 0
M  V30 10 O -0.781306 -1.777166 0.722459 0
M  V30 11 C 0.207844 0.265966 1.091459 0
M  V30 12 C 0.040684 0.123426 2.455038 0
M  V30 13 C 0.426976 1.038020 3.416076 0
M  V30 14 C 1.034529 2.197227 2.965411 0
M  V30 15 N 1.472485 3.208118 3.871670 0
M  V30 16 C 2.121454 4.475467 3.589893 0
M  V30 17 C 3.235901 4.654353 4.606845 0
M  V30 18 O 2.774129 4.761712 5.900130 0
M  V30 19 C 1.523971 4.216783 6.106652 0
M  V30 20 C 1.266102 2.994016 5.292113 0
M  V30 21 C 1.228715 2.395581 1.611539 0
M  V30 22 C 0.821145 1.441759 0.675868 0
M  V30 23 S -2.245194 -2.357014 -2.552837 0
M  V30 24 C -1.607501 -4.047643 -3.103668 0
M  V30 25 C -2.258035 -5.125630 -3.755585 0
M  V30 26 H -3.192432 -7.448984 -4.214962 0
M  V30 27 H -2.237177 -7.195361 -5.764497 0
M  V30 28 H -1.673359 -8.306348 -4.491026 0
M  V30 29 H 0.424995 -7.090788 -3.842888 0
M  V30 30 H 1.501047 -5.171940 -2.705835 0
M  V30 31 H 0.340050 0.138878 -1.659941 0
M  V30 32 H -0.437462 -0.781130 2.863891 0
M  V30 33 H 0.264403 0.860418 4.468905 0
M  V30 34 H 1.422486 5.330980 3.692450 0
M  V30 35 H 2.603341 4.482748 2.586069 0
M  V30 36 H 3.963964 3.802770 4.474709 0
M  V30 37 H 3.805600 5.597105 4.397714 0
M  V30 38 H 0.738232 4.993399 6.009384 0
M  V30 39 H 1.442559 3.887230 7.184322 0
M  V30 40 H 0.240162 2.635925 5.526103 0
M  V30 41 H 1.998455 2.217150 5.612277 0
M  V30 42 H 1.694819 3.274777 1.193975 0
M  V30 43 H 0.973569 1.598002 -0.383479 0
M  V30 44 H -3.281485 -4.953712 -3.972464 0
M  V30 END ATOM
M  V30 BEGIN BOND
M  V30 1 1 1 2
M  V30 2 2 2 3
M  V30 3 1 3 4
M  V30 4 2 4 5
M  V30 5 1 5 6
M  V30 6 2 6 7
M  V30 7 1 7 8
M  V30 8 1 8 9
M  V30 9 2 9 10
M  V30 10 1 9 11
M  V30 11 2 11 12
M  V30 12 1 12 13
M  V30 13 2 13 14
M  V30 14 1 14 15
M  V30 15 1 15 16
M  V30 16 1 16 17
M  V30 17 1 17 18
M  V30 18 1 18 19
M  V30 19 1 19 20
M  V30 20 1 14 21
M  V30 21 2 21 22
M  V30 22 1 7 23
M  V30 23 1 23 24
M  V30 24 2 24 25
M  V30 25 1 25 2
M  V30 26 1 24 5
M  V30 27 1 22 11
M  V30 28 1 20 15
M  V30 29 1 1 26
M  V30 30 1 1 27
M  V30 31 1 1 28
M  V30 32 1 3 29
M  V30 33 1 4 30
M  V30 34 1 8 31
M  V30 35 1 12 32
M  V30 36 1 13 33
M  V30 37 1 16 34
M  V30 38 1 16 35
M  V30 39 1 17 36
M  V30 40 1 17 37
M  V30 41 1 19 38
M  V30 42 1 19 39
M  V30 43 1 20 40
M  V30 44 1 20 41
M  V30 45 1 21 42
M  V30 46 1 22 43
M  V30 47 1 25 44
M  V30 END BOND
M  V30 END CTAB
M  END
>  <Dataset>  (943) 
ChEMBL_Kinases

>  <Ligand_Instance>  (943) 
nan

>  <PDB_ID>  (943) 
nan

>  <Standardized_SMILES>  (943) 
Cc1ccc2nc(NC(=O)c3ccc(N4CCOCC4)cc3)sc2c1

>  <Name>  (943) 
nan

>  <Pocket>  (943) 
nan

>  <ATP_Site>  (943) 
nan

>  <Peripheral>  (943) 
nan

>  <Num_H_Atoms_ProtBoundConf>  (943) 
nan

>  <Num_Resolved_Atoms>  (943) 
nan

>  <Num_Not_Resolved_Atoms>  (943) 
nan

$$$$
CHEMBL4445131
     RDKit          3D

  0  0  0  0  0  0  0  0  0  0999 V3000
M  V30 BEGIN CTAB
M  V30 COUNTS 39 40 0 0 0
M  V30 BEGIN ATOM
M  V30 1 C -1.478572 -4.530591 3.704828 0
M  V30 2 O -0.883174 -3.405257 4.294832 0
M  V30 3 C 0.190744 -2.701005 3.707909 0
M  V30 4 C 0.481840 -3.323011 2.502312 0
M  V30 5 C 1.532499 -2.720098 1.784455 0
M  V30 6 C 2.169120 -1.584007 2.343525 0
M  V30 7 C 3.062006 -0.952922 1.264849 0
M  V30 8 O 4.192290 -0.456619 1.114571 0
M  V30 9 C 2.240255 -0.946631 -0.054363 0
M  V30 10 S 1.098440 0.224282 0.703789 0
M  V30 11 C -0.066692 0.440093 -0.717308 0
M  V30 12 N -1.159542 1.393722 -0.397008 0
M  V30 13 C -1.307015 2.716266 -0.869697 0
M  V30 14 C -0.042935 3.555001 -0.701628 0
M  V30 15 C -2.413531 3.371164 -0.002751 0
M  V30 16 C 0.485658 -0.367484 -1.626071 0
M  V30 17 C -0.124123 -0.520420 -2.870006 0
M  V30 18 N -0.625149 -0.634724 -3.898069 0
M  V30 19 C 1.557385 -0.943571 -1.171205 0
M  V30 20 N 2.372521 -1.985075 -1.823401 0
M  V30 21 C 1.883642 -0.984454 3.524267 0
M  V30 22 C 0.837197 -1.614221 4.193808 0
M  V30 23 H -1.669240 -4.406488 2.581379 0
M  V30 24 H -2.545903 -4.650842 4.061047 0
M  V30 25 H -0.933971 -5.436102 3.849616 0
M  V30 26 H 0.136395 -4.170213 1.926910 0
M  V30 27 H 1.860475 -3.137725 0.808451 0
M  V30 28 H -1.838845 0.870586 0.288864 0
M  V30 29 H -1.589947 2.705119 -1.908150 0
M  V30 30 H 0.611419 3.243985 -1.560544 0
M  V30 31 H -0.328820 4.615596 -0.936247 0
M  V30 32 H 0.427399 3.465750 0.252492 0
M  V30 33 H -2.752581 2.691521 0.778280 0
M  V30 34 H -1.937575 4.230163 0.556078 0
M  V30 35 H -3.248750 3.690035 -0.645711 0
M  V30 36 H 3.162785 -2.014912 -2.502987 0
M  V30 37 H 2.336690 -3.029678 -1.790805 0
M  V30 38 H 2.419365 -0.107694 3.858141 0
M  V30 39 H 0.475203 -1.230346 5.121663 0
M  V30 END ATOM
M  V30 BEGIN BOND
M  V30 1 1 1 2
M  V30 2 1 2 3
M  V30 3 2 3 4
M  V30 4 1 4 5
M  V30 5 2 5 6
M  V30 6 1 6 7
M  V30 7 2 7 8
M  V30 8 1 7 9
M  V30 9 1 9 10
M  V30 10 1 10 11
M  V30 11 1 11 12
M  V30 12 1 12 13
M  V30 13 1 13 14
M  V30 14 1 13 15
M  V30 15 2 11 16
M  V30 16 1 16 17
M  V30 17 3 17 18
M  V30 18 1 16 19
M  V30 19 1 19 20
M  V30 20 1 6 21
M  V30 21 2 21 22
M  V30 22 1 22 3
M  V30 23 2 19 9
M  V30 24 1 1 23
M  V30 25 1 1 24
M  V30 26 1 1 25
M  V30 27 1 4 26
M  V30 28 1 5 27
M  V30 29 1 12 28
M  V30 30 1 13 29
M  V30 31 1 14 30
M  V30 32 1 14 31
M  V30 33 1 14 32
M  V30 34 1 15 33
M  V30 35 1 15 34
M  V30 36 1 15 35
M  V30 37 1 20 36
M  V30 38 1 20 37
M  V30 39 1 21 38
M  V30 40 1 22 39
M  V30 END BOND
M  V30 END CTAB
M  END
>  <Dataset>  (944) 
ChEMBL_Kinases

>  <Ligand_Instance>  (944) 
nan

>  <PDB_ID>  (944) 
nan

>  <Standardized_SMILES>  (944) 
COc1ccc(C(=O)c2sc(NC(C)C)c(C#N)c2N)cc1

>  <Name>  (944) 
nan

>  <Pocket>  (944) 
nan

>  <ATP_Site>  (944) 
nan

>  <Peripheral>  (944) 
nan

>  <Num_H_Atoms_ProtBoundConf>  (944) 
nan

>  <Num_Resolved_Atoms>  (944) 
nan

>  <Num_Not_Resolved_Atoms>  (944) 
nan

$$$$
CHEMBL4750885
     RDKit          3D

  0  0  0  0  0  0  0  0  0  0999 V3000
M  V30 BEGIN CTAB
M  V30 COUNTS 71 75 0 0 0
M  V30 BEGIN ATOM
M  V30 1 C -0.816440 2.633803 -2.963399 0
M  V30 2 O -0.984173 3.892567 -2.371440 0
M  V30 3 C -0.860392 4.016649 -0.992693 0
M  V30 4 C -1.048035 5.315975 -0.508769 0
M  V30 5 C -0.934351 5.494450 0.874557 0
M  V30 6 C -0.651554 4.446640 1.725764 0
M  V30 7 C -0.471377 3.162959 1.198035 0
M  V30 8 C -0.174942 2.050323 2.130608 0
M  V30 9 N 0.853526 1.905890 3.014603 0
M  V30 10 C 0.718581 0.734091 3.661987 0
M  V30 11 C 1.629424 0.220472 4.693543 0
M  V30 12 C 2.755984 0.890965 5.123093 0
M  V30 13 C 3.600711 0.394800 6.094080 0
M  V30 14 C 3.291320 -0.835588 6.655860 0
M  V30 15 C 2.172366 -1.531368 6.248644 0
M  V30 16 C 1.361114 -0.996738 5.278308 0
M  V30 17 N -0.397138 0.108630 3.204263 0
M  V30 18 C -0.956091 0.895196 2.269535 0
M  V30 19 C -2.174858 0.689489 1.452200 0
M  V30 20 C -3.304086 1.483498 1.439531 0
M  V30 21 C -4.347638 1.141652 0.605527 0
M  V30 22 N -4.289980 0.049467 -0.197688 0
M  V30 23 C -3.201401 -0.718899 -0.187517 0
M  V30 24 N -3.088214 -1.874037 -1.015503 0
M  V30 25 C -3.478015 -3.243036 -0.887077 0
M  V30 26 C -3.056174 -4.066106 -2.101801 0
M  V30 27 C -1.544606 -3.984691 -2.190118 0
M  V30 28 N -1.025277 -4.727334 -3.306031 0
M  V30 29 S 0.681347 -4.617347 -3.373399 0
M  V30 30 O 1.213591 -5.491717 -4.486418 0
M  V30 31 O 1.280053 -5.147732 -2.093877 0
M  V30 32 C 1.169673 -2.970470 -3.587611 0
M  V30 33 C 1.396923 -2.166031 -2.488399 0
M  V30 34 C 1.791751 -0.852682 -2.629744 0
M  V30 35 C 1.966976 -0.318511 -3.882135 0
M  V30 36 C 2.383987 1.051466 -4.282396 0
M  V30 37 F 2.624554 1.816597 -3.166875 0
M  V30 38 F 1.437145 1.623917 -5.100345 0
M  V30 39 F 3.580059 0.899123 -4.981196 0
M  V30 40 C 1.735468 -1.137051 -4.991247 0
M  V30 41 C 1.343470 -2.440755 -4.847497 0
M  V30 42 C -2.103059 -0.440728 0.627873 0
M  V30 43 C -0.578207 2.955642 -0.172007 0
M  V30 44 H -1.762230 2.069713 -2.820948 0
M  V30 45 H -0.756830 2.806634 -4.066557 0
M  V30 46 H 0.001801 2.029327 -2.574367 0
M  V30 47 H -1.269423 6.141232 -1.167159 0
M  V30 48 H -1.087913 6.524176 1.214979 0
M  V30 49 H -0.579177 4.654067 2.765764 0
M  V30 50 H 2.926470 1.846849 4.632186 0
M  V30 51 H 4.475341 0.958154 6.399244 0
M  V30 52 H 3.958597 -1.205718 7.408959 0
M  V30 53 H 1.939900 -2.478635 6.685859 0
M  V30 54 H 0.508850 -1.557851 4.988279 0
M  V30 55 H -0.790331 -0.821543 3.498192 0
M  V30 56 H -3.257855 2.324947 2.108299 0
M  V30 57 H -5.213849 1.799343 0.632912 0
M  V30 58 H -2.598409 -1.455123 -1.839704 0
M  V30 59 H -4.575692 -3.270675 -0.843542 0
M  V30 60 H -3.007015 -3.760983 -0.015440 0
M  V30 61 H -3.537720 -3.727775 -3.024329 0
M  V30 62 H -3.313093 -5.125704 -1.870206 0
M  V30 63 H -1.230785 -2.919794 -2.287932 0
M  V30 64 H -1.108138 -4.352551 -1.243217 0
M  V30 65 H -1.408229 -4.420539 -4.213040 0
M  V30 66 H 1.284857 -2.498783 -1.466258 0
M  V30 67 H 1.995687 -0.138310 -1.837456 0
M  V30 68 H 1.839962 -0.830284 -6.037277 0
M  V30 69 H 1.154438 -3.107590 -5.693504 0
M  V30 70 H -1.239960 -1.088002 0.607176 0
M  V30 71 H -0.439042 1.964202 -0.579892 0
M  V30 END ATOM
M  V30 BEGIN BOND
M  V30 1 1 1 2
M  V30 2 1 2 3
M  V30 3 2 3 4
M  V30 4 1 4 5
M  V30 5 2 5 6
M  V30 6 1 6 7
M  V30 7 1 7 8
M  V30 8 1 8 9
M  V30 9 2 9 10
M  V30 10 1 10 11
M  V30 11 2 11 12
M  V30 12 1 12 13
M  V30 13 2 13 14
M  V30 14 1 14 15
M  V30 15 2 15 16
M  V30 16 1 10 17
M  V30 17 1 17 18
M  V30 18 1 18 19
M  V30 19 2 19 20
M  V30 20 1 20 21
M  V30 21 2 21 22
M  V30 22 1 22 23
M  V30 23 1 23 24
M  V30 24 1 24 25
M  V30 25 1 25 26
M  V30 26 1 26 27
M  V30 27 1 27 28
M  V30 28 1 28 29
M  V30 29 2 29 30
M  V30 30 2 29 31
M  V30 31 1 29 32
M  V30 32 2 32 33
M  V30 33 1 33 34
M  V30 34 2 34 35
M  V30 35 1 35 36
M  V30 36 1 36 37
M  V30 37 1 36 38
M  V30 38 1 36 39
M  V30 39 1 35 40
M  V30 40 2 40 41
M  V30 41 2 23 42
M  V30 42 2 7 43
M  V30 43 1 43 3
M  V30 44 2 18 8
M  V30 45 1 42 19
M  V30 46 1 16 11
M  V30 47 1 41 32
M  V30 48 1 1 44
M  V30 49 1 1 45
M  V30 50 1 1 46
M  V30 51 1 4 47
M  V30 52 1 5 48
M  V30 53 1 6 49
M  V30 54 1 12 50
M  V30 55 1 13 51
M  V30 56 1 14 52
M  V30 57 1 15 53
M  V30 58 1 16 54
M  V30 59 1 17 55
M  V30 60 1 20 56
M  V30 61 1 21 57
M  V30 62 1 24 58
M  V30 63 1 25 59
M  V30 64 1 25 60
M  V30 65 1 26 61
M  V30 66 1 26 62
M  V30 67 1 27 63
M  V30 68 1 27 64
M  V30 69 1 28 65
M  V30 70 1 33 66
M  V30 71 1 34 67
M  V30 72 1 40 68
M  V30 73 1 41 69
M  V30 74 1 42 70
M  V30 75 1 43 71
M  V30 END BOND
M  V30 END CTAB
M  END
>  <Dataset>  (945) 
ChEMBL_Kinases

>  <Ligand_Instance>  (945) 
nan

>  <PDB_ID>  (945) 
nan

>  <Standardized_SMILES>  (945) 
COc1cccc(-c2nc(-c3ccccc3)[nH]c2-c2ccnc(NCCCNS(=O)(=O)c3ccc(C(F)(F)F)cc3)c2)c1

>  <Name>  (945) 
nan

>  <Pocket>  (945) 
nan

>  <ATP_Site>  (945) 
nan

>  <Peripheral>  (945) 
nan

>  <Num_H_Atoms_ProtBoundConf>  (945) 
nan

>  <Num_Resolved_Atoms>  (945) 
nan

>  <Num_Not_Resolved_Atoms>  (945) 
nan

$$$$
CHEMBL4445123
     RDKit          3D

  0  0  0  0  0  0  0  0  0  0999 V3000
M  V30 BEGIN CTAB
M  V30 COUNTS 49 52 0 0 0
M  V30 BEGIN ATOM
M  V30 1 C -2.925043 -4.374612 3.630357 0
M  V30 2 C -2.071903 -3.429904 2.878960 0
M  V30 3 C -0.697594 -3.529390 2.752142 0
M  V30 4 C 0.043956 -2.608623 2.032523 0
M  V30 5 O 1.403643 -2.986901 2.094069 0
M  V30 6 C -0.607230 -1.531907 1.404583 0
M  V30 7 C 0.474367 -0.819601 0.778544 0
M  V30 8 C 1.288741 0.225526 1.286942 0
M  V30 9 C 2.333671 0.693362 0.521066 0
M  V30 10 C 2.587591 0.164050 -0.709360 0
M  V30 11 C 3.739478 0.749131 -1.440394 0 CFG=1
M  V30 12 C 3.547036 2.197969 -1.745726 0
M  V30 13 C 5.047035 0.453635 -0.734108 0
M  V30 14 N 5.124073 0.967041 0.596933 0
M  V30 15 C 1.835505 -0.846760 -1.252933 0
M  V30 16 C 0.782362 -1.334429 -0.507285 0
M  V30 17 C -1.951790 -1.464884 1.548717 0
M  V30 18 C -2.675627 -2.372945 2.257445 0
M  V30 19 N -4.004415 -2.218483 2.341177 0
M  V30 20 C -4.656611 -1.203582 1.754508 0
M  V30 21 O -5.903259 -1.078069 1.846122 0
M  V30 22 C -3.900332 -0.295560 1.040980 0
M  V30 23 C -4.578339 0.742994 0.440598 0
M  V30 24 C -3.820789 1.641432 -0.268291 0
M  V30 25 C -2.438816 1.574517 -0.418339 0
M  V30 26 C -1.883573 0.496261 0.226009 0
M  V30 27 C -2.557163 -0.426273 0.939364 0
M  V30 28 H -2.285583 -5.196282 4.031133 0
M  V30 29 H -3.436784 -3.844262 4.475714 0
M  V30 30 H -3.754427 -4.792743 3.009909 0
M  V30 31 H -0.322415 -4.406371 3.285411 0
M  V30 32 H 1.986067 -2.793640 1.264692 0
M  V30 33 H 0.914252 0.491159 2.265192 0
M  V30 34 H 2.847319 1.482436 1.052165 0
M  V30 35 H 3.823256 0.223427 -2.436807 0
M  V30 36 H 4.180511 2.485630 -2.635280 0
M  V30 37 H 3.837246 2.853155 -0.910463 0
M  V30 38 H 2.511134 2.337198 -2.092962 0
M  V30 39 H 5.117087 -0.664532 -0.691143 0
M  V30 40 H 5.918712 0.780529 -1.330487 0
M  V30 41 H 4.896315 0.242974 1.329658 0
M  V30 42 H 6.081999 1.319301 0.848587 0
M  V30 43 H 2.078690 -1.224348 -2.221248 0
M  V30 44 H 0.226860 -2.129054 -0.986870 0
M  V30 45 H -4.574704 -2.916195 2.887840 0
M  V30 46 H -5.647361 0.815046 0.543039 0
M  V30 47 H -4.414079 2.444607 -0.722812 0
M  V30 48 H -2.051397 2.385283 -1.016351 0
M  V30 49 H -0.874768 0.615235 0.002082 0
M  V30 END ATOM
M  V30 BEGIN BOND
M  V30 1 1 1 2
M  V30 2 2 2 3
M  V30 3 1 3 4
M  V30 4 1 4 5
M  V30 5 2 4 6
M  V30 6 1 6 7
M  V30 7 2 7 8
M  V30 8 1 8 9
M  V30 9 2 9 10
M  V30 10 1 10 11
M  V30 11 1 11 12
M  V30 12 1 11 13
M  V30 13 1 13 14
M  V30 14 1 10 15
M  V30 15 2 15 16
M  V30 16 1 6 17
M  V30 17 2 17 18
M  V30 18 1 18 19
M  V30 19 1 19 20
M  V30 20 2 20 21
M  V30 21 1 20 22
M  V30 22 2 22 23
M  V30 23 1 23 24
M  V30 24 2 24 25
M  V30 25 1 25 26
M  V30 26 2 26 27
M  V30 27 1 18 2
M  V30 28 1 27 22
M  V30 29 1 16 7
M  V30 30 1 27 17
M  V30 31 1 1 28
M  V30 32 1 1 29
M  V30 33 1 1 30
M  V30 34 1 3 31
M  V30 35 1 5 32
M  V30 36 1 8 33
M  V30 37 1 9 34
M  V30 38 1 11 35 CFG=3
M  V30 39 1 12 36
M  V30 40 1 12 37
M  V30 41 1 12 38
M  V30 42 1 13 39
M  V30 43 1 13 40
M  V30 44 1 14 41
M  V30 45 1 14 42
M  V30 46 1 15 43
M  V30 47 1 16 44
M  V30 48 1 19 45
M  V30 49 1 23 46
M  V30 50 1 24 47
M  V30 51 1 25 48
M  V30 52 1 26 49
M  V30 END BOND
M  V30 END CTAB
M  END
>  <Dataset>  (946) 
ChEMBL_Kinases

>  <Ligand_Instance>  (946) 
nan

>  <PDB_ID>  (946) 
nan

>  <Standardized_SMILES>  (946) 
Cc1cc(O)c(-c2ccc([C@@H](C)CN)cc2)c2c1[nH]c(=O)c1ccccc12

>  <Name>  (946) 
nan

>  <Pocket>  (946) 
nan

>  <ATP_Site>  (946) 
nan

>  <Peripheral>  (946) 
nan

>  <Num_H_Atoms_ProtBoundConf>  (946) 
nan

>  <Num_Resolved_Atoms>  (946) 
nan

>  <Num_Not_Resolved_Atoms>  (946) 
nan

$$$$
CHEMBL4750934
     RDKit          3D

  0  0  0  0  0  0  0  0  0  0999 V3000
M  V30 BEGIN CTAB
M  V30 COUNTS 152 158 0 0 0
M  V30 BEGIN ATOM
M  V30 1 C 5.612202 2.400633 3.812680 0
M  V30 2 C 5.849926 1.073996 3.170697 0
M  V30 3 N 6.245076 0.135495 3.999618 0
M  V30 4 C 6.481629 -1.080165 3.367839 0
M  V30 5 S 6.106307 -0.760941 1.590309 0
M  V30 6 C 5.656564 0.979932 1.807956 0
M  V30 7 C 5.277825 1.739992 0.718431 0
M  V30 8 C 5.349348 1.163506 -0.552751 0
M  V30 9 C 4.967206 1.879879 -1.693280 0
M  V30 10 C 4.516879 3.168889 -1.542407 0
M  V30 11 C 4.145659 3.874609 -2.806881 0
M  V30 12 N 2.772365 3.574790 -3.155908 0
M  V30 13 C 1.575727 4.143584 -2.581595 0
M  V30 14 O 1.748286 4.998141 -1.672914 0
M  V30 15 C 0.412223 3.548447 -3.241939 0 CFG=2
M  V30 16 C 0.496173 3.947806 -4.727684 0
M  V30 17 C -0.186518 5.322524 -4.729846 0 CFG=1
M  V30 18 O -1.322321 5.198879 -5.560495 0
M  V30 19 C -0.718202 5.503114 -3.298343 0
M  V30 20 N -0.867360 4.116566 -2.915767 0
M  V30 21 C -2.082535 3.616071 -2.405276 0
M  V30 22 O -2.730384 4.716975 -2.500293 0
M  V30 23 C -2.744653 2.399674 -1.876791 0 CFG=1
M  V30 24 N -1.854675 1.292549 -1.641977 0
M  V30 25 C -1.280554 0.165417 -2.276574 0
M  V30 26 O -1.595135 0.011866 -3.476833 0
M  V30 27 C -0.370496 -0.718326 -1.474091 0
M  V30 28 O -0.254445 -0.267766 -0.177915 0
M  V30 29 C 0.568076 -1.142714 0.522839 0
M  V30 30 C 0.665984 -0.835810 1.968507 0
M  V30 31 O 1.161158 0.383948 2.259581 0
M  V30 32 C 0.546805 1.489167 1.746221 0
M  V30 33 C 1.240378 2.698712 2.380535 0
M  V30 34 O 1.078991 2.615235 3.754241 0
M  V30 35 C -0.218769 2.685353 4.174297 0
M  V30 36 C -0.315611 2.560977 5.685893 0
M  V30 37 O -1.646316 2.637391 6.092324 0
M  V30 38 C -2.476025 1.699352 5.533223 0
M  V30 39 C -2.056170 0.261368 5.809875 0
M  V30 40 O -2.948794 -0.572651 5.179489 0
M  V30 41 C -2.632162 -1.921843 5.378716 0
M  V30 42 C -3.552970 -2.777021 4.616628 0
M  V30 43 O -4.129850 -1.738266 4.206542 0
M  V30 44 N -4.111850 -3.960140 4.124329 0
M  V30 45 C -5.232584 -3.917482 3.221429 0
M  V30 46 C -4.937706 -4.694855 1.965005 0
M  V30 47 N -3.598391 -5.158191 1.962653 0
M  V30 48 C -3.173173 -5.680552 0.672811 0 CFG=1
M  V30 49 C -3.200510 -4.571984 -0.307974 0
M  V30 50 C -2.340700 -4.736516 -1.532721 0
M  V30 51 C -1.120960 -5.565258 -1.348048 0 CFG=1
M  V30 52 N 0.009133 -5.157839 -2.179142 0
M  V30 53 C -0.160539 -5.245253 -3.582486 0
M  V30 54 N -1.352624 -5.648441 -4.042442 0
M  V30 55 C -1.598413 -5.754372 -5.356504 0
M  V30 56 N -0.630750 -5.452089 -6.246067 0
M  V30 57 N 0.572789 -5.046728 -5.817931 0
M  V30 58 C 1.651072 -4.706743 -6.542467 0
M  V30 59 C 2.606410 -4.375579 -5.607608 0
M  V30 60 C 2.111825 -4.513676 -4.305255 0
M  V30 61 C 2.897618 -4.257837 -3.073343 0
M  V30 62 C 2.658661 -2.922176 -2.455838 0
M  V30 63 C 4.389370 -4.265323 -3.467728 0
M  V30 64 C 0.817620 -4.940439 -4.501725 0
M  V30 65 C -0.796566 -5.694848 0.108337 0
M  V30 66 C -1.945030 -6.513178 0.709289 0
M  V30 67 C -3.158478 -5.941355 3.061644 0
M  V30 68 C -3.782380 -5.352519 4.335977 0
M  V30 69 C -3.712595 2.687169 -0.784163 0
M  V30 70 C -4.842148 3.590017 -1.216953 0
M  V30 71 C -3.037290 3.401906 0.390477 0
M  V30 72 C -4.312717 1.432676 -0.195773 0
M  V30 73 C 4.408630 3.826774 -0.337036 0
M  V30 74 C 4.810898 3.027356 0.712573 0
M  V30 75 H 6.284872 3.159742 3.316003 0
M  V30 76 H 5.959784 2.449053 4.883224 0
M  V30 77 H 4.570223 2.701616 3.837269 0
M  V30 78 H 6.827586 -1.971503 3.977674 0
M  V30 79 H 5.691393 0.150223 -0.793514 0
M  V30 80 H 5.028265 1.416132 -2.686253 0
M  V30 81 H 4.267276 4.972664 -2.618798 0
M  V30 82 H 4.802725 3.613035 -3.634032 0
M  V30 83 H 2.742000 2.835707 -3.932474 0
M  V30 84 H 0.443641 2.447101 -3.139734 0
M  V30 85 H 1.530608 4.018114 -5.067941 0
M  V30 86 H -0.065697 3.195346 -5.283242 0
M  V30 87 H 0.466309 6.129815 -5.053748 0
M  V30 88 H -1.905748 4.490220 -5.256375 0
M  V30 89 H -1.676337 6.070197 -3.322959 0
M  V30 90 H -0.002996 6.080072 -2.716884 0
M  V30 91 H -3.370012 2.018001 -2.768624 0
M  V30 92 H -1.568728 1.443999 -0.627598 0
M  V30 93 H -0.667206 -1.766422 -1.471288 0
M  V30 94 H 0.646553 -0.639611 -1.925087 0
M  V30 95 H 0.171207 -2.178120 0.335899 0
M  V30 96 H 1.598759 -1.067143 0.094687 0
M  V30 97 H 1.371151 -1.593851 2.428715 0
M  V30 98 H -0.329854 -1.041746 2.454451 0
M  V30 99 H 0.782204 1.610572 0.640321 0
M  V30 100 H -0.510919 1.521703 1.931640 0
M  V30 101 H 0.686916 3.590942 2.017450 0
M  V30 102 H 2.300020 2.707112 2.086437 0
M  V30 103 H -0.606421 3.724100 3.957243 0
M  V30 104 H -0.904326 1.979128 3.712800 0
M  V30 105 H 0.113312 1.642133 6.081382 0
M  V30 106 H 0.197455 3.430140 6.116108 0
M  V30 107 H -2.697585 1.885999 4.479583 0
M  V30 108 H -3.481229 1.860775 6.050229 0
M  V30 109 H -2.109506 0.127675 6.901769 0
M  V30 110 H -1.056254 0.130436 5.376209 0
M  V30 111 H -1.588635 -2.168718 5.138925 0
M  V30 112 H -2.834372 -2.118416 6.461504 0
M  V30 113 H -6.117995 -4.329568 3.761767 0
M  V30 114 H -5.455402 -2.853020 2.987691 0
M  V30 115 H -5.093876 -4.046936 1.071920 0
M  V30 116 H -5.655615 -5.550010 1.941946 0
M  V30 117 H -4.015296 -6.387044 0.379611 0
M  V30 118 H -2.983689 -3.627516 0.190639 0
M  V30 119 H -4.251599 -4.453729 -0.705760 0
M  V30 120 H -2.026180 -3.719117 -1.842536 0
M  V30 121 H -2.927730 -5.130746 -2.397457 0
M  V30 122 H -1.351436 -6.623587 -1.697027 0
M  V30 123 H 0.747480 -4.858210 -1.526031 0
M  V30 124 H -2.568631 -6.080223 -5.708935 0
M  V30 125 H 1.841618 -4.662598 -7.605882 0
M  V30 126 H 3.633446 -4.041498 -5.809983 0
M  V30 127 H 2.784487 -5.128825 -2.407608 0
M  V30 128 H 2.333158 -3.070483 -1.406792 0
M  V30 129 H 3.594065 -2.294853 -2.357204 0
M  V30 130 H 1.972848 -2.278972 -3.050138 0
M  V30 131 H 4.612438 -5.075863 -4.185267 0
M  V30 132 H 4.546510 -3.322982 -4.030499 0
M  V30 133 H 5.043781 -4.287831 -2.590886 0
M  V30 134 H -0.769870 -4.671596 0.527250 0
M  V30 135 H 0.171644 -6.221382 0.259220 0
M  V30 136 H -1.675214 -6.968109 1.657847 0
M  V30 137 H -2.050870 -7.373186 -0.026074 0
M  V30 138 H -3.408454 -7.003856 3.052802 0
M  V30 139 H -2.061344 -5.754101 3.204046 0
M  V30 140 H -3.074041 -5.450733 5.186991 0
M  V30 141 H -4.686409 -5.892852 4.631023 0
M  V30 142 H -4.548315 4.624745 -1.053185 0
M  V30 143 H -5.166509 3.380391 -2.256799 0
M  V30 144 H -5.682191 3.394163 -0.492522 0
M  V30 145 H -2.498726 4.312126 0.030612 0
M  V30 146 H -2.418290 2.728798 0.999662 0
M  V30 147 H -3.863751 3.753101 1.037154 0
M  V30 148 H -5.023378 1.643147 0.611182 0
M  V30 149 H -4.786047 0.839192 -1.008417 0
M  V30 150 H -3.494896 0.812231 0.227539 0
M  V30 151 H 4.056779 4.834122 -0.225047 0
M  V30 152 H 4.719681 3.534657 1.661520 0
M  V30 END ATOM
M  V30 BEGIN BOND
M  V30 1 1 1 2
M  V30 2 1 2 3
M  V30 3 2 3 4
M  V30 4 1 4 5
M  V30 5 1 5 6
M  V30 6 1 6 7
M  V30 7 2 7 8
M  V30 8 1 8 9
M  V30 9 2 9 10
M  V30 10 1 10 11
M  V30 11 1 11 12
M  V30 12 1 12 13
M  V30 13 2 13 14
M  V30 14 1 13 15
M  V30 15 1 15 16
M  V30 16 1 16 17
M  V30 17 1 17 18
M  V30 18 1 17 19
M  V30 19 1 19 20
M  V30 20 1 20 21
M  V30 21 2 21 22
M  V30 22 1 21 23
M  V30 23 1 23 24
M  V30 24 1 24 25
M  V30 25 2 25 26
M  V30 26 1 25 27
M  V30 27 1 27 28
M  V30 28 1 28 29
M  V30 29 1 29 30
M  V30 30 1 30 31
M  V30 31 1 31 32
M  V30 32 1 32 33
M  V30 33 1 33 34
M  V30 34 1 34 35
M  V30 35 1 35 36
M  V30 36 1 36 37
M  V30 37 1 37 38
M  V30 38 1 38 39
M  V30 39 1 39 40
M  V30 40 1 40 41
M  V30 41 1 41 42
M  V30 42 2 42 43
M  V30 43 1 42 44
M  V30 44 1 44 45
M  V30 45 1 45 46
M  V30 46 1 46 47
M  V30 47 1 47 48
M  V30 48 1 48 49
M  V30 49 1 49 50
M  V30 50 1 50 51
M  V30 51 1 51 52
M  V30 52 1 52 53
M  V30 53 2 53 54
M  V30 54 1 54 55
M  V30 55 2 55 56
M  V30 56 1 56 57
M  V30 57 1 57 58
M  V30 58 2 58 59
M  V30 59 1 59 60
M  V30 60 1 60 61
M  V30 61 1 61 62
M  V30 62 1 61 63
M  V30 63 2 60 64
M  V30 64 1 51 65
M  V30 65 1 65 66
M  V30 66 1 47 67
M  V30 67 1 67 68
M  V30 68 1 23 69
M  V30 69 1 69 70
M  V30 70 1 69 71
M  V30 71 1 69 72
M  V30 72 1 10 73
M  V30 73 2 73 74
M  V30 74 2 6 2
M  V30 75 1 74 7
M  V30 76 1 20 15
M  V30 77 1 68 44
M  V30 78 1 66 48
M  V30 79 1 64 53
M  V30 80 1 64 57
M  V30 81 1 1 75
M  V30 82 1 1 76
M  V30 83 1 1 77
M  V30 84 1 4 78
M  V30 85 1 8 79
M  V30 86 1 9 80
M  V30 87 1 11 81
M  V30 88 1 11 82
M  V30 89 1 12 83
M  V30 90 1 15 84 CFG=3
M  V30 91 1 16 85
M  V30 92 1 16 86
M  V30 93 1 17 87 CFG=3
M  V30 94 1 18 88
M  V30 95 1 19 89
M  V30 96 1 19 90
M  V30 97 1 23 91 CFG=3
M  V30 98 1 24 92
M  V30 99 1 27 93
M  V30 100 1 27 94
M  V30 101 1 29 95
M  V30 102 1 29 96
M  V30 103 1 30 97
M  V30 104 1 30 98
M  V30 105 1 32 99
M  V30 106 1 32 100
M  V30 107 1 33 101
M  V30 108 1 33 102
M  V30 109 1 35 103
M  V30 110 1 35 104
M  V30 111 1 36 105
M  V30 112 1 36 106
M  V30 113 1 38 107
M  V30 114 1 38 108
M  V30 115 1 39 109
M  V30 116 1 39 110
M  V30 117 1 41 111
M  V30 118 1 41 112
M  V30 119 1 45 113
M  V30 120 1 45 114
M  V30 121 1 46 115
M  V30 122 1 46 116
M  V30 123 1 48 117 CFG=3
M  V30 124 1 49 118
M  V30 125 1 49 119
M  V30 126 1 50 120
M  V30 127 1 50 121
M  V30 128 1 51 122 CFG=3
M  V30 129 1 52 123
M  V30 130 1 55 124
M  V30 131 1 58 125
M  V30 132 1 59 126
M  V30 133 1 61 127
M  V30 134 1 62 128
M  V30 135 1 62 129
M  V30 136 1 62 130
M  V30 137 1 63 131
M  V30 138 1 63 132
M  V30 139 1 63 133
M  V30 140 1 65 134
M  V30 141 1 65 135
M  V30 142 1 66 136
M  V30 143 1 66 137
M  V30 144 1 67 138
M  V30 145 1 67 139
M  V30 146 1 68 140
M  V30 147 1 68 141
M  V30 148 1 70 142
M  V30 149 1 70 143
M  V30 150 1 70 144
M  V30 151 1 71 145
M  V30 152 1 71 146
M  V30 153 1 71 147
M  V30 154 1 72 148
M  V30 155 1 72 149
M  V30 156 1 72 150
M  V30 157 1 73 151
M  V30 158 1 74 152
M  V30 END BOND
M  V30 END CTAB
M  END
>  <Dataset>  (947) 
ChEMBL_Kinases

>  <Ligand_Instance>  (947) 
nan

>  <PDB_ID>  (947) 
nan

>  <Standardized_SMILES>  (947) 
Cc1ncsc1-c1ccc(CNC(=O)[C@@H]2C[C@@H](O)CN2C(=O)[C@@H](NC(=O)COCCOCCOCCOCCOCC(=O)N2CCN([C@H]3CC[C@@H](Nc4ncnn5ccc(C(C)C)c45)CC3)CC2)C(C)(C)C)cc1

>  <Name>  (947) 
nan

>  <Pocket>  (947) 
nan

>  <ATP_Site>  (947) 
nan

>  <Peripheral>  (947) 
nan

>  <Num_H_Atoms_ProtBoundConf>  (947) 
nan

>  <Num_Resolved_Atoms>  (947) 
nan

>  <Num_Not_Resolved_Atoms>  (947) 
nan

$$$$
CHEMBL4751017
     RDKit          3D

  0  0  0  0  0  0  0  0  0  0999 V3000
M  V30 BEGIN CTAB
M  V30 COUNTS 40 42 0 0 0
M  V30 BEGIN ATOM
M  V30 1 N -0.097101 -5.092423 1.747891 0
M  V30 2 C 0.320162 -3.782556 1.367249 0
M  V30 3 N 1.510064 -3.603090 0.755068 0
M  V30 4 C 1.935219 -2.382278 0.382045 0
M  V30 5 C 1.169612 -1.253987 0.610102 0
M  V30 6 C 1.751180 0.007268 0.153127 0
M  V30 7 C 1.498106 1.200718 0.800918 0
M  V30 8 C 2.063715 2.374929 0.342137 0
M  V30 9 C 2.886110 2.367096 -0.766513 0
M  V30 10 N 3.552663 3.448847 -1.390035 0
M  V30 11 C 2.868672 4.154523 -2.472674 0
M  V30 12 C 1.618116 4.703573 -1.903328 0
M  V30 13 O 0.794356 5.362610 -2.579958 0
M  V30 14 O 0.628613 5.006380 -0.986244 0
M  V30 15 N 3.130486 1.182365 -1.400268 0
M  V30 16 C 2.578075 0.037093 -0.951797 0
M  V30 17 C -0.052715 -1.401051 1.234116 0
M  V30 18 C -0.475168 -2.656374 1.610341 0
M  V30 19 C -1.769895 -2.820302 2.271565 0
M  V30 20 C -2.283435 -2.055158 3.298985 0
M  V30 21 C -3.526215 -2.323868 3.829778 0
M  V30 22 C -4.286949 -3.359102 3.351737 0
M  V30 23 Cl -5.859231 -3.650699 4.067371 0
M  V30 24 C -3.794935 -4.142706 2.320865 0
M  V30 25 C -2.552283 -3.876364 1.787872 0
M  V30 26 H -0.175710 -5.167855 2.787192 0
M  V30 27 H -0.336129 -5.976300 1.213700 0
M  V30 28 H 2.914082 -2.422680 -0.096336 0
M  V30 29 H 0.859514 1.245516 1.671676 0
M  V30 30 H 1.926674 3.352071 0.779224 0
M  V30 31 H 4.508094 3.711933 -1.062603 0
M  V30 32 H 3.513030 4.954358 -2.891913 0
M  V30 33 H 2.607511 3.389374 -3.231112 0
M  V30 34 H 0.841336 5.470766 -0.111352 0
M  V30 35 H 2.776696 -0.909319 -1.462643 0
M  V30 36 H -0.626240 -0.499824 1.397471 0
M  V30 37 H -1.613435 -1.266335 3.606582 0
M  V30 38 H -3.839478 -1.667883 4.630954 0
M  V30 39 H -4.455290 -4.930141 2.008429 0
M  V30 40 H -2.304397 -4.577569 0.986211 0
M  V30 END ATOM
M  V30 BEGIN BOND
M  V30 1 1 1 2
M  V30 2 2 2 3
M  V30 3 1 3 4
M  V30 4 2 4 5
M  V30 5 1 5 6
M  V30 6 2 6 7
M  V30 7 1 7 8
M  V30 8 2 8 9
M  V30 9 1 9 10
M  V30 10 1 10 11
M  V30 11 1 11 12
M  V30 12 2 12 13
M  V30 13 1 12 14
M  V30 14 1 9 15
M  V30 15 2 15 16
M  V30 16 1 5 17
M  V30 17 2 17 18
M  V30 18 1 18 19
M  V30 19 2 19 20
M  V30 20 1 20 21
M  V30 21 2 21 22
M  V30 22 1 22 23
M  V30 23 1 22 24
M  V30 24 2 24 25
M  V30 25 1 18 2
M  V30 26 1 25 19
M  V30 27 1 16 6
M  V30 28 1 1 26
M  V30 29 1 1 27
M  V30 30 1 4 28
M  V30 31 1 7 29
M  V30 32 1 8 30
M  V30 33 1 10 31
M  V30 34 1 11 32
M  V30 35 1 11 33
M  V30 36 1 14 34
M  V30 37 1 16 35
M  V30 38 1 17 36
M  V30 39 1 20 37
M  V30 40 1 21 38
M  V30 41 1 24 39
M  V30 42 1 25 40
M  V30 END BOND
M  V30 END CTAB
M  END
>  <Dataset>  (948) 
ChEMBL_Kinases

>  <Ligand_Instance>  (948) 
nan

>  <PDB_ID>  (948) 
nan

>  <Standardized_SMILES>  (948) 
Nc1ncc(-c2ccc(NCC(=O)O)nc2)cc1-c1ccc(Cl)cc1

>  <Name>  (948) 
nan

>  <Pocket>  (948) 
nan

>  <ATP_Site>  (948) 
nan

>  <Peripheral>  (948) 
nan

>  <Num_H_Atoms_ProtBoundConf>  (948) 
nan

>  <Num_Resolved_Atoms>  (948) 
nan

>  <Num_Not_Resolved_Atoms>  (948) 
nan

$$$$
CHEMBL4751092
     RDKit          3D

  0  0  0  0  0  0  0  0  0  0999 V3000
M  V30 BEGIN CTAB
M  V30 COUNTS 131 135 0 0 0
M  V30 BEGIN ATOM
M  V30 1 C 5.161417 1.877514 -4.103330 0
M  V30 2 C 5.605911 3.295351 -3.828530 0
M  V30 3 N 7.034837 3.364291 -4.139505 0
M  V30 4 C 7.729499 4.196030 -3.188410 0
M  V30 5 O 8.907830 4.602782 -3.312044 0
M  V30 6 N 6.789811 4.424713 -2.132325 0
M  V30 7 C 5.546572 3.674592 -2.370002 0
M  V30 8 C 4.383776 4.564425 -2.021548 0
M  V30 9 C 3.138206 3.830831 -2.379029 0
M  V30 10 C 1.851788 4.591865 -2.113813 0
M  V30 11 C 0.722809 3.716834 -2.577338 0
M  V30 12 C -0.642252 4.300330 -2.437404 0
M  V30 13 C -1.581897 3.274213 -3.013079 0
M  V30 14 O -1.037157 2.145693 -3.117124 0
M  V30 15 N -2.942321 3.530807 -3.416874 0
M  V30 16 C -3.631794 2.425609 -3.958332 0
M  V30 17 C -3.920108 1.289537 -3.039800 0
M  V30 18 O -4.747494 1.706271 -1.973278 0
M  V30 19 C -5.132184 0.526279 -1.332157 0
M  V30 20 C -6.147844 0.724322 -0.259366 0
M  V30 21 O -5.786669 1.510678 0.825620 0
M  V30 22 C -6.924984 1.733217 1.610757 0
M  V30 23 C -6.706200 2.405132 2.922767 0
M  V30 24 O -5.896377 1.661489 3.772949 0
M  V30 25 C -5.845628 2.300727 5.037386 0
M  V30 26 C -5.148712 1.382908 6.007288 0
M  V30 27 N -3.814089 1.025373 5.728709 0
M  V30 28 C -2.659578 1.846786 5.707271 0
M  V30 29 O -2.840484 3.078121 5.985504 0
M  V30 30 C -1.325287 1.225383 5.374062 0
M  V30 31 C -0.175559 1.989335 5.971413 0
M  V30 32 N 1.065586 1.447319 5.622131 0
M  V30 33 C 1.392993 1.623276 4.209180 0
M  V30 34 C 1.595624 0.281201 6.185376 0
M  V30 35 C 0.889575 -0.940532 5.767137 0
M  V30 36 C 0.286904 -1.874794 6.519456 0
M  V30 37 C -0.326979 -2.966726 5.721658 0
M  V30 38 O -0.178596 -2.866489 4.451359 0
M  V30 39 N -1.058598 -4.123565 6.068471 0
M  V30 40 C -1.297473 -4.614434 4.747001 0
M  V30 41 C -2.498017 -4.160301 4.260735 0
M  V30 42 C -2.961384 -4.442476 3.005621 0
M  V30 43 C -2.083231 -5.242096 2.268226 0
M  V30 44 C -0.861910 -5.699626 2.775306 0
M  V30 45 C -0.191737 -6.477551 1.748342 0
M  V30 46 O -0.248923 -5.846645 0.613121 0
M  V30 47 N 0.508323 -7.659627 1.442214 0
M  V30 48 C 0.748535 -7.467544 0.038668 0
M  V30 49 C -0.337459 -7.650587 -0.817683 0
M  V30 50 C -0.040233 -7.380593 -2.170901 0
M  V30 51 C 1.257893 -6.979906 -2.479237 0
M  V30 52 N 1.248851 -6.714245 -3.847544 0
M  V30 53 C 1.239387 -6.659956 -5.214510 0
M  V30 54 O 1.217134 -7.855625 -5.563109 0
M  V30 55 C 1.243737 -5.452067 -6.048968 0
M  V30 56 C 1.201885 -5.521862 -7.409095 0
M  V30 57 C 1.211449 -4.371090 -8.178543 0
M  V30 58 C 1.263177 -3.128154 -7.573422 0
M  V30 59 C 1.303819 -3.066812 -6.198781 0
M  V30 60 C 1.348805 -1.821314 -5.447735 0
M  V30 61 C 1.382241 -0.515442 -5.861697 0
M  V30 62 C 1.424261 0.317332 -4.764160 0
M  V30 63 N 1.416825 -0.517742 -3.692082 0
M  V30 64 N 1.372831 -1.782691 -4.087624 0
M  V30 65 N 1.291220 -4.205454 -5.542958 0
M  V30 66 C 2.298021 -6.816353 -1.603575 0
M  V30 67 C 2.043706 -7.069622 -0.274008 0
M  V30 68 C -0.430380 -5.399097 4.033032 0
M  V30 69 H 4.565788 1.449113 -3.288324 0
M  V30 70 H 4.539686 1.782509 -5.024617 0
M  V30 71 H 6.045170 1.222862 -4.272995 0
M  V30 72 H 5.041620 4.022156 -4.448531 0
M  V30 73 H 7.449955 2.847582 -4.968254 0
M  V30 74 H 7.064316 5.059639 -1.355235 0
M  V30 75 H 5.570740 2.792997 -1.740439 0
M  V30 76 H 4.446414 5.584860 -2.400771 0
M  V30 77 H 4.402429 4.656030 -0.893067 0
M  V30 78 H 3.082029 2.927462 -1.717961 0
M  V30 79 H 3.123922 3.435938 -3.426002 0
M  V30 80 H 1.904894 5.484646 -2.805119 0
M  V30 81 H 1.761383 4.940592 -1.089968 0
M  V30 82 H 0.755926 2.794152 -1.982434 0
M  V30 83 H 0.909559 3.500369 -3.651487 0
M  V30 84 H -0.910097 4.499161 -1.375418 0
M  V30 85 H -0.775622 5.227623 -3.013084 0
M  V30 86 H -3.252366 4.525048 -3.253115 0
M  V30 87 H -3.052634 1.959220 -4.828548 0
M  V30 88 H -4.585156 2.736839 -4.477561 0
M  V30 89 H -4.336533 0.430841 -3.575019 0
M  V30 90 H -2.950736 0.958001 -2.563054 0
M  V30 91 H -4.240479 0.024487 -0.901741 0
M  V30 92 H -5.535607 -0.131055 -2.134219 0
M  V30 93 H -6.508850 -0.283848 0.121278 0
M  V30 94 H -7.097983 1.187575 -0.650760 0
M  V30 95 H -7.451025 0.741150 1.769065 0
M  V30 96 H -7.684884 2.299788 0.980978 0
M  V30 97 H -7.660638 2.667261 3.390251 0
M  V30 98 H -6.173064 3.375534 2.696973 0
M  V30 99 H -6.896119 2.446454 5.382245 0
M  V30 100 H -5.390954 3.290205 4.961532 0
M  V30 101 H -5.230823 1.834347 7.061217 0
M  V30 102 H -5.800021 0.471192 6.113271 0
M  V30 103 H -3.631333 0.007768 5.498303 0
M  V30 104 H -1.239178 1.188853 4.247126 0
M  V30 105 H -1.317154 0.174089 5.694700 0
M  V30 106 H -0.239573 3.049778 5.566051 0
M  V30 107 H -0.312081 2.141269 7.071417 0
M  V30 108 H 0.812508 0.878913 3.621895 0
M  V30 109 H 2.463518 1.457488 4.064491 0
M  V30 110 H 1.067223 2.632648 3.862953 0
M  V30 111 H 2.697837 0.161049 6.034234 0
M  V30 112 H 1.476921 0.360807 7.305490 0
M  V30 113 H 0.992212 -0.879825 4.672671 0
M  V30 114 H 0.436622 -1.545329 7.523770 0
M  V30 115 H -1.133978 -4.167192 7.100650 0
M  V30 116 H -3.202652 -3.537657 4.836148 0
M  V30 117 H -3.903854 -4.094250 2.619857 0
M  V30 118 H -2.482289 -5.453506 1.262991 0
M  V30 119 H 0.601395 -8.214361 2.280508 0
M  V30 120 H -1.268339 -7.969378 -0.389581 0
M  V30 121 H -0.907337 -7.532757 -2.786347 0
M  V30 122 H 1.242125 -5.634118 -3.638521 0
M  V30 123 H 1.160476 -6.562069 -7.770601 0
M  V30 124 H 1.176981 -4.521565 -9.248265 0
M  V30 125 H 1.272188 -2.222634 -8.158683 0
M  V30 126 H 1.376751 -0.274413 -6.935336 0
M  V30 127 H 1.449605 1.396793 -4.867268 0
M  V30 128 H 1.362094 -2.551998 -3.367544 0
M  V30 129 H 3.240795 -6.499563 -2.000986 0
M  V30 130 H 2.816867 -6.966968 0.452820 0
M  V30 131 H 0.499103 -5.751031 4.399272 0
M  V30 END ATOM
M  V30 BEGIN BOND
M  V30 1 1 1 2
M  V30 2 1 2 3
M  V30 3 1 3 4
M  V30 4 2 4 5
M  V30 5 1 4 6
M  V30 6 1 6 7
M  V30 7 1 7 8
M  V30 8 1 8 9
M  V30 9 1 9 10
M  V30 10 1 10 11
M  V30 11 1 11 12
M  V30 12 1 12 13
M  V30 13 2 13 14
M  V30 14 1 13 15
M  V30 15 1 15 16
M  V30 16 1 16 17
M  V30 17 1 17 18
M  V30 18 1 18 19
M  V30 19 1 19 20
M  V30 20 1 20 21
M  V30 21 1 21 22
M  V30 22 1 22 23
M  V30 23 1 23 24
M  V30 24 1 24 25
M  V30 25 1 25 26
M  V30 26 1 26 27
M  V30 27 1 27 28
M  V30 28 2 28 29
M  V30 29 1 28 30
M  V30 30 1 30 31
M  V30 31 1 31 32
M  V30 32 1 32 33
M  V30 33 1 32 34
M  V30 34 1 34 35
M  V30 35 2 35 36
M  V30 36 1 36 37
M  V30 37 2 37 38
M  V30 38 1 37 39
M  V30 39 1 39 40
M  V30 40 2 40 41
M  V30 41 1 41 42
M  V30 42 2 42 43
M  V30 43 1 43 44
M  V30 44 1 44 45
M  V30 45 2 45 46
M  V30 46 1 45 47
M  V30 47 1 47 48
M  V30 48 2 48 49
M  V30 49 1 49 50
M  V30 50 2 50 51
M  V30 51 1 51 52
M  V30 52 1 52 53
M  V30 53 2 53 54
M  V30 54 1 53 55
M  V30 55 2 55 56
M  V30 56 1 56 57
M  V30 57 2 57 58
M  V30 58 1 58 59
M  V30 59 1 59 60
M  V30 60 2 60 61
M  V30 61 1 61 62
M  V30 62 2 62 63
M  V30 63 1 63 64
M  V30 64 2 59 65
M  V30 65 1 51 66
M  V30 66 2 66 67
M  V30 67 2 44 68
M  V30 68 1 7 2
M  V30 69 1 68 40
M  V30 70 1 67 48
M  V30 71 1 65 55
M  V30 72 1 64 60
M  V30 73 1 1 69
M  V30 74 1 1 70
M  V30 75 1 1 71
M  V30 76 1 2 72
M  V30 77 1 3 73
M  V30 78 1 6 74
M  V30 79 1 7 75
M  V30 80 1 8 76
M  V30 81 1 8 77
M  V30 82 1 9 78
M  V30 83 1 9 79
M  V30 84 1 10 80
M  V30 85 1 10 81
M  V30 86 1 11 82
M  V30 87 1 11 83
M  V30 88 1 12 84
M  V30 89 1 12 85
M  V30 90 1 15 86
M  V30 91 1 16 87
M  V30 92 1 16 88
M  V30 93 1 17 89
M  V30 94 1 17 90
M  V30 95 1 19 91
M  V30 96 1 19 92
M  V30 97 1 20 93
M  V30 98 1 20 94
M  V30 99 1 22 95
M  V30 100 1 22 96
M  V30 101 1 23 97
M  V30 102 1 23 98
M  V30 103 1 25 99
M  V30 104 1 25 100
M  V30 105 1 26 101
M  V30 106 1 26 102
M  V30 107 1 27 103
M  V30 108 1 30 104
M  V30 109 1 30 105
M  V30 110 1 31 106
M  V30 111 1 31 107
M  V30 112 1 33 108
M  V30 113 1 33 109
M  V30 114 1 33 110
M  V30 115 1 34 111
M  V30 116 1 34 112
M  V30 117 1 35 113
M  V30 118 1 36 114
M  V30 119 1 39 115
M  V30 120 1 41 116
M  V30 121 1 42 117
M  V30 122 1 43 118
M  V30 123 1 47 119
M  V30 124 1 49 120
M  V30 125 1 50 121
M  V30 126 1 52 122
M  V30 127 1 56 123
M  V30 128 1 57 124
M  V30 129 1 58 125
M  V30 130 1 61 126
M  V30 131 1 62 127
M  V30 132 1 64 128
M  V30 133 1 66 129
M  V30 134 1 67 130
M  V30 135 1 68 131
M  V30 END BOND
M  V30 END CTAB
M  END
>  <Dataset>  (949) 
ChEMBL_Kinases

>  <Ligand_Instance>  (949) 
nan

>  <PDB_ID>  (949) 
nan

>  <Standardized_SMILES>  (949) 
CC1NC(=O)NC1CCCCCC(=O)NCCOCCOCCOCCNC(=O)CCN(C)C/C=C/C(=O)Nc1cccc(C(=O)Nc2ccc(NC(=O)c3cccc(-c4ccn[nH]4)n3)cc2)c1

>  <Name>  (949) 
nan

>  <Pocket>  (949) 
nan

>  <ATP_Site>  (949) 
nan

>  <Peripheral>  (949) 
nan

>  <Num_H_Atoms_ProtBoundConf>  (949) 
nan

>  <Num_Resolved_Atoms>  (949) 
nan

>  <Num_Not_Resolved_Atoms>  (949) 
nan

$$$$
CHEMBL4444893
     RDKit          3D

  0  0  0  0  0  0  0  0  0  0999 V3000
M  V30 BEGIN CTAB
M  V30 COUNTS 53 56 0 0 0
M  V30 BEGIN ATOM
M  V30 1 O -0.728031 -2.359631 3.624893 0
M  V30 2 C -0.499604 -1.137804 3.400208 0
M  V30 3 C 0.764947 -0.794140 4.055772 0
M  V30 4 O 1.184797 0.520430 3.914442 0
M  V30 5 C 1.489832 1.209052 2.776225 0
M  V30 6 C 1.496158 0.873847 1.437706 0
M  V30 7 C 1.857937 1.793933 0.477525 0
M  V30 8 C 2.225818 3.072899 0.793177 0
M  V30 9 C 2.576190 3.938652 -0.231689 0
M  V30 10 O 2.560578 3.569457 -1.429937 0
M  V30 11 C 2.946425 5.226111 0.087311 0
M  V30 12 C 2.925939 5.517020 1.432275 0
M  V30 13 O 2.589360 4.672708 2.369085 0
M  V30 14 C 2.229396 3.437846 2.122401 0
M  V30 15 C 1.865362 2.517667 3.109737 0
M  V30 16 N -1.452617 -0.428159 2.620460 0
M  V30 17 C -2.505862 -1.299017 2.245866 0
M  V30 18 C -3.591639 -1.389732 3.090107 0
M  V30 19 C -4.660265 -2.212365 2.803844 0
M  V30 20 C -4.594188 -2.939332 1.636880 0
M  V30 21 C -3.531772 -2.904504 0.729102 0
M  V30 22 N -3.551331 -3.704210 -0.441276 0
M  V30 23 S -2.400851 -4.759416 -1.170110 0
M  V30 24 O -2.069622 -5.919252 -0.273652 0
M  V30 25 O -3.012836 -5.264758 -2.451992 0
M  V30 26 C -0.967729 -3.864814 -1.610832 0
M  V30 27 C -0.926863 -3.230311 -2.849021 0
M  V30 28 C 0.113842 -2.492035 -3.371905 0
M  V30 29 C 1.227990 -2.380351 -2.566855 0
M  V30 30 C 2.418395 -1.611817 -3.015800 0
M  V30 31 F 2.222088 -1.047370 -4.257993 0
M  V30 32 F 2.646800 -0.562154 -2.149453 0
M  V30 33 F 3.535693 -2.419442 -3.117264 0
M  V30 34 C 1.260353 -2.982099 -1.326600 0
M  V30 35 C 0.193880 -3.711608 -0.845123 0
M  V30 36 C -2.510675 -2.056566 1.096395 0
M  V30 37 H 1.592733 -1.490604 3.739756 0
M  V30 38 H 0.664017 -0.997643 5.156107 0
M  V30 39 H 1.189796 -0.156662 1.305577 0
M  V30 40 H 1.832142 1.441448 -0.537051 0
M  V30 41 H 3.233461 5.961766 -0.652497 0
M  V30 42 H 3.215031 6.534200 1.725810 0
M  V30 43 H 1.922647 2.965355 4.094112 0
M  V30 44 H -1.143323 0.574250 2.514729 0
M  V30 45 H -3.639042 -0.816557 4.006118 0
M  V30 46 H -5.536213 -2.317248 3.436644 0
M  V30 47 H -5.427873 -3.601170 1.382880 0
M  V30 48 H -4.505819 -3.555456 -0.894864 0
M  V30 49 H -1.808683 -3.317597 -3.488550 0
M  V30 50 H 0.047802 -2.041121 -4.339493 0
M  V30 51 H 2.131943 -2.901478 -0.683013 0
M  V30 52 H 0.153035 -4.211321 0.122089 0
M  V30 53 H -1.663484 -1.962880 0.465338 0
M  V30 END ATOM
M  V30 BEGIN BOND
M  V30 1 2 1 2
M  V30 2 1 2 3
M  V30 3 1 3 4
M  V30 4 1 4 5
M  V30 5 2 5 6
M  V30 6 1 6 7
M  V30 7 2 7 8
M  V30 8 1 8 9
M  V30 9 2 9 10
M  V30 10 1 9 11
M  V30 11 2 11 12
M  V30 12 1 12 13
M  V30 13 1 13 14
M  V30 14 2 14 15
M  V30 15 1 2 16
M  V30 16 1 16 17
M  V30 17 2 17 18
M  V30 18 1 18 19
M  V30 19 2 19 20
M  V30 20 1 20 21
M  V30 21 1 21 22
M  V30 22 1 22 23
M  V30 23 2 23 24
M  V30 24 2 23 25
M  V30 25 1 23 26
M  V30 26 2 26 27
M  V30 27 1 27 28
M  V30 28 2 28 29
M  V30 29 1 29 30
M  V30 30 1 30 31
M  V30 31 1 30 32
M  V30 32 1 30 33
M  V30 33 1 29 34
M  V30 34 2 34 35
M  V30 35 2 21 36
M  V30 36 1 15 5
M  V30 37 1 36 17
M  V30 38 1 14 8
M  V30 39 1 35 26
M  V30 40 1 3 37
M  V30 41 1 3 38
M  V30 42 1 6 39
M  V30 43 1 7 40
M  V30 44 1 11 41
M  V30 45 1 12 42
M  V30 46 1 15 43
M  V30 47 1 16 44
M  V30 48 1 18 45
M  V30 49 1 19 46
M  V30 50 1 20 47
M  V30 51 1 22 48
M  V30 52 1 27 49
M  V30 53 1 28 50
M  V30 54 1 34 51
M  V30 55 1 35 52
M  V30 56 1 36 53
M  V30 END BOND
M  V30 END CTAB
M  END
>  <Dataset>  (950) 
ChEMBL_Kinases

>  <Ligand_Instance>  (950) 
nan

>  <PDB_ID>  (950) 
nan

>  <Standardized_SMILES>  (950) 
O=C(COc1ccc2c(=O)ccoc2c1)Nc1cccc(NS(=O)(=O)c2ccc(C(F)(F)F)cc2)c1

>  <Name>  (950) 
nan

>  <Pocket>  (950) 
nan

>  <ATP_Site>  (950) 
nan

>  <Peripheral>  (950) 
nan

>  <Num_H_Atoms_ProtBoundConf>  (950) 
nan

>  <Num_Resolved_Atoms>  (950) 
nan

>  <Num_Not_Resolved_Atoms>  (950) 
nan

$$$$
CHEMBL4445650
     RDKit          3D

  0  0  0  0  0  0  0  0  0  0999 V3000
M  V30 BEGIN CTAB
M  V30 COUNTS 100 103 0 0 0
M  V30 BEGIN ATOM
M  V30 1 O 0.947332 -2.120120 4.156879 0
M  V30 2 C 0.610192 -1.069407 4.728325 0
M  V30 3 C 1.656157 -0.842819 5.727298 0
M  V30 4 C 2.960571 -1.531754 5.303850 0
M  V30 5 N 3.419697 -0.969290 4.036724 0
M  V30 6 C 3.767624 0.415230 3.881377 0
M  V30 7 O 3.657481 1.086713 4.931648 0
M  V30 8 C 4.212452 1.057441 2.654206 0
M  V30 9 C 4.432844 0.507254 1.422190 0
M  V30 10 C 4.849603 1.201321 0.307960 0
M  V30 11 C 5.073356 2.542452 0.382728 0
M  V30 12 C 5.512694 3.418233 -0.709297 0
M  V30 13 O 4.431749 3.924797 -1.456708 0
M  V30 14 C 4.858000 3.106039 1.615675 0
M  V30 15 C 4.448534 2.470266 2.749646 0
M  V30 16 N -0.537066 -0.356623 4.386900 0
M  V30 17 C -1.616441 -0.543086 3.403167 0 CFG=1
M  V30 18 C -1.907889 0.790441 2.883697 0
M  V30 19 C -2.867197 1.029190 1.831579 0
M  V30 20 C -4.263286 1.177345 1.929425 0
M  V30 21 N -4.670084 1.352435 0.658572 0
M  V30 22 N -3.620948 1.312748 -0.114377 0
M  V30 23 N -2.494065 1.124788 0.503803 0
M  V30 24 C -1.262814 1.128206 -0.224536 0
M  V30 25 C -0.701029 -0.137961 -0.739748 0
M  V30 26 C 0.628251 0.162650 -1.398059 0
M  V30 27 C 0.673189 1.013126 -2.573282 0
M  V30 28 C 0.039174 0.428233 -3.841748 0
M  V30 29 C 0.189853 1.414719 -4.960129 0
M  V30 30 C -0.584867 2.669583 -4.882946 0
M  V30 31 C -2.031645 2.620396 -5.159850 0
M  V30 32 C -2.948718 1.729257 -4.517075 0
M  V30 33 C -3.053913 0.564548 -5.288343 0
M  V30 34 C -3.701305 -0.631166 -5.354082 0
M  V30 35 C -4.540982 -0.539760 -4.150914 0
M  V30 36 C -4.615067 0.533348 -3.209022 0
M  V30 37 C -3.792952 1.653699 -3.438222 0
M  V30 38 C -1.385926 -1.658723 2.482679 0
M  V30 39 O -0.531930 -2.559034 2.148367 0
M  V30 40 N -2.414555 -1.972703 1.570964 0
M  V30 41 C -2.651981 -2.914926 0.560599 0
M  V30 42 C -2.707255 -4.329738 0.949422 0
M  V30 43 C -3.898475 -4.680907 1.600115 0
M  V30 44 N -3.849691 -5.998887 1.887932 0
M  V30 45 N -2.685496 -6.468972 1.442821 0
M  V30 46 N -2.021501 -5.468278 0.889375 0
M  V30 47 C -0.714534 -5.501825 0.220339 0
M  V30 48 C -0.932553 -5.878887 -1.257537 0
M  V30 49 P 0.587470 -5.996113 -2.192298 0
M  V30 50 O 1.691099 -5.300299 -1.472712 0
M  V30 51 O 1.022293 -7.634255 -2.352803 0
M  V30 52 O 0.367045 -5.375704 -3.754085 0
M  V30 53 H 1.360517 -1.383223 6.672835 0
M  V30 54 H 1.892163 0.201971 5.963282 0
M  V30 55 H 2.760896 -2.604180 5.155660 0
M  V30 56 H 3.690542 -1.333520 6.076071 0
M  V30 57 H 3.514306 -1.559789 3.171461 0
M  V30 58 H 4.244343 -0.568580 1.381664 0
M  V30 59 H 5.007607 0.704733 -0.638858 0
M  V30 60 H 6.218851 2.978127 -1.412254 0
M  V30 61 H 6.054674 4.294131 -0.256159 0
M  V30 62 H 3.738383 4.192136 -0.805536 0
M  V30 63 H 5.025090 4.185935 1.737340 0
M  V30 64 H 4.309427 3.002605 3.694893 0
M  V30 65 H -0.629175 0.492506 4.987884 0
M  V30 66 H -2.479371 -0.938428 4.056723 0
M  V30 67 H -0.891741 1.243652 2.580339 0
M  V30 68 H -2.125649 1.453815 3.803322 0
M  V30 69 H -4.760582 1.129425 2.897593 0
M  V30 70 H -1.292973 1.936428 -1.016223 0
M  V30 71 H -0.463369 1.551046 0.474650 0
M  V30 72 H -1.384005 -0.697664 -1.417199 0
M  V30 73 H -0.446647 -0.810988 0.092287 0
M  V30 74 H 1.056076 -0.855370 -1.690141 0
M  V30 75 H 1.317202 0.463489 -0.563800 0
M  V30 76 H 0.243271 2.024936 -2.467341 0
M  V30 77 H 1.761658 1.210238 -2.817687 0
M  V30 78 H -0.944096 0.111694 -3.563583 0
M  V30 79 H 0.632990 -0.461146 -4.119775 0
M  V30 80 H 0.032804 0.954104 -5.960426 0
M  V30 81 H 1.285319 1.702045 -4.967992 0
M  V30 82 H -0.368852 3.262173 -3.949902 0
M  V30 83 H -0.141639 3.350348 -5.683433 0
M  V30 84 H -2.407721 3.680915 -4.835618 0
M  V30 85 H -2.199912 2.707965 -6.277613 0
M  V30 86 H -2.497677 0.307204 -6.237030 0
M  V30 87 H -4.215048 -1.575700 -5.402830 0
M  V30 88 H -5.312856 -1.149490 -3.580577 0
M  V30 89 H -5.173948 0.780222 -2.295063 0
M  V30 90 H -3.660814 2.576061 -2.889994 0
M  V30 91 H -3.296242 -1.366386 1.626121 0
M  V30 92 H -1.774538 -2.801898 -0.173232 0
M  V30 93 H -3.520167 -2.671827 -0.072294 0
M  V30 94 H -4.795264 -4.195669 1.914038 0
M  V30 95 H -0.173131 -4.547715 0.280754 0
M  V30 96 H -0.158613 -6.360058 0.656273 0
M  V30 97 H -1.457230 -6.868887 -1.309690 0
M  V30 98 H -1.628860 -5.167899 -1.749501 0
M  V30 99 H 0.191147 -8.144972 -2.263896 0
M  V30 100 H -0.583431 -5.375429 -3.985281 0
M  V30 END ATOM
M  V30 BEGIN BOND
M  V30 1 2 1 2
M  V30 2 1 2 3
M  V30 3 1 3 4
M  V30 4 1 4 5
M  V30 5 1 5 6
M  V30 6 2 6 7
M  V30 7 1 6 8
M  V30 8 2 8 9
M  V30 9 1 9 10
M  V30 10 2 10 11
M  V30 11 1 11 12
M  V30 12 1 12 13
M  V30 13 1 11 14
M  V30 14 2 14 15
M  V30 15 1 2 16
M  V30 16 1 16 17
M  V30 17 1 17 18
M  V30 18 1 18 19
M  V30 19 2 19 20
M  V30 20 1 20 21
M  V30 21 2 21 22
M  V30 22 1 22 23
M  V30 23 1 23 24
M  V30 24 1 24 25
M  V30 25 1 25 26
M  V30 26 1 26 27
M  V30 27 1 27 28
M  V30 28 1 28 29
M  V30 29 1 29 30
M  V30 30 1 30 31
M  V30 31 1 31 32
M  V30 32 2 32 33
M  V30 33 1 33 34
M  V30 34 2 34 35
M  V30 35 1 35 36
M  V30 36 2 36 37
M  V30 37 1 17 38
M  V30 38 2 38 39
M  V30 39 1 38 40
M  V30 40 1 40 41
M  V30 41 1 41 42
M  V30 42 2 42 43
M  V30 43 1 43 44
M  V30 44 2 44 45
M  V30 45 1 45 46
M  V30 46 1 46 47
M  V30 47 1 47 48
M  V30 48 1 48 49
M  V30 49 2 49 50
M  V30 50 1 49 51
M  V30 51 1 49 52
M  V30 52 1 15 8
M  V30 53 1 23 19
M  V30 54 1 37 32
M  V30 55 1 46 42
M  V30 56 1 3 53
M  V30 57 1 3 54
M  V30 58 1 4 55
M  V30 59 1 4 56
M  V30 60 1 5 57
M  V30 61 1 9 58
M  V30 62 1 10 59
M  V30 63 1 12 60
M  V30 64 1 12 61
M  V30 65 1 13 62
M  V30 66 1 14 63
M  V30 67 1 15 64
M  V30 68 1 16 65
M  V30 69 1 17 66 CFG=1
M  V30 70 1 18 67
M  V30 71 1 18 68
M  V30 72 1 20 69
M  V30 73 1 24 70
M  V30 74 1 24 71
M  V30 75 1 25 72
M  V30 76 1 25 73
M  V30 77 1 26 74
M  V30 78 1 26 75
M  V30 79 1 27 76
M  V30 80 1 27 77
M  V30 81 1 28 78
M  V30 82 1 28 79
M  V30 83 1 29 80
M  V30 84 1 29 81
M  V30 85 1 30 82
M  V30 86 1 30 83
M  V30 87 1 31 84
M  V30 88 1 31 85
M  V30 89 1 33 86
M  V30 90 1 34 87
M  V30 91 1 35 88
M  V30 92 1 36 89
M  V30 93 1 37 90
M  V30 94 1 40 91
M  V30 95 1 41 92
M  V30 96 1 41 93
M  V30 97 1 43 94
M  V30 98 1 47 95
M  V30 99 1 47 96
M  V30 100 1 48 97
M  V30 101 1 48 98
M  V30 102 1 51 99
M  V30 103 1 52 100
M  V30 END BOND
M  V30 END CTAB
M  END
>  <Dataset>  (951) 
ChEMBL_Kinases

>  <Ligand_Instance>  (951) 
nan

>  <PDB_ID>  (951) 
nan

>  <Standardized_SMILES>  (951) 
O=C(CCNC(=O)c1ccc(CO)cc1)N[C@@H](Cc1cnnn1CCCCCCCCc1ccccc1)C(=O)NCc1cnnn1CCP(=O)(O)O

>  <Name>  (951) 
nan

>  <Pocket>  (951) 
nan

>  <ATP_Site>  (951) 
nan

>  <Peripheral>  (951) 
nan

>  <Num_H_Atoms_ProtBoundConf>  (951) 
nan

>  <Num_Resolved_Atoms>  (951) 
nan

>  <Num_Not_Resolved_Atoms>  (951) 
nan

$$$$
CHEMBL4750284
     RDKit          3D

  0  0  0  0  0  0  0  0  0  0999 V3000
M  V30 BEGIN CTAB
M  V30 COUNTS 79 83 0 0 0
M  V30 BEGIN ATOM
M  V30 1 C 9.095554 1.514626 5.112551 0
M  V30 2 N 7.960873 1.628757 4.196661 0
M  V30 3 C 7.375617 0.421717 3.761104 0
M  V30 4 O 7.801332 -0.701283 4.136799 0
M  V30 5 C 6.223017 0.614078 2.827673 0
M  V30 6 S 5.429802 2.203453 2.143140 0
M  V30 7 C 4.208173 1.225113 1.186026 0
M  V30 8 C 3.185665 2.000913 0.339620 0
M  V30 9 C 3.175143 3.355325 0.291147 0
M  V30 10 C 2.211287 3.946604 -0.501979 0
M  V30 11 N 1.322012 3.170044 -1.194298 0
M  V30 12 C 1.392829 1.832379 -1.097828 0
M  V30 13 N 0.474072 0.976785 -1.811269 0
M  V30 14 C -0.626990 0.748818 -0.982442 0
M  V30 15 O -0.504999 1.347445 0.148561 0
M  V30 16 C -1.893587 -0.007853 -1.078485 0
M  V30 17 N -2.170041 -0.685182 -2.261032 0
M  V30 18 C -2.485858 -0.049023 -3.453535 0
M  V30 19 C -3.808025 0.662435 -3.512788 0
M  V30 20 N -4.935442 -0.212457 -3.280476 0
M  V30 21 C -5.411678 -1.056210 -2.263820 0
M  V30 22 C -6.231297 -0.375913 -1.353162 0
M  V30 23 C -6.809597 -1.030907 -0.262142 0
M  V30 24 N -6.575887 -2.348971 -0.078169 0
M  V30 25 C -5.796841 -3.011111 -0.938356 0
M  V30 26 C -5.521474 -4.357364 -0.811273 0
M  V30 27 C -4.708679 -5.021622 -1.727651 0
M  V30 28 C -4.138635 -4.353006 -2.813210 0
M  V30 29 C -4.410255 -3.006519 -2.945306 0
M  V30 30 C -5.211887 -2.398642 -2.022442 0
M  V30 31 C -7.681567 -0.246242 0.681557 0
M  V30 32 C -6.991552 1.031615 1.093096 0
M  V30 33 C -6.377263 1.763671 -0.079331 0
M  V30 34 C -6.606783 1.064764 -1.383231 0
M  V30 35 C 2.331834 1.164901 -0.322664 0
M  V30 36 N 4.457941 0.131130 1.418416 0
M  V30 37 C 5.406385 -0.342941 2.196351 0
M  V30 38 O 5.715559 -1.685784 2.483616 0
M  V30 39 C 4.965892 -2.726800 1.907609 0
M  V30 40 C 5.438194 -4.089649 2.327707 0
M  V30 41 C 6.874012 -4.347499 1.944276 0
M  V30 42 C 4.585329 -5.150252 1.635463 0
M  V30 43 H 8.725537 1.292383 6.151557 0
M  V30 44 H 9.708531 0.660863 4.805327 0
M  V30 45 H 9.628274 2.478701 5.162199 0
M  V30 46 H 7.636505 2.591468 3.907240 0
M  V30 47 H 3.901724 3.917407 0.858588 0
M  V30 48 H 2.166816 5.044002 -0.570372 0
M  V30 49 H 0.388041 0.486679 -2.727340 0
M  V30 50 H -1.809825 -0.794867 -0.263745 0
M  V30 51 H -2.704386 0.646542 -0.686958 0
M  V30 52 H -1.909832 -1.691436 -2.305885 0
M  V30 53 H -1.700871 0.718865 -3.721042 0
M  V30 54 H -2.447811 -0.759563 -4.303049 0
M  V30 55 H -3.841462 1.572397 -2.880149 0
M  V30 56 H -3.928717 1.029408 -4.554648 0
M  V30 57 H -5.714749 -0.371482 -3.985911 0
M  V30 58 H -5.936179 -4.934464 0.014002 0
M  V30 59 H -4.512732 -6.075387 -1.599546 0
M  V30 60 H -3.515566 -4.873572 -3.512097 0
M  V30 61 H -3.974512 -2.497346 -3.784938 0
M  V30 62 H -7.822468 -0.882623 1.577860 0
M  V30 63 H -8.650666 -0.066626 0.197207 0
M  V30 64 H -7.715604 1.642938 1.657147 0
M  V30 65 H -6.161131 0.773203 1.778806 0
M  V30 66 H -6.931175 2.742845 -0.153973 0
M  V30 67 H -5.312156 2.026089 0.090404 0
M  V30 68 H -6.142617 1.636556 -2.185401 0
M  V30 69 H -7.719898 1.100519 -1.568316 0
M  V30 70 H 2.358428 0.084224 -0.270050 0
M  V30 71 H 4.985597 -2.673798 0.797511 0
M  V30 72 H 3.877354 -2.676464 2.175821 0
M  V30 73 H 5.341774 -4.266749 3.415993 0
M  V30 74 H 6.907621 -4.458348 0.825669 0
M  V30 75 H 7.199825 -5.319040 2.361026 0
M  V30 76 H 7.550240 -3.504135 2.192925 0
M  V30 77 H 4.508025 -4.898378 0.555054 0
M  V30 78 H 4.995037 -6.161217 1.743956 0
M  V30 79 H 3.561301 -5.115217 2.052447 0
M  V30 END ATOM
M  V30 BEGIN BOND
M  V30 1 1 1 2
M  V30 2 1 2 3
M  V30 3 2 3 4
M  V30 4 1 3 5
M  V30 5 1 5 6
M  V30 6 1 6 7
M  V30 7 1 7 8
M  V30 8 2 8 9
M  V30 9 1 9 10
M  V30 10 2 10 11
M  V30 11 1 11 12
M  V30 12 1 12 13
M  V30 13 1 13 14
M  V30 14 2 14 15
M  V30 15 1 14 16
M  V30 16 1 16 17
M  V30 17 1 17 18
M  V30 18 1 18 19
M  V30 19 1 19 20
M  V30 20 1 20 21
M  V30 21 2 21 22
M  V30 22 1 22 23
M  V30 23 2 23 24
M  V30 24 1 24 25
M  V30 25 2 25 26
M  V30 26 1 26 27
M  V30 27 2 27 28
M  V30 28 1 28 29
M  V30 29 2 29 30
M  V30 30 1 23 31
M  V30 31 1 31 32
M  V30 32 1 32 33
M  V30 33 1 33 34
M  V30 34 2 12 35
M  V30 35 2 7 36
M  V30 36 1 36 37
M  V30 37 1 37 38
M  V30 38 1 38 39
M  V30 39 1 39 40
M  V30 40 1 40 41
M  V30 41 1 40 42
M  V30 42 2 37 5
M  V30 43 1 35 8
M  V30 44 1 30 21
M  V30 45 1 34 22
M  V30 46 1 30 25
M  V30 47 1 1 43
M  V30 48 1 1 44
M  V30 49 1 1 45
M  V30 50 1 2 46
M  V30 51 1 9 47
M  V30 52 1 10 48
M  V30 53 1 13 49
M  V30 54 1 16 50
M  V30 55 1 16 51
M  V30 56 1 17 52
M  V30 57 1 18 53
M  V30 58 1 18 54
M  V30 59 1 19 55
M  V30 60 1 19 56
M  V30 61 1 20 57
M  V30 62 1 26 58
M  V30 63 1 27 59
M  V30 64 1 28 60
M  V30 65 1 29 61
M  V30 66 1 31 62
M  V30 67 1 31 63
M  V30 68 1 32 64
M  V30 69 1 32 65
M  V30 70 1 33 66
M  V30 71 1 33 67
M  V30 72 1 34 68
M  V30 73 1 34 69
M  V30 74 1 35 70
M  V30 75 1 39 71
M  V30 76 1 39 72
M  V30 77 1 40 73
M  V30 78 1 41 74
M  V30 79 1 41 75
M  V30 80 1 41 76
M  V30 81 1 42 77
M  V30 82 1 42 78
M  V30 83 1 42 79
M  V30 END BOND
M  V30 END CTAB
M  END
>  <Dataset>  (952) 
ChEMBL_Kinases

>  <Ligand_Instance>  (952) 
nan

>  <PDB_ID>  (952) 
nan

>  <Standardized_SMILES>  (952) 
CNC(=O)c1sc(-c2ccnc(NC(=O)CNCCNc3c4c(nc5ccccc35)CCCC4)c2)nc1OCC(C)C

>  <Name>  (952) 
nan

>  <Pocket>  (952) 
nan

>  <ATP_Site>  (952) 
nan

>  <Peripheral>  (952) 
nan

>  <Num_H_Atoms_ProtBoundConf>  (952) 
nan

>  <Num_Resolved_Atoms>  (952) 
nan

>  <Num_Not_Resolved_Atoms>  (952) 
nan

$$$$
CHEMBL4750372
     RDKit          3D

  0  0  0  0  0  0  0  0  0  0999 V3000
M  V30 BEGIN CTAB
M  V30 COUNTS 56 59 0 0 0
M  V30 BEGIN ATOM
M  V30 1 C 2.947386 -3.591547 4.376338 0
M  V30 2 C 3.894342 -2.626663 3.747413 0
M  V30 3 O 5.052496 -3.160340 3.685761 0
M  V30 4 N 3.499417 -1.321887 3.304701 0
M  V30 5 C 4.440580 -0.394472 2.692405 0 CFG=2
M  V30 6 C 4.478256 0.937417 3.392680 0
M  V30 7 C 3.095504 1.487836 3.505123 0
M  V30 8 C 2.290949 1.387394 2.255440 0
M  V30 9 C 3.096435 0.988663 1.067298 0 CFG=2
M  V30 10 C 2.176621 0.578208 -0.051613 0
M  V30 11 O 2.184293 -0.583485 -0.585033 0
M  V30 12 N 1.184569 1.427680 -0.656326 0
M  V30 13 C 0.534772 0.660933 -1.668681 0
M  V30 14 C -0.585331 -0.047021 -1.222103 0
M  V30 15 C -1.288593 -0.826870 -2.140703 0
M  V30 16 C -2.463359 -1.557113 -1.625225 0
M  V30 17 C -2.190792 -2.836834 -1.144341 0
M  V30 18 N -3.364743 -3.339492 -0.723166 0
M  V30 19 N -4.337556 -2.464231 -0.909470 0
M  V30 20 C -3.821028 -1.352294 -1.463990 0
M  V30 21 C -4.479534 -0.084229 -1.870230 0
M  V30 22 C -5.934629 -0.166065 -1.431671 0
M  V30 23 C -6.408445 -1.574938 -1.697158 0
M  V30 24 C -5.763410 -2.480958 -0.644034 0
M  V30 25 O -6.082772 -1.967933 0.600935 0
M  V30 26 C -0.856419 -0.873346 -3.455948 0
M  V30 27 Cl -1.776388 -1.872211 -4.582889 0
M  V30 28 C 0.252485 -0.160228 -3.854090 0
M  V30 29 N 0.939689 0.598707 -2.967228 0
M  V30 30 C 4.015651 -0.172015 1.274234 0
M  V30 31 H 1.889521 -3.260761 4.269562 0
M  V30 32 H 3.037371 -4.615292 3.930801 0
M  V30 33 H 3.206301 -3.703619 5.448494 0
M  V30 34 H 2.503070 -1.080698 3.447908 0
M  V30 35 H 5.446949 -0.873807 2.645801 0
M  V30 36 H 5.087129 1.611602 2.743725 0
M  V30 37 H 4.909495 0.805681 4.408532 0
M  V30 38 H 3.205151 2.545787 3.878409 0
M  V30 39 H 2.580403 0.926753 4.338468 0
M  V30 40 H 1.381205 0.777784 2.430894 0
M  V30 41 H 1.908445 2.423145 2.039052 0
M  V30 42 H 3.662310 1.868813 0.707939 0
M  V30 43 H 1.123342 2.411655 -0.259943 0
M  V30 44 H -0.923741 -0.010966 -0.193752 0
M  V30 45 H -1.310281 -3.483312 -1.035978 0
M  V30 46 H -4.031806 0.805792 -1.383140 0
M  V30 47 H -4.398455 0.095228 -2.964866 0
M  V30 48 H -6.560427 0.606533 -1.877909 0
M  V30 49 H -5.898367 -0.065071 -0.313097 0
M  V30 50 H -5.987438 -1.871076 -2.682604 0
M  V30 51 H -7.489688 -1.701942 -1.727448 0
M  V30 52 H -6.207926 -3.477842 -0.782940 0
M  V30 53 H -6.292909 -2.745566 1.206114 0
M  V30 54 H 0.582477 -0.205797 -4.895098 0
M  V30 55 H 4.917077 -0.061059 0.612906 0
M  V30 56 H 3.553856 -1.140496 0.922586 0
M  V30 END ATOM
M  V30 BEGIN BOND
M  V30 1 1 1 2
M  V30 2 2 2 3
M  V30 3 1 2 4
M  V30 4 1 4 5
M  V30 5 1 5 6
M  V30 6 1 6 7
M  V30 7 1 7 8
M  V30 8 1 8 9
M  V30 9 1 9 10
M  V30 10 2 10 11
M  V30 11 1 10 12
M  V30 12 1 12 13
M  V30 13 2 13 14
M  V30 14 1 14 15
M  V30 15 1 15 16
M  V30 16 1 16 17
M  V30 17 2 17 18
M  V30 18 1 18 19
M  V30 19 1 19 20
M  V30 20 1 20 21
M  V30 21 1 21 22
M  V30 22 1 22 23
M  V30 23 1 23 24
M  V30 24 1 24 25
M  V30 25 2 15 26
M  V30 26 1 26 27
M  V30 27 1 26 28
M  V30 28 2 28 29
M  V30 29 1 9 30
M  V30 30 1 30 5
M  V30 31 1 29 13
M  V30 32 2 20 16
M  V30 33 1 24 19
M  V30 34 1 1 31
M  V30 35 1 1 32
M  V30 36 1 1 33
M  V30 37 1 4 34
M  V30 38 1 5 35 CFG=3
M  V30 39 1 6 36
M  V30 40 1 6 37
M  V30 41 1 7 38
M  V30 42 1 7 39
M  V30 43 1 8 40
M  V30 44 1 8 41
M  V30 45 1 9 42 CFG=3
M  V30 46 1 12 43
M  V30 47 1 14 44
M  V30 48 1 17 45
M  V30 49 1 21 46
M  V30 50 1 21 47
M  V30 51 1 22 48
M  V30 52 1 22 49
M  V30 53 1 23 50
M  V30 54 1 23 51
M  V30 55 1 24 52
M  V30 56 1 25 53
M  V30 57 1 28 54
M  V30 58 1 30 55
M  V30 59 1 30 56
M  V30 END BOND
M  V30 END CTAB
M  END
>  <Dataset>  (953) 
ChEMBL_Kinases

>  <Ligand_Instance>  (953) 
nan

>  <PDB_ID>  (953) 
nan

>  <Standardized_SMILES>  (953) 
CC(=O)N[C@@H]1CCC[C@H](C(=O)Nc2cc(-c3cnn4c3CCCC4O)c(Cl)cn2)C1

>  <Name>  (953) 
nan

>  <Pocket>  (953) 
nan

>  <ATP_Site>  (953) 
nan

>  <Peripheral>  (953) 
nan

>  <Num_H_Atoms_ProtBoundConf>  (953) 
nan

>  <Num_Resolved_Atoms>  (953) 
nan

>  <Num_Not_Resolved_Atoms>  (953) 
nan

$$$$
CHEMBL4750380
     RDKit          3D

  0  0  0  0  0  0  0  0  0  0999 V3000
M  V30 BEGIN CTAB
M  V30 COUNTS 40 42 0 0 0
M  V30 BEGIN ATOM
M  V30 1 N 0.178463 -4.189401 1.778435 0
M  V30 2 C 0.716737 -3.083710 1.077087 0
M  V30 3 N 2.052135 -2.960577 0.983771 0
M  V30 4 C 2.657589 -1.944573 0.335962 0
M  V30 5 C 1.810884 -1.021054 -0.238300 0
M  V30 6 C 2.370442 0.120939 -0.947916 0
M  V30 7 C 3.564705 0.143082 -1.629992 0
M  V30 8 C 4.074221 1.251757 -2.317073 0
M  V30 9 C 3.279737 2.368737 -2.272612 0
M  V30 10 C 3.702237 3.593359 -2.929358 0
M  V30 11 O 4.759463 3.922671 -3.574258 0
M  V30 12 O 2.983457 4.769580 -2.999401 0
M  V30 13 C 2.079384 2.423862 -1.615625 0
M  V30 14 C 1.623000 1.306909 -0.954848 0
M  V30 15 C 0.431266 -1.106614 -0.167226 0
M  V30 16 C -0.131453 -2.165574 0.508591 0
M  V30 17 C -1.651179 -2.236502 0.616125 0
M  V30 18 O -2.132022 -1.873938 1.768788 0
M  V30 19 C -2.594936 -1.526078 2.883640 0
M  V30 20 C -3.434703 -0.422765 2.975109 0
M  V30 21 C -4.009394 0.065618 4.142221 0
M  V30 22 C -3.688529 -0.635889 5.273849 0
M  V30 23 C -2.862758 -1.732785 5.233708 0
M  V30 24 C -2.301500 -2.207585 4.074523 0
M  V30 25 H -0.124799 -4.685224 2.634117 0
M  V30 26 H -0.014056 -4.863636 0.983761 0
M  V30 27 H 3.722400 -1.888194 0.285216 0
M  V30 28 H 4.152099 -0.760651 -1.640310 0
M  V30 29 H 5.021782 1.217420 -2.836156 0
M  V30 30 H 2.822580 5.338127 -3.807433 0
M  V30 31 H 1.476281 3.333748 -1.599603 0
M  V30 32 H 0.665031 1.386074 -0.445417 0
M  V30 33 H -0.248728 -0.400758 -0.599360 0
M  V30 34 H -2.049739 -1.591630 -0.227981 0
M  V30 35 H -1.898508 -3.284488 0.266903 0
M  V30 36 H -3.681053 0.126863 2.065459 0
M  V30 37 H -4.643210 0.935041 4.108640 0
M  V30 38 H -4.121145 -0.287105 6.203838 0
M  V30 39 H -2.676950 -2.209511 6.181916 0
M  V30 40 H -1.675752 -3.073990 4.127040 0
M  V30 END ATOM
M  V30 BEGIN BOND
M  V30 1 1 1 2
M  V30 2 2 2 3
M  V30 3 1 3 4
M  V30 4 2 4 5
M  V30 5 1 5 6
M  V30 6 2 6 7
M  V30 7 1 7 8
M  V30 8 2 8 9
M  V30 9 1 9 10
M  V30 10 2 10 11
M  V30 11 1 10 12
M  V30 12 1 9 13
M  V30 13 2 13 14
M  V30 14 1 5 15
M  V30 15 2 15 16
M  V30 16 1 16 17
M  V30 17 1 17 18
M  V30 18 1 18 19
M  V30 19 2 19 20
M  V30 20 1 20 21
M  V30 21 2 21 22
M  V30 22 1 22 23
M  V30 23 2 23 24
M  V30 24 1 16 2
M  V30 25 1 24 19
M  V30 26 1 14 6
M  V30 27 1 1 25
M  V30 28 1 1 26
M  V30 29 1 4 27
M  V30 30 1 7 28
M  V30 31 1 8 29
M  V30 32 1 12 30
M  V30 33 1 13 31
M  V30 34 1 14 32
M  V30 35 1 15 33
M  V30 36 1 17 34
M  V30 37 1 17 35
M  V30 38 1 20 36
M  V30 39 1 21 37
M  V30 40 1 22 38
M  V30 41 1 23 39
M  V30 42 1 24 40
M  V30 END BOND
M  V30 END CTAB
M  END
>  <Dataset>  (954) 
ChEMBL_Kinases

>  <Ligand_Instance>  (954) 
nan

>  <PDB_ID>  (954) 
nan

>  <Standardized_SMILES>  (954) 
Nc1ncc(-c2ccc(C(=O)O)cc2)cc1COc1ccccc1

>  <Name>  (954) 
nan

>  <Pocket>  (954) 
nan

>  <ATP_Site>  (954) 
nan

>  <Peripheral>  (954) 
nan

>  <Num_H_Atoms_ProtBoundConf>  (954) 
nan

>  <Num_Resolved_Atoms>  (954) 
nan

>  <Num_Not_Resolved_Atoms>  (954) 
nan

$$$$
CHEMBL4750418
     RDKit          3D

  0  0  0  0  0  0  0  0  0  0999 V3000
M  V30 BEGIN CTAB
M  V30 COUNTS 75 79 0 0 0
M  V30 BEGIN ATOM
M  V30 1 C 3.550807 -3.969929 4.029412 0
M  V30 2 N 4.930865 -4.412061 3.817080 0
M  V30 3 C 4.998471 -5.013462 2.550482 0
M  V30 4 C 6.169611 -4.609052 1.697363 0
M  V30 5 N 6.430847 -3.251633 1.919256 0
M  V30 6 C 6.601822 -2.347973 0.877847 0
M  V30 7 C 5.275461 -2.157089 0.167989 0
M  V30 8 C 5.308750 -1.209573 -0.975182 0
M  V30 9 C 5.732543 0.187329 -0.661324 0
M  V30 10 C 4.841391 0.860235 0.357210 0
M  V30 11 O 3.510510 0.954862 -0.048838 0
M  V30 12 C 2.538543 1.540715 0.762647 0
M  V30 13 C 2.769056 2.073439 1.999706 0
M  V30 14 C 1.782704 2.646181 2.776395 0
M  V30 15 C 0.478265 2.688999 2.283599 0
M  V30 16 C 0.194982 2.163286 1.039692 0
M  V30 17 N -1.119341 2.174377 0.496849 0
M  V30 18 C -1.662581 0.923655 0.971500 0
M  V30 19 O -1.704471 -0.184254 1.545050 0
M  V30 20 S -3.394771 0.799075 0.433422 0
M  V30 21 C -3.323733 2.345896 -0.505566 0
M  V30 22 C -4.200345 2.932049 -1.260686 0
M  V30 23 C -5.513834 2.311201 -1.451155 0
M  V30 24 C -6.106101 2.372732 -2.713327 0
M  V30 25 C -7.344071 1.821894 -3.009044 0
M  V30 26 C -8.039880 1.174474 -2.007836 0
M  V30 27 O -9.264500 0.642666 -2.345975 0
M  V30 28 C -9.439994 -0.654555 -2.803916 0
M  V30 29 C -8.316644 -1.476863 -2.913073 0
M  V30 30 C -8.420909 -2.796687 -3.368021 0
M  V30 31 C -9.696995 -3.247975 -3.706125 0
M  V30 32 Br -9.887180 -5.049250 -4.336024 0
M  V30 33 C -10.793616 -2.397669 -3.583948 0
M  V30 34 C -10.692378 -1.114458 -3.141327 0
M  V30 35 C -7.463272 1.103690 -0.739904 0
M  V30 36 C -6.225736 1.660657 -0.466043 0
M  V30 37 C -2.028617 2.918896 -0.292385 0
M  V30 38 O -1.440823 3.987505 -0.647833 0
M  V30 39 C 1.235691 1.594505 0.294442 0
M  V30 40 C 6.891940 -3.005152 3.217002 0
M  V30 41 C 5.809662 -3.388682 4.190074 0
M  V30 42 H 3.180346 -3.632473 3.025480 0
M  V30 43 H 3.495184 -3.082073 4.673314 0
M  V30 44 H 2.888601 -4.793070 4.348586 0
M  V30 45 H 4.085779 -4.878538 1.938471 0
M  V30 46 H 5.089183 -6.127146 2.711324 0
M  V30 47 H 5.918812 -4.773686 0.628517 0
M  V30 48 H 7.055626 -5.287328 1.885185 0
M  V30 49 H 7.050877 -1.413281 1.245200 0
M  V30 50 H 7.371825 -2.771113 0.165577 0
M  V30 51 H 5.019201 -3.162047 -0.267496 0
M  V30 52 H 4.459637 -1.967633 0.895771 0
M  V30 53 H 6.046813 -1.605346 -1.717060 0
M  V30 54 H 4.279256 -1.155390 -1.393312 0
M  V30 55 H 5.633805 0.767146 -1.608103 0
M  V30 56 H 6.800420 0.295731 -0.380652 0
M  V30 57 H 4.931811 0.248356 1.298546 0
M  V30 58 H 5.241645 1.859820 0.615453 0
M  V30 59 H 3.796513 2.022349 2.351968 0
M  V30 60 H 2.016472 3.049335 3.732531 0
M  V30 61 H -0.324435 3.113607 2.829695 0
M  V30 62 H -4.022611 3.874083 -1.773539 0
M  V30 63 H -5.547197 2.887970 -3.493738 0
M  V30 64 H -7.759601 1.898770 -4.015314 0
M  V30 65 H -7.350959 -1.070616 -2.635565 0
M  V30 66 H -7.526100 -3.398655 -3.437063 0
M  V30 67 H -11.784117 -2.791757 -3.861685 0
M  V30 68 H -11.585852 -0.507030 -3.071503 0
M  V30 69 H -8.027955 0.591418 0.032450 0
M  V30 70 H -5.798865 1.598897 0.514235 0
M  V30 71 H 0.999950 1.180300 -0.697226 0
M  V30 72 H 7.193456 -1.952813 3.424762 0
M  V30 73 H 7.810921 -3.598580 3.497648 0
M  V30 74 H 6.297937 -3.653591 5.152241 0
M  V30 75 H 5.247612 -2.438730 4.436663 0
M  V30 END ATOM
M  V30 BEGIN BOND
M  V30 1 1 1 2
M  V30 2 1 2 3
M  V30 3 1 3 4
M  V30 4 1 4 5
M  V30 5 1 5 6
M  V30 6 1 6 7
M  V30 7 1 7 8
M  V30 8 1 8 9
M  V30 9 1 9 10
M  V30 10 1 10 11
M  V30 11 1 11 12
M  V30 12 2 12 13
M  V30 13 1 13 14
M  V30 14 2 14 15
M  V30 15 1 15 16
M  V30 16 1 16 17
M  V30 17 1 17 18
M  V30 18 2 18 19
M  V30 19 1 18 20
M  V30 20 1 20 21
M  V30 21 2 21 22
M  V30 22 1 22 23
M  V30 23 2 23 24
M  V30 24 1 24 25
M  V30 25 2 25 26
M  V30 26 1 26 27
M  V30 27 1 27 28
M  V30 28 2 28 29
M  V30 29 1 29 30
M  V30 30 2 30 31
M  V30 31 1 31 32
M  V30 32 1 31 33
M  V30 33 2 33 34
M  V30 34 1 26 35
M  V30 35 2 35 36
M  V30 36 1 21 37
M  V30 37 2 37 38
M  V30 38 2 16 39
M  V30 39 1 5 40
M  V30 40 1 40 41
M  V30 41 1 41 2
M  V30 42 1 39 12
M  V30 43 1 37 17
M  V30 44 1 36 23
M  V30 45 1 34 28
M  V30 46 1 1 42
M  V30 47 1 1 43
M  V30 48 1 1 44
M  V30 49 1 3 45
M  V30 50 1 3 46
M  V30 51 1 4 47
M  V30 52 1 4 48
M  V30 53 1 6 49
M  V30 54 1 6 50
M  V30 55 1 7 51
M  V30 56 1 7 52
M  V30 57 1 8 53
M  V30 58 1 8 54
M  V30 59 1 9 55
M  V30 60 1 9 56
M  V30 61 1 10 57
M  V30 62 1 10 58
M  V30 63 1 13 59
M  V30 64 1 14 60
M  V30 65 1 15 61
M  V30 66 1 22 62
M  V30 67 1 24 63
M  V30 68 1 25 64
M  V30 69 1 29 65
M  V30 70 1 30 66
M  V30 71 1 33 67
M  V30 72 1 34 68
M  V30 73 1 35 69
M  V30 74 1 36 70
M  V30 75 1 39 71
M  V30 76 1 40 72
M  V30 77 1 40 73
M  V30 78 1 41 74
M  V30 79 1 41 75
M  V30 END BOND
M  V30 END CTAB
M  END
>  <Dataset>  (955) 
ChEMBL_Kinases

>  <Ligand_Instance>  (955) 
nan

>  <PDB_ID>  (955) 
nan

>  <Standardized_SMILES>  (955) 
CN1CCN(CCCCCOc2cccc(N3C(=O)S/C(=C\c4ccc(Oc5ccc(Br)cc5)cc4)C3=O)c2)CC1

>  <Name>  (955) 
nan

>  <Pocket>  (955) 
nan

>  <ATP_Site>  (955) 
nan

>  <Peripheral>  (955) 
nan

>  <Num_H_Atoms_ProtBoundConf>  (955) 
nan

>  <Num_Resolved_Atoms>  (955) 
nan

>  <Num_Not_Resolved_Atoms>  (955) 
nan

$$$$
CHEMBL4750439
     RDKit          3D

  0  0  0  0  0  0  0  0  0  0999 V3000
M  V30 BEGIN CTAB
M  V30 COUNTS 38 40 0 0 0
M  V30 BEGIN ATOM
M  V30 1 O -0.761368 -1.640709 1.192479 0
M  V30 2 C -0.147003 -2.706215 1.534108 0
M  V30 3 N 1.265122 -2.593067 1.517878 0
M  V30 4 C 1.592513 -1.249268 1.101969 0
M  V30 5 C 1.698392 -0.366806 2.160469 0
M  V30 6 C 2.012038 0.967062 1.885580 0
M  V30 7 C 2.202237 1.345697 0.572760 0
M  V30 8 O 2.511049 2.679700 0.357121 0
M  V30 9 C 1.700645 3.513984 -0.425651 0
M  V30 10 C 2.239410 4.108991 -1.549728 0
M  V30 11 C 1.355259 4.908081 -2.244795 0
M  V30 12 C 0.040699 5.146823 -1.920264 0
M  V30 13 Cl -0.974102 6.189885 -2.898131 0
M  V30 14 C -0.449523 4.517975 -0.772372 0
M  V30 15 C 0.388315 3.720800 -0.056578 0
M  V30 16 Cl -0.274886 2.948039 1.384866 0
M  V30 17 C 2.089607 0.440618 -0.463558 0
M  V30 18 Cl 2.337897 0.956594 -2.119359 0
M  V30 19 C 1.780341 -0.883359 -0.215779 0
M  V30 20 C -0.948998 -3.873204 1.888265 0
M  V30 21 C -0.324897 -5.045041 2.263288 0
M  V30 22 C -1.034621 -6.190998 2.612116 0
M  V30 23 Cl -0.236936 -7.678886 3.088356 0
M  V30 24 C -2.416236 -6.139338 2.577212 0
M  V30 25 C -3.039656 -4.967171 2.202097 0
M  V30 26 Cl -4.783224 -4.775551 2.118507 0
M  V30 27 C -2.333234 -3.833868 1.857181 0
M  V30 28 O -2.909010 -2.624670 1.471129 0
M  V30 29 H 1.778552 -3.479487 1.802123 0
M  V30 30 H 1.554714 -0.638365 3.190660 0
M  V30 31 H 2.094784 1.663308 2.730311 0
M  V30 32 H 3.261995 3.974226 -1.875044 0
M  V30 33 H 1.702488 5.419767 -3.152652 0
M  V30 34 H -1.479550 4.690848 -0.497769 0
M  V30 35 H 1.679202 -1.633620 -0.979900 0
M  V30 36 H 0.747801 -5.163407 2.314856 0
M  V30 37 H -3.046443 -6.991063 2.835089 0
M  V30 38 H -3.398652 -2.539436 0.595341 0
M  V30 END ATOM
M  V30 BEGIN BOND
M  V30 1 2 1 2
M  V30 2 1 2 3
M  V30 3 1 3 4
M  V30 4 2 4 5
M  V30 5 1 5 6
M  V30 6 2 6 7
M  V30 7 1 7 8
M  V30 8 1 8 9
M  V30 9 2 9 10
M  V30 10 1 10 11
M  V30 11 2 11 12
M  V30 12 1 12 13
M  V30 13 1 12 14
M  V30 14 2 14 15
M  V30 15 1 15 16
M  V30 16 1 7 17
M  V30 17 1 17 18
M  V30 18 2 17 19
M  V30 19 1 2 20
M  V30 20 2 20 21
M  V30 21 1 21 22
M  V30 22 1 22 23
M  V30 23 2 22 24
M  V30 24 1 24 25
M  V30 25 1 25 26
M  V30 26 2 25 27
M  V30 27 1 27 28
M  V30 28 1 19 4
M  V30 29 1 27 20
M  V30 30 1 15 9
M  V30 31 1 3 29
M  V30 32 1 5 30
M  V30 33 1 6 31
M  V30 34 1 10 32
M  V30 35 1 11 33
M  V30 36 1 14 34
M  V30 37 1 19 35
M  V30 38 1 21 36
M  V30 39 1 24 37
M  V30 40 1 28 38
M  V30 END BOND
M  V30 END CTAB
M  END
>  <Dataset>  (956) 
ChEMBL_Kinases

>  <Ligand_Instance>  (956) 
nan

>  <PDB_ID>  (956) 
nan

>  <Standardized_SMILES>  (956) 
O=C(Nc1ccc(Oc2ccc(Cl)cc2Cl)c(Cl)c1)c1cc(Cl)cc(Cl)c1O

>  <Name>  (956) 
nan

>  <Pocket>  (956) 
nan

>  <ATP_Site>  (956) 
nan

>  <Peripheral>  (956) 
nan

>  <Num_H_Atoms_ProtBoundConf>  (956) 
nan

>  <Num_Resolved_Atoms>  (956) 
nan

>  <Num_Not_Resolved_Atoms>  (956) 
nan

$$$$
CHEMBL4750505
     RDKit          3D

  0  0  0  0  0  0  0  0  0  0999 V3000
M  V30 BEGIN CTAB
M  V30 COUNTS 42 44 0 0 0
M  V30 BEGIN ATOM
M  V30 1 C 0.413639 -4.545653 -1.137192 0
M  V30 2 C 0.896748 -4.072057 0.234867 0
M  V30 3 C 0.199714 -2.839266 0.683995 0
M  V30 4 N 2.324757 -4.032358 0.264409 0
M  V30 5 C 3.193969 -5.005047 0.667091 0
M  V30 6 N 4.475635 -4.583210 0.544562 0
M  V30 7 N 4.420815 -3.369753 0.074550 0
M  V30 8 C 3.132905 -3.020615 -0.100648 0
M  V30 9 C 2.743033 -1.713278 -0.617420 0
M  V30 10 C 2.751105 -1.526234 -1.984247 0
M  V30 11 C 2.394666 -0.314823 -2.560943 0
M  V30 12 C 2.018483 0.743612 -1.753675 0
M  V30 13 C 2.020806 0.523618 -0.385307 0
M  V30 14 N 1.673407 1.459410 0.628104 0
M  V30 15 C 0.337288 1.564683 1.084073 0
M  V30 16 O -0.496133 0.797383 0.547957 0
M  V30 17 N -0.099903 2.463165 2.084409 0
M  V30 18 C -1.395870 2.653030 2.613140 0
M  V30 19 C -2.549231 1.995459 2.269518 0
M  V30 20 C -3.785821 2.229396 2.826011 0
M  V30 21 C -3.903171 3.191362 3.804523 0
M  V30 22 C -2.768804 3.865966 4.169931 0
M  V30 23 C -1.564913 3.602206 3.592686 0
M  V30 24 N 2.367103 -0.646770 0.132791 0
M  V30 25 H -0.610824 -4.974413 -1.073140 0
M  V30 26 H 0.537982 -3.793056 -1.923900 0
M  V30 27 H 1.078828 -5.418929 -1.395585 0
M  V30 28 H 0.568756 -4.905940 0.922655 0
M  V30 29 H 0.727683 -2.421944 1.548647 0
M  V30 30 H -0.812314 -3.129279 1.062124 0
M  V30 31 H -0.006338 -2.110123 -0.122893 0
M  V30 32 H 2.915472 -5.997738 1.041437 0
M  V30 33 H 3.034820 -2.312660 -2.669303 0
M  V30 34 H 2.379154 -0.101842 -3.617057 0
M  V30 35 H 1.715529 1.741886 -2.042093 0
M  V30 36 H 2.391181 2.072474 1.042772 0
M  V30 37 H 0.691725 3.037374 2.441327 0
M  V30 38 H -2.502693 1.234829 1.507997 0
M  V30 39 H -4.650264 1.667927 2.500876 0
M  V30 40 H -4.862940 3.392798 4.256013 0
M  V30 41 H -2.833446 4.621445 4.931147 0
M  V30 42 H -0.697648 4.184417 3.937504 0
M  V30 END ATOM
M  V30 BEGIN BOND
M  V30 1 1 1 2
M  V30 2 1 2 3
M  V30 3 1 2 4
M  V30 4 1 4 5
M  V30 5 2 5 6
M  V30 6 1 6 7
M  V30 7 2 7 8
M  V30 8 1 8 9
M  V30 9 2 9 10
M  V30 10 1 10 11
M  V30 11 2 11 12
M  V30 12 1 12 13
M  V30 13 1 13 14
M  V30 14 1 14 15
M  V30 15 2 15 16
M  V30 16 1 15 17
M  V30 17 1 17 18
M  V30 18 2 18 19
M  V30 19 1 19 20
M  V30 20 2 20 21
M  V30 21 1 21 22
M  V30 22 2 22 23
M  V30 23 2 13 24
M  V30 24 1 8 4
M  V30 25 1 24 9
M  V30 26 1 23 18
M  V30 27 1 1 25
M  V30 28 1 1 26
M  V30 29 1 1 27
M  V30 30 1 2 28
M  V30 31 1 3 29
M  V30 32 1 3 30
M  V30 33 1 3 31
M  V30 34 1 5 32
M  V30 35 1 10 33
M  V30 36 1 11 34
M  V30 37 1 12 35
M  V30 38 1 14 36
M  V30 39 1 17 37
M  V30 40 1 19 38
M  V30 41 1 20 39
M  V30 42 1 21 40
M  V30 43 1 22 41
M  V30 44 1 23 42
M  V30 END BOND
M  V30 END CTAB
M  END
>  <Dataset>  (957) 
ChEMBL_Kinases

>  <Ligand_Instance>  (957) 
nan

>  <PDB_ID>  (957) 
nan

>  <Standardized_SMILES>  (957) 
CC(C)n1cnnc1-c1cccc(NC(=O)Nc2ccccc2)n1

>  <Name>  (957) 
nan

>  <Pocket>  (957) 
nan

>  <ATP_Site>  (957) 
nan

>  <Peripheral>  (957) 
nan

>  <Num_H_Atoms_ProtBoundConf>  (957) 
nan

>  <Num_Resolved_Atoms>  (957) 
nan

>  <Num_Not_Resolved_Atoms>  (957) 
nan

$$$$
CHEMBL4446384
     RDKit          3D

  0  0  0  0  0  0  0  0  0  0999 V3000
M  V30 BEGIN CTAB
M  V30 COUNTS 51 55 0 0 0
M  V30 BEGIN ATOM
M  V30 1 C 3.935481 -3.736084 5.926585 0
M  V30 2 O 2.947655 -3.688402 4.905951 0
M  V30 3 C 3.088170 -2.751523 3.904498 0
M  V30 4 C 4.046552 -1.795336 3.677287 0
M  V30 5 C 4.026598 -0.934702 2.613182 0
M  V30 6 C 3.019463 -0.954866 1.657954 0
M  V30 7 S 2.904195 0.079337 0.282252 0
M  V30 8 O 4.254060 0.324483 -0.298802 0
M  V30 9 O 2.136720 -0.708719 -0.775323 0
M  V30 10 N 2.095354 1.575369 0.610626 0
M  V30 11 C 0.743087 1.377177 1.034297 0
M  V30 12 C -0.266308 2.031831 0.077916 0
M  V30 13 C -0.126055 1.359650 -1.224166 0
M  V30 14 C 1.266550 1.568578 -1.577659 0
M  V30 15 S 1.510349 0.808495 -3.102889 0
M  V30 16 C -0.229055 0.194995 -3.305652 0
M  V30 17 N -0.898357 -0.515610 -4.225718 0
M  V30 18 C -2.188842 -0.835012 -4.092966 0
M  V30 19 N -2.756672 -0.399448 -2.990463 0
M  V30 20 C -2.179637 0.310817 -2.022661 0
M  V30 21 N -3.012608 0.631152 -0.924062 0
M  V30 22 C -3.892346 -0.391965 -0.424005 0
M  V30 23 C -5.050225 -0.886620 -0.979651 0
M  V30 24 C -5.723496 -1.897983 -0.320593 0
M  V30 25 C -5.253595 -2.408073 0.867614 0
M  V30 26 C -4.103440 -1.961535 1.480114 0
M  V30 27 F -3.608052 -2.436065 2.646799 0
M  V30 28 C -3.441166 -0.934860 0.790740 0
M  V30 29 C -0.853850 0.652848 -2.132814 0
M  V30 30 C 2.154049 2.310863 -0.666235 0
M  V30 31 C 2.059137 -1.930581 1.906708 0
M  V30 32 C 2.047552 -2.808838 2.961502 0
M  V30 33 H 3.599639 -4.500697 6.673566 0
M  V30 34 H 4.934329 -3.974708 5.524433 0
M  V30 35 H 3.977407 -2.723061 6.391362 0
M  V30 36 H 4.822025 -1.799525 4.440803 0
M  V30 37 H 4.811344 -0.202523 2.487429 0
M  V30 38 H 0.526291 0.291085 1.014934 0
M  V30 39 H 0.638794 1.781630 2.066331 0
M  V30 40 H -1.233688 1.981832 0.557828 0
M  V30 41 H -0.007782 3.121845 -0.035066 0
M  V30 42 H -2.551279 -1.405770 -4.929920 0
M  V30 43 H -3.266652 1.427756 -0.289009 0
M  V30 44 H -5.294586 -0.394878 -1.905996 0
M  V30 45 H -6.628368 -2.244739 -0.805440 0
M  V30 46 H -5.787423 -3.197476 1.376215 0
M  V30 47 H -2.521778 -0.589228 1.293933 0
M  V30 48 H 3.176546 2.176343 -1.035034 0
M  V30 49 H 1.927150 3.368246 -0.569575 0
M  V30 50 H 1.245044 -1.976682 1.164991 0
M  V30 51 H 1.229422 -3.515530 3.022507 0
M  V30 END ATOM
M  V30 BEGIN BOND
M  V30 1 1 1 2
M  V30 2 1 2 3
M  V30 3 2 3 4
M  V30 4 1 4 5
M  V30 5 2 5 6
M  V30 6 1 6 7
M  V30 7 2 7 8
M  V30 8 2 7 9
M  V30 9 1 7 10
M  V30 10 1 10 11
M  V30 11 1 11 12
M  V30 12 1 12 13
M  V30 13 2 13 14
M  V30 14 1 14 15
M  V30 15 1 15 16
M  V30 16 2 16 17
M  V30 17 1 17 18
M  V30 18 2 18 19
M  V30 19 1 19 20
M  V30 20 1 20 21
M  V30 21 1 21 22
M  V30 22 2 22 23
M  V30 23 1 23 24
M  V30 24 2 24 25
M  V30 25 1 25 26
M  V30 26 1 26 27
M  V30 27 2 26 28
M  V30 28 2 20 29
M  V30 29 1 14 30
M  V30 30 1 6 31
M  V30 31 2 31 32
M  V30 32 1 32 3
M  V30 33 1 30 10
M  V30 34 1 29 13
M  V30 35 1 29 16
M  V30 36 1 28 22
M  V30 37 1 1 33
M  V30 38 1 1 34
M  V30 39 1 1 35
M  V30 40 1 4 36
M  V30 41 1 5 37
M  V30 42 1 11 38
M  V30 43 1 11 39
M  V30 44 1 12 40
M  V30 45 1 12 41
M  V30 46 1 18 42
M  V30 47 1 21 43
M  V30 48 1 23 44
M  V30 49 1 24 45
M  V30 50 1 25 46
M  V30 51 1 28 47
M  V30 52 1 30 48
M  V30 53 1 30 49
M  V30 54 1 31 50
M  V30 55 1 32 51
M  V30 END BOND
M  V30 END CTAB
M  END
>  <Dataset>  (958) 
ChEMBL_Kinases

>  <Ligand_Instance>  (958) 
nan

>  <PDB_ID>  (958) 
nan

>  <Standardized_SMILES>  (958) 
COc1ccc(S(=O)(=O)N2CCc3c(sc4ncnc(Nc5cccc(F)c5)c34)C2)cc1

>  <Name>  (958) 
nan

>  <Pocket>  (958) 
nan

>  <ATP_Site>  (958) 
nan

>  <Peripheral>  (958) 
nan

>  <Num_H_Atoms_ProtBoundConf>  (958) 
nan

>  <Num_Resolved_Atoms>  (958) 
nan

>  <Num_Not_Resolved_Atoms>  (958) 
nan

$$$$
CHEMBL4750540
     RDKit          3D

  0  0  0  0  0  0  0  0  0  0999 V3000
M  V30 BEGIN CTAB
M  V30 COUNTS 45 47 0 0 0
M  V30 BEGIN ATOM
M  V30 1 C -0.050210 -5.133101 0.114470 0
M  V30 2 C 0.810530 -5.137187 -1.141838 0
M  V30 3 C 0.078308 -4.622487 -2.341517 0
M  V30 4 O 1.948279 -4.367696 -0.896831 0
M  V30 5 C 1.745637 -3.029447 -0.566207 0
M  V30 6 C 1.590812 -2.627850 0.747334 0
M  V30 7 C 1.394642 -1.279754 0.976795 0
M  V30 8 C 1.352165 -0.356021 -0.053266 0
M  V30 9 C 1.140468 1.075648 0.229223 0
M  V30 10 C 1.706955 2.027973 -0.597547 0
M  V30 11 N 1.503178 3.347014 -0.323986 0
M  V30 12 C 0.762431 3.729654 0.733729 0
M  V30 13 N 0.520622 5.102554 1.060888 0
M  V30 14 C 0.191044 2.787381 1.567385 0
M  V30 15 C -0.628701 3.097203 2.740999 0
M  V30 16 C -1.601909 4.073423 2.628540 0
M  V30 17 C -2.381571 4.373146 3.731625 0
M  V30 18 C -2.199832 3.714629 4.930469 0
M  V30 19 Cl -3.144501 4.036957 6.368934 0
M  V30 20 C -1.230640 2.747075 5.030804 0
M  V30 21 C -0.437277 2.431027 3.935848 0
M  V30 22 C 0.375103 1.446580 1.322460 0
M  V30 23 C 1.511948 -0.800831 -1.356975 0
M  V30 24 N 1.701561 -2.118258 -1.554711 0
M  V30 25 C 1.172672 -6.568606 -1.399281 0
M  V30 26 O 2.231575 -7.250962 -1.450556 0
M  V30 27 O -0.001307 -7.305947 -1.641640 0
M  V30 28 H 0.576283 -5.542071 0.928635 0
M  V30 29 H -0.962196 -5.745731 -0.016248 0
M  V30 30 H -0.352252 -4.095648 0.368623 0
M  V30 31 H 0.581039 -5.024403 -3.243726 0
M  V30 32 H -0.950236 -5.085569 -2.315579 0
M  V30 33 H -0.013505 -3.535821 -2.399108 0
M  V30 34 H 1.622413 -3.341458 1.561438 0
M  V30 35 H 1.266324 -0.901055 1.988491 0
M  V30 36 H 2.311280 1.751541 -1.460533 0
M  V30 37 H 0.935087 5.426215 1.940936 0
M  V30 38 H -0.055980 5.474101 0.278792 0
M  V30 39 H -1.793892 4.623027 1.723033 0
M  V30 40 H -3.163946 5.136595 3.694691 0
M  V30 41 H -1.028789 2.184791 5.943928 0
M  V30 42 H 0.318775 1.674775 4.017835 0
M  V30 43 H -0.043838 0.661195 1.935235 0
M  V30 44 H 1.485298 -0.104375 -2.202291 0
M  V30 45 H 0.034986 -8.321231 -1.819155 0
M  V30 END ATOM
M  V30 BEGIN BOND
M  V30 1 1 1 2
M  V30 2 1 2 3
M  V30 3 1 2 4
M  V30 4 1 4 5
M  V30 5 2 5 6
M  V30 6 1 6 7
M  V30 7 2 7 8
M  V30 8 1 8 9
M  V30 9 2 9 10
M  V30 10 1 10 11
M  V30 11 2 11 12
M  V30 12 1 12 13
M  V30 13 1 12 14
M  V30 14 1 14 15
M  V30 15 2 15 16
M  V30 16 1 16 17
M  V30 17 2 17 18
M  V30 18 1 18 19
M  V30 19 1 18 20
M  V30 20 2 20 21
M  V30 21 2 14 22
M  V30 22 1 8 23
M  V30 23 2 23 24
M  V30 24 1 2 25
M  V30 25 2 25 26
M  V30 26 1 25 27
M  V30 27 1 24 5
M  V30 28 1 22 9
M  V30 29 1 21 15
M  V30 30 1 1 28
M  V30 31 1 1 29
M  V30 32 1 1 30
M  V30 33 1 3 31
M  V30 34 1 3 32
M  V30 35 1 3 33
M  V30 36 1 6 34
M  V30 37 1 7 35
M  V30 38 1 10 36
M  V30 39 1 13 37
M  V30 40 1 13 38
M  V30 41 1 16 39
M  V30 42 1 17 40
M  V30 43 1 20 41
M  V30 44 1 21 42
M  V30 45 1 22 43
M  V30 46 1 23 44
M  V30 47 1 27 45
M  V30 END BOND
M  V30 END CTAB
M  END
>  <Dataset>  (959) 
ChEMBL_Kinases

>  <Ligand_Instance>  (959) 
nan

>  <PDB_ID>  (959) 
nan

>  <Standardized_SMILES>  (959) 
CC(C)(Oc1ccc(-c2cnc(N)c(-c3ccc(Cl)cc3)c2)cn1)C(=O)O

>  <Name>  (959) 
nan

>  <Pocket>  (959) 
nan

>  <ATP_Site>  (959) 
nan

>  <Peripheral>  (959) 
nan

>  <Num_H_Atoms_ProtBoundConf>  (959) 
nan

>  <Num_Resolved_Atoms>  (959) 
nan

>  <Num_Not_Resolved_Atoms>  (959) 
nan

$$$$
CHEMBL4446375
     RDKit          3D

  0  0  0  0  0  0  0  0  0  0999 V3000
M  V30 BEGIN CTAB
M  V30 COUNTS 48 51 0 0 0
M  V30 BEGIN ATOM
M  V30 1 C 3.672975 -6.220677 -0.339708 0
M  V30 2 N 2.777758 -6.025292 -1.463307 0
M  V30 3 N 2.583779 -6.863260 -2.471126 0
M  V30 4 C 1.696324 -6.377202 -3.331092 0
M  V30 5 C 1.327333 -5.159418 -2.806738 0
M  V30 6 C 2.013964 -4.930596 -1.616163 0
M  V30 7 C 1.849010 -3.728607 -0.810840 0
M  V30 8 C 2.441018 -3.348801 0.374006 0
M  V30 9 O 1.997985 -2.172932 0.755120 0
M  V30 10 C 1.124180 -1.708537 -0.103719 0
M  V30 11 C 0.390095 -0.432068 -0.055638 0
M  V30 12 O -0.430453 -0.116659 -0.966557 0
M  V30 13 N 0.632438 0.430969 1.043349 0
M  V30 14 C -0.015657 1.736172 1.240545 0
M  V30 15 C 1.091588 2.748321 1.125753 0
M  V30 16 N 0.782191 4.064930 1.533816 0
M  V30 17 C -0.174727 4.254003 2.556102 0
M  V30 18 C -0.614611 3.046433 3.313067 0
M  V30 19 C -0.811741 1.811797 2.496052 0
M  V30 20 C -2.262415 1.565455 2.215505 0
M  V30 21 C -3.009677 2.436682 1.438972 0
M  V30 22 C -4.339875 2.268951 1.144900 0
M  V30 23 C -4.989945 1.161949 1.650243 0
M  V30 24 C -4.290801 0.263512 2.429526 0
M  V30 25 C -2.966671 0.486111 2.687030 0
M  V30 26 C 1.016105 -2.665879 -1.091073 0
M  V30 27 H 4.148343 -7.233031 -0.484708 0
M  V30 28 H 4.496293 -5.480576 -0.291476 0
M  V30 29 H 3.148233 -6.286023 0.633876 0
M  V30 30 H 1.323218 -6.826250 -4.259981 0
M  V30 31 H 0.607185 -4.482676 -3.259435 0
M  V30 32 H 3.169283 -3.920743 0.929250 0
M  V30 33 H 1.304294 0.193180 1.806967 0
M  V30 34 H -0.703419 1.874960 0.367935 0
M  V30 35 H 2.016483 2.310696 1.579547 0
M  V30 36 H 1.337806 2.806029 0.025759 0
M  V30 37 H 1.675670 4.563269 1.742023 0
M  V30 38 H 0.247171 4.962371 3.328280 0
M  V30 39 H -1.048707 4.804070 2.145112 0
M  V30 40 H 0.031601 2.849563 4.217403 0
M  V30 41 H -1.612643 3.294036 3.780245 0
M  V30 42 H -0.498729 0.939729 3.142420 0
M  V30 43 H -2.559248 3.320398 1.014939 0
M  V30 44 H -4.891098 2.967362 0.536786 0
M  V30 45 H -6.045140 1.043116 1.407964 0
M  V30 46 H -4.802132 -0.602894 2.824270 0
M  V30 47 H -2.446842 -0.239392 3.302857 0
M  V30 48 H 0.356231 -2.549763 -1.943332 0
M  V30 END ATOM
M  V30 BEGIN BOND
M  V30 1 1 1 2
M  V30 2 1 2 3
M  V30 3 2 3 4
M  V30 4 1 4 5
M  V30 5 2 5 6
M  V30 6 1 6 7
M  V30 7 2 7 8
M  V30 8 1 8 9
M  V30 9 1 9 10
M  V30 10 1 10 11
M  V30 11 2 11 12
M  V30 12 1 11 13
M  V30 13 1 13 14
M  V30 14 1 14 15
M  V30 15 1 15 16
M  V30 16 1 16 17
M  V30 17 1 17 18
M  V30 18 1 18 19
M  V30 19 1 19 20
M  V30 20 2 20 21
M  V30 21 1 21 22
M  V30 22 2 22 23
M  V30 23 1 23 24
M  V30 24 2 24 25
M  V30 25 2 10 26
M  V30 26 1 6 2
M  V30 27 1 26 7
M  V30 28 1 19 14
M  V30 29 1 25 20
M  V30 30 1 1 27
M  V30 31 1 1 28
M  V30 32 1 1 29
M  V30 33 1 4 30
M  V30 34 1 5 31
M  V30 35 1 8 32
M  V30 36 1 13 33
M  V30 37 1 14 34
M  V30 38 1 15 35
M  V30 39 1 15 36
M  V30 40 1 16 37
M  V30 41 1 17 38
M  V30 42 1 17 39
M  V30 43 1 18 40
M  V30 44 1 18 41
M  V30 45 1 19 42
M  V30 46 1 21 43
M  V30 47 1 22 44
M  V30 48 1 23 45
M  V30 49 1 24 46
M  V30 50 1 25 47
M  V30 51 1 26 48
M  V30 END BOND
M  V30 END CTAB
M  END
>  <Dataset>  (960) 
ChEMBL_Kinases

>  <Ligand_Instance>  (960) 
nan

>  <PDB_ID>  (960) 
nan

>  <Standardized_SMILES>  (960) 
Cn1nccc1-c1coc(C(=O)NC2CNCCC2c2ccccc2)c1

>  <Name>  (960) 
nan

>  <Pocket>  (960) 
nan

>  <ATP_Site>  (960) 
nan

>  <Peripheral>  (960) 
nan

>  <Num_H_Atoms_ProtBoundConf>  (960) 
nan

>  <Num_Resolved_Atoms>  (960) 
nan

>  <Num_Not_Resolved_Atoms>  (960) 
nan

$$$$
CHEMBL4750571
     RDKit          3D

  0  0  0  0  0  0  0  0  0  0999 V3000
M  V30 BEGIN CTAB
M  V30 COUNTS 43 46 0 0 0
M  V30 BEGIN ATOM
M  V30 1 N 0.919711 -5.630062 0.999382 0
M  V30 2 C 1.044329 -4.216394 0.879811 0
M  V30 3 N 2.229831 -3.637373 0.604374 0
M  V30 4 C 2.351058 -2.293652 0.490099 0
M  V30 5 C 1.242278 -1.475181 0.656532 0
M  V30 6 C 1.278109 -0.018737 0.551846 0
M  V30 7 C 0.129552 0.628331 0.083530 0
M  V30 8 C 0.073787 2.015261 -0.048540 0
M  V30 9 C 1.197524 2.756737 0.298768 0
M  V30 10 C 2.342001 2.136740 0.763443 0
M  V30 11 C 2.391280 0.757191 0.892569 0
M  V30 12 C 3.388273 3.122357 1.063360 0
M  V30 13 C 2.737886 4.446356 0.814920 0
M  V30 14 C 1.372826 4.219993 0.244145 0 CFG=1
M  V30 15 C 1.248033 4.744057 -1.146745 0
M  V30 16 O 1.021066 3.961340 -2.089135 0
M  V30 17 O 1.381895 6.083678 -1.392955 0
M  V30 18 C 0.026410 -2.081280 0.939847 0
M  V30 19 C -0.098401 -3.463502 1.057426 0
M  V30 20 C -1.423194 -4.011683 1.358349 0
M  V30 21 C -2.091509 -3.317462 2.375401 0
M  V30 22 C -3.351481 -3.685103 2.798478 0
M  V30 23 C -3.920362 -4.763727 2.175954 0
M  V30 24 Cl -5.536065 -5.257534 2.698354 0
M  V30 25 C -3.297313 -5.473297 1.172248 0
M  V30 26 C -2.026435 -5.098248 0.749318 0
M  V30 27 H 1.245986 -5.933987 1.963695 0
M  V30 28 H 1.122966 -6.323634 1.760888 0
M  V30 29 H 3.285470 -1.777146 0.268905 0
M  V30 30 H -0.788365 0.115439 -0.207592 0
M  V30 31 H -0.823252 2.508120 -0.413307 0
M  V30 32 H 3.273467 0.239264 1.253946 0
M  V30 33 H 4.255589 2.924383 0.412644 0
M  V30 34 H 3.647161 3.002499 2.148412 0
M  V30 35 H 3.377914 5.029938 0.098729 0
M  V30 36 H 2.700131 5.044802 1.765906 0
M  V30 37 H 0.646708 4.770366 0.861142 0
M  V30 38 H 0.952627 6.552523 -2.206339 0
M  V30 39 H -0.848690 -1.472812 1.073667 0
M  V30 40 H -1.654752 -2.449272 2.889139 0
M  V30 41 H -3.868468 -3.149002 3.584430 0
M  V30 42 H -3.740496 -6.333003 0.670054 0
M  V30 43 H -1.440114 -5.576665 -0.026308 0
M  V30 END ATOM
M  V30 BEGIN BOND
M  V30 1 1 1 2
M  V30 2 2 2 3
M  V30 3 1 3 4
M  V30 4 2 4 5
M  V30 5 1 5 6
M  V30 6 2 6 7
M  V30 7 1 7 8
M  V30 8 2 8 9
M  V30 9 1 9 10
M  V30 10 2 10 11
M  V30 11 1 10 12
M  V30 12 1 12 13
M  V30 13 1 13 14
M  V30 14 1 14 15
M  V30 15 2 15 16
M  V30 16 1 15 17
M  V30 17 1 5 18
M  V30 18 2 18 19
M  V30 19 1 19 20
M  V30 20 2 20 21
M  V30 21 1 21 22
M  V30 22 2 22 23
M  V30 23 1 23 24
M  V30 24 1 23 25
M  V30 25 2 25 26
M  V30 26 1 19 2
M  V30 27 1 26 20
M  V30 28 1 11 6
M  V30 29 1 14 9
M  V30 30 1 1 27
M  V30 31 1 1 28
M  V30 32 1 4 29
M  V30 33 1 7 30
M  V30 34 1 8 31
M  V30 35 1 11 32
M  V30 36 1 12 33
M  V30 37 1 12 34
M  V30 38 1 13 35
M  V30 39 1 13 36
M  V30 40 1 14 37 CFG=1
M  V30 41 1 17 38
M  V30 42 1 18 39
M  V30 43 1 21 40
M  V30 44 1 22 41
M  V30 45 1 25 42
M  V30 46 1 26 43
M  V30 END BOND
M  V30 END CTAB
M  END
>  <Dataset>  (961) 
ChEMBL_Kinases

>  <Ligand_Instance>  (961) 
nan

>  <PDB_ID>  (961) 
nan

>  <Standardized_SMILES>  (961) 
Nc1ncc(-c2ccc3c(c2)CC[C@H]3C(=O)O)cc1-c1ccc(Cl)cc1

>  <Name>  (961) 
nan

>  <Pocket>  (961) 
nan

>  <ATP_Site>  (961) 
nan

>  <Peripheral>  (961) 
nan

>  <Num_H_Atoms_ProtBoundConf>  (961) 
nan

>  <Num_Resolved_Atoms>  (961) 
nan

>  <Num_Not_Resolved_Atoms>  (961) 
nan

$$$$
CHEMBL4750633
     RDKit          3D

  0  0  0  0  0  0  0  0  0  0999 V3000
M  V30 BEGIN CTAB
M  V30 COUNTS 53 60 0 0 0
M  V30 BEGIN ATOM
M  V30 1 C 3.129606 -2.047034 -0.464402 0
M  V30 2 C 1.984173 -1.551898 0.427057 0 CFG=2
M  V30 3 O 2.247320 -0.167074 0.548794 0
M  V30 4 C 1.818210 0.275313 1.756573 0 CFG=2
M  V30 5 C 1.623436 -0.922406 2.657014 0
M  V30 6 C 2.173366 -2.045835 1.810348 0 CFG=1
M  V30 7 O 1.543767 -3.259879 2.062783 0
M  V30 8 C 3.652708 -2.154403 2.069913 0
M  V30 9 O 4.303937 -3.164601 2.446156 0
M  V30 10 O 4.461008 -1.051324 1.895777 0
M  V30 11 N 0.462519 0.824556 1.565124 0
M  V30 12 C -0.118097 1.918670 2.103459 0
M  V30 13 C 0.474931 2.814334 2.967117 0
M  V30 14 C -0.235499 3.894714 3.444832 0
M  V30 15 C -1.547810 3.999733 2.999413 0
M  V30 16 C -2.092479 3.093330 2.147336 0
M  V30 17 C -1.417769 2.028970 1.666737 0
M  V30 18 C -1.633686 0.972734 0.839442 0
M  V30 19 C -2.721190 0.581018 0.155660 0
M  V30 20 C -2.659574 -0.563287 -0.603152 0
M  V30 21 C -1.483631 -1.307117 -0.663495 0
M  V30 22 C -1.118440 -2.460269 -1.308322 0
M  V30 23 C -1.833479 -3.296235 -2.138027 0
M  V30 24 C -1.230182 -4.432326 -2.669337 0
M  V30 25 C 0.090153 -4.648260 -2.313508 0
M  V30 26 C 0.777346 -3.794965 -1.482649 0
M  V30 27 C 0.178670 -2.691321 -0.972238 0
M  V30 28 N 0.683748 -1.761932 -0.151308 0
M  V30 29 C -0.383373 -0.918909 0.021031 0
M  V30 30 C -0.476976 0.239771 0.780675 0
M  V30 31 C -3.939249 -0.865023 -1.297143 0
M  V30 32 N -4.794013 0.240242 -0.870043 0
M  V30 33 C -4.060095 1.078886 -0.016016 0
M  V30 34 O -4.654319 2.066303 0.431756 0
M  V30 35 H 2.889360 -1.995394 -1.534750 0
M  V30 36 H 3.553196 -3.006014 -0.107497 0
M  V30 37 H 4.025269 -1.343498 -0.371496 0
M  V30 38 H 2.498062 1.021079 2.175180 0
M  V30 39 H 0.566447 -1.133366 2.906293 0
M  V30 40 H 2.220918 -0.785134 3.593592 0
M  V30 41 H 0.996845 -3.149084 2.864259 0
M  V30 42 H 5.425299 -0.975319 2.194926 0
M  V30 43 H 1.489209 2.706148 3.292414 0
M  V30 44 H 0.194973 4.616231 4.121880 0
M  V30 45 H -2.085670 4.872481 3.399585 0
M  V30 46 H -3.085670 3.292741 1.894323 0
M  V30 47 H -2.861120 -3.084995 -2.385806 0
M  V30 48 H -1.819425 -5.073371 -3.321369 0
M  V30 49 H 0.555894 -5.526442 -2.724218 0
M  V30 50 H 1.797386 -4.025905 -1.235297 0
M  V30 51 H -4.380748 -1.797566 -0.919850 0
M  V30 52 H -3.839974 -0.798099 -2.386550 0
M  V30 53 H -5.759220 0.247046 -1.235377 0
M  V30 END ATOM
M  V30 BEGIN BOND
M  V30 1 1 2 1 CFG=3
M  V30 2 1 2 3
M  V30 3 1 3 4
M  V30 4 1 4 5
M  V30 5 1 5 6
M  V30 6 1 6 7 CFG=3
M  V30 7 1 6 8
M  V30 8 2 8 9
M  V30 9 1 8 10
M  V30 10 1 4 11
M  V30 11 1 11 12
M  V30 12 2 12 13
M  V30 13 1 13 14
M  V30 14 2 14 15
M  V30 15 1 15 16
M  V30 16 2 16 17
M  V30 17 1 17 18
M  V30 18 2 18 19
M  V30 19 1 19 20
M  V30 20 2 20 21
M  V30 21 1 21 22
M  V30 22 2 22 23
M  V30 23 1 23 24
M  V30 24 2 24 25
M  V30 25 1 25 26
M  V30 26 2 26 27
M  V30 27 1 27 28
M  V30 28 1 28 29
M  V30 29 2 29 30
M  V30 30 1 20 31
M  V30 31 1 31 32
M  V30 32 1 32 33
M  V30 33 2 33 34
M  V30 34 1 6 2
M  V30 35 1 30 11
M  V30 36 1 28 2
M  V30 37 1 17 12
M  V30 38 1 30 18
M  V30 39 1 33 19
M  V30 40 1 29 21
M  V30 41 1 27 22
M  V30 42 1 1 35
M  V30 43 1 1 36
M  V30 44 1 1 37
M  V30 45 1 4 38 CFG=1
M  V30 46 1 5 39
M  V30 47 1 5 40
M  V30 48 1 7 41
M  V30 49 1 10 42
M  V30 50 1 13 43
M  V30 51 1 14 44
M  V30 52 1 15 45
M  V30 53 1 16 46
M  V30 54 1 23 47
M  V30 55 1 24 48
M  V30 56 1 25 49
M  V30 57 1 26 50
M  V30 58 1 31 51
M  V30 59 1 31 52
M  V30 60 1 32 53
M  V30 END BOND
M  V30 END CTAB
M  END
>  <Dataset>  (962) 
ChEMBL_Kinases

>  <Ligand_Instance>  (962) 
nan

>  <PDB_ID>  (962) 
nan

>  <Standardized_SMILES>  (962) 
C[C@]12O[C@H](C[C@]1(O)C(=O)O)n1c3ccccc3c3c4c(c5c6ccccc6n2c5c31)CNC4=O

>  <Name>  (962) 
nan

>  <Pocket>  (962) 
nan

>  <ATP_Site>  (962) 
nan

>  <Peripheral>  (962) 
nan

>  <Num_H_Atoms_ProtBoundConf>  (962) 
nan

>  <Num_Resolved_Atoms>  (962) 
nan

>  <Num_Not_Resolved_Atoms>  (962) 
nan

$$$$
CHEMBL4446015
     RDKit          3D

  0  0  0  0  0  0  0  0  0  0999 V3000
M  V30 BEGIN CTAB
M  V30 COUNTS 51 55 0 0 0
M  V30 BEGIN ATOM
M  V30 1 F 1.912077 -5.173966 1.314528 0
M  V30 2 C 1.660807 -3.862445 1.128364 0
M  V30 3 C 1.661173 -3.361212 -0.170057 0
M  V30 4 C 1.408088 -2.015429 -0.424429 0
M  V30 5 C 1.156581 -1.197775 0.664723 0
M  V30 6 C 0.904008 0.199876 0.245633 0
M  V30 7 N 1.756503 1.149558 0.658529 0
M  V30 8 C 1.646516 2.302979 0.380547 0
M  V30 9 C 2.503629 3.493973 0.755986 0
M  V30 10 C 3.942644 3.253928 0.381290 0
M  V30 11 C 4.709553 2.686726 1.582312 0
M  V30 12 N 3.868205 1.725556 2.265142 0
M  V30 13 C 2.853305 2.443699 3.010221 0
M  V30 14 C 2.447881 3.691790 2.260820 0
M  V30 15 S 0.131200 2.435099 -0.674225 0
M  V30 16 C -0.174804 0.599655 -0.559249 0
M  V30 17 C -1.157400 -0.329947 -1.061806 0
M  V30 18 C -1.418130 -0.576142 -2.389370 0
M  V30 19 C -2.393725 -1.501876 -2.676686 0
M  V30 20 N -3.034620 -2.111120 -1.672646 0
M  V30 21 C -2.807814 -1.896878 -0.369779 0
M  V30 22 N -3.463144 -2.522834 0.719838 0
M  V30 23 C -4.480923 -3.500774 0.662883 0
M  V30 24 C -5.030912 -4.035187 -0.477745 0
M  V30 25 N -6.000497 -4.966030 -0.456395 0
M  V30 26 C -6.496201 -5.435588 0.711143 0
M  V30 27 C -5.956176 -4.910695 1.863758 0
M  V30 28 N -4.991055 -3.984369 1.806395 0
M  V30 29 N -1.852130 -0.990024 -0.130537 0
M  V30 30 C 1.152057 -1.677143 1.960239 0
M  V30 31 C 1.405738 -3.012864 2.180883 0
M  V30 32 H 1.865013 -4.040073 -1.012304 0
M  V30 33 H 1.427461 -1.711550 -1.455107 0
M  V30 34 H 2.085851 4.415399 0.299560 0
M  V30 35 H 4.078457 2.543275 -0.457361 0
M  V30 36 H 4.394061 4.254410 0.171096 0
M  V30 37 H 5.014815 3.507229 2.255344 0
M  V30 38 H 5.601699 2.117426 1.198184 0
M  V30 39 H 4.480257 1.215470 2.938603 0
M  V30 40 H 3.300008 2.692189 4.006214 0
M  V30 41 H 1.974381 1.806108 3.220817 0
M  V30 42 H 3.210737 4.460022 2.497682 0
M  V30 43 H 1.477858 4.085495 2.608212 0
M  V30 44 H -0.847184 -0.033467 -3.128320 0
M  V30 45 H -2.623583 -1.719376 -3.711500 0
M  V30 46 H -3.153940 -2.222697 1.683276 0
M  V30 47 H -4.688269 -3.712306 -1.437728 0
M  V30 48 H -7.273697 -6.181889 0.762185 0
M  V30 49 H -6.278504 -5.214460 2.867547 0
M  V30 50 H 0.941858 -0.937631 2.725976 0
M  V30 51 H 1.397992 -3.370822 3.201974 0
M  V30 END ATOM
M  V30 BEGIN BOND
M  V30 1 1 1 2
M  V30 2 2 2 3
M  V30 3 1 3 4
M  V30 4 2 4 5
M  V30 5 1 5 6
M  V30 6 1 6 7
M  V30 7 2 7 8
M  V30 8 1 8 9
M  V30 9 1 9 10
M  V30 10 1 10 11
M  V30 11 1 11 12
M  V30 12 1 12 13
M  V30 13 1 13 14
M  V30 14 1 8 15
M  V30 15 1 15 16
M  V30 16 1 16 17
M  V30 17 2 17 18
M  V30 18 1 18 19
M  V30 19 2 19 20
M  V30 20 1 20 21
M  V30 21 1 21 22
M  V30 22 1 22 23
M  V30 23 2 23 24
M  V30 24 1 24 25
M  V30 25 2 25 26
M  V30 26 1 26 27
M  V30 27 2 27 28
M  V30 28 2 21 29
M  V30 29 1 5 30
M  V30 30 2 30 31
M  V30 31 1 31 2
M  V30 32 2 16 6
M  V30 33 1 29 17
M  V30 34 1 14 9
M  V30 35 1 28 23
M  V30 36 1 3 32
M  V30 37 1 4 33
M  V30 38 1 9 34
M  V30 39 1 10 35
M  V30 40 1 10 36
M  V30 41 1 11 37
M  V30 42 1 11 38
M  V30 43 1 12 39
M  V30 44 1 13 40
M  V30 45 1 13 41
M  V30 46 1 14 42
M  V30 47 1 14 43
M  V30 48 1 18 44
M  V30 49 1 19 45
M  V30 50 1 22 46
M  V30 51 1 24 47
M  V30 52 1 26 48
M  V30 53 1 27 49
M  V30 54 1 30 50
M  V30 55 1 31 51
M  V30 END BOND
M  V30 END CTAB
M  END
>  <Dataset>  (963) 
ChEMBL_Kinases

>  <Ligand_Instance>  (963) 
nan

>  <PDB_ID>  (963) 
nan

>  <Standardized_SMILES>  (963) 
Fc1ccc(-c2nc(C3CCNCC3)sc2-c2ccnc(Nc3cnccn3)n2)cc1

>  <Name>  (963) 
nan

>  <Pocket>  (963) 
nan

>  <ATP_Site>  (963) 
nan

>  <Peripheral>  (963) 
nan

>  <Num_H_Atoms_ProtBoundConf>  (963) 
nan

>  <Num_Resolved_Atoms>  (963) 
nan

>  <Num_Not_Resolved_Atoms>  (963) 
nan

$$$$
CHEMBL444630
     RDKit          3D

  0  0  0  0  0  0  0  0  0  0999 V3000
M  V30 BEGIN CTAB
M  V30 COUNTS 64 69 0 0 0
M  V30 BEGIN ATOM
M  V30 1 C 5.354660 1.396533 3.691461 0
M  V30 2 O 4.161575 0.680277 3.931101 0
M  V30 3 C 3.305696 0.270179 2.944628 0
M  V30 4 C 3.403724 0.450220 1.577494 0
M  V30 5 C 2.438752 -0.034468 0.715174 0
M  V30 6 C 1.360848 -0.710821 1.251636 0
M  V30 7 C 1.198887 -0.927022 2.605896 0
M  V30 8 C 2.188586 -0.424190 3.427446 0
M  V30 9 C 1.972990 -0.678535 4.868782 0
M  V30 10 O 2.414395 -1.713144 5.443616 0
M  V30 11 N 1.226594 0.370338 5.484669 0
M  V30 12 C 0.623993 1.634933 5.031752 0
M  V30 13 C -0.752323 1.812481 5.579208 0
M  V30 14 N -1.327239 0.583942 6.080572 0
M  V30 15 C -2.677490 0.734614 6.525017 0
M  V30 16 C -0.542921 -0.008419 7.144767 0
M  V30 17 C 0.923677 0.273784 6.921734 0
M  V30 18 C 0.456097 -1.136782 0.127123 0
M  V30 19 C 1.157498 -0.618883 -1.076877 0
M  V30 20 C 1.101983 -0.526908 -2.454247 0
M  V30 21 C 0.047958 -1.063764 -3.314970 0
M  V30 22 C 0.350808 -1.756673 -4.470654 0
M  V30 23 C -0.630028 -2.274101 -5.303179 0
M  V30 24 C -1.942707 -2.060704 -4.916523 0
M  V30 25 C -2.971234 -2.621756 -5.819727 0
M  V30 26 C -2.661430 -3.795407 -6.508794 0
M  V30 27 C -3.630651 -4.329790 -7.364867 0
M  V30 28 C -4.819124 -3.634262 -7.447379 0
M  V30 29 O -5.784870 -4.178321 -8.308715 0
M  V30 30 C -5.150623 -2.474268 -6.778680 0
M  V30 31 C -4.172011 -1.959199 -5.931839 0
M  V30 32 C -2.328777 -1.376480 -3.773119 0
M  V30 33 C -1.292874 -0.888363 -2.990510 0
M  V30 34 N 2.193163 0.148839 -2.900932 0
M  V30 35 N 2.948018 0.493356 -1.846893 0
M  V30 36 C 2.332942 0.035375 -0.740900 0
M  V30 37 H 6.256262 0.726106 3.786946 0
M  V30 38 H 5.417324 2.225254 4.451562 0
M  V30 39 H 5.405446 1.884732 2.707437 0
M  V30 40 H 4.281115 0.989648 1.262007 0
M  V30 41 H 0.343216 -1.460062 2.988366 0
M  V30 42 H 0.631047 1.711957 3.946380 0
M  V30 43 H 1.251688 2.452107 5.456302 0
M  V30 44 H -1.420055 2.144414 4.758050 0
M  V30 45 H -0.829515 2.553385 6.382877 0
M  V30 46 H -2.859940 0.051714 7.403789 0
M  V30 47 H -2.816861 1.752678 6.929462 0
M  V30 48 H -3.433164 0.446609 5.765742 0
M  V30 49 H -0.850622 0.529701 8.071875 0
M  V30 50 H -0.746483 -1.098805 7.224001 0
M  V30 51 H 1.486994 -0.568169 7.376567 0
M  V30 52 H 1.189636 1.180678 7.472169 0
M  V30 53 H -0.557352 -0.755120 0.240786 0
M  V30 54 H 0.494036 -2.253986 0.033522 0
M  V30 55 H 1.374660 -1.927289 -4.779075 0
M  V30 56 H -0.381895 -2.813379 -6.203157 0
M  V30 57 H -1.736421 -4.320607 -6.433048 0
M  V30 58 H -3.472037 -5.233272 -7.934258 0
M  V30 59 H -6.735405 -3.832401 -8.357767 0
M  V30 60 H -6.123728 -2.029935 -6.935917 0
M  V30 61 H -4.406414 -1.062982 -5.404703 0
M  V30 62 H -3.369679 -1.246741 -3.531946 0
M  V30 63 H -1.523951 -0.351456 -2.095060 0
M  V30 64 H 3.864023 1.027236 -1.852468 0
M  V30 END ATOM
M  V30 BEGIN BOND
M  V30 1 1 1 2
M  V30 2 1 2 3
M  V30 3 2 3 4
M  V30 4 1 4 5
M  V30 5 2 5 6
M  V30 6 1 6 7
M  V30 7 2 7 8
M  V30 8 1 8 9
M  V30 9 2 9 10
M  V30 10 1 9 11
M  V30 11 1 11 12
M  V30 12 1 12 13
M  V30 13 1 13 14
M  V30 14 1 14 15
M  V30 15 1 14 16
M  V30 16 1 16 17
M  V30 17 1 6 18
M  V30 18 1 18 19
M  V30 19 1 19 20
M  V30 20 1 20 21
M  V30 21 2 21 22
M  V30 22 1 22 23
M  V30 23 2 23 24
M  V30 24 1 24 25
M  V30 25 2 25 26
M  V30 26 1 26 27
M  V30 27 2 27 28
M  V30 28 1 28 29
M  V30 29 1 28 30
M  V30 30 2 30 31
M  V30 31 1 24 32
M  V30 32 2 32 33
M  V30 33 2 20 34
M  V30 34 1 34 35
M  V30 35 1 35 36
M  V30 36 1 8 3
M  V30 37 1 17 11
M  V30 38 2 36 19
M  V30 39 1 36 5
M  V30 40 1 33 21
M  V30 41 1 31 25
M  V30 42 1 1 37
M  V30 43 1 1 38
M  V30 44 1 1 39
M  V30 45 1 4 40
M  V30 46 1 7 41
M  V30 47 1 12 42
M  V30 48 1 12 43
M  V30 49 1 13 44
M  V30 50 1 13 45
M  V30 51 1 15 46
M  V30 52 1 15 47
M  V30 53 1 15 48
M  V30 54 1 16 49
M  V30 55 1 16 50
M  V30 56 1 17 51
M  V30 57 1 17 52
M  V30 58 1 18 53
M  V30 59 1 18 54
M  V30 60 1 22 55
M  V30 61 1 23 56
M  V30 62 1 26 57
M  V30 63 1 27 58
M  V30 64 1 29 59
M  V30 65 1 30 60
M  V30 66 1 31 61
M  V30 67 1 32 62
M  V30 68 1 33 63
M  V30 69 1 35 64
M  V30 END BOND
M  V30 END CTAB
M  END
>  <Dataset>  (964) 
ChEMBL_Kinases

>  <Ligand_Instance>  (964) 
nan

>  <PDB_ID>  (964) 
nan

>  <Standardized_SMILES>  (964) 
COc1cc2c(cc1C(=O)N1CCN(C)CC1)Cc1c(-c3ccc(-c4ccc(O)cc4)cc3)n[nH]c1-2

>  <Name>  (964) 
nan

>  <Pocket>  (964) 
nan

>  <ATP_Site>  (964) 
nan

>  <Peripheral>  (964) 
nan

>  <Num_H_Atoms_ProtBoundConf>  (964) 
nan

>  <Num_Resolved_Atoms>  (964) 
nan

>  <Num_Not_Resolved_Atoms>  (964) 
nan

$$$$
CHEMBL4446217
     RDKit          3D

  0  0  0  0  0  0  0  0  0  0999 V3000
M  V30 BEGIN CTAB
M  V30 COUNTS 40 43 0 0 0
M  V30 BEGIN ATOM
M  V30 1 C -0.435000 -3.015489 1.867130 0
M  V30 2 C -0.643215 -1.757827 2.688317 0
M  V30 3 N -1.320510 -0.674091 2.014287 0
M  V30 4 C -0.754246 -0.065248 0.862350 0
M  V30 5 C 0.454954 -0.456432 0.335476 0
M  V30 6 C 1.032782 0.108446 -0.780009 0
M  V30 7 C 2.314985 -0.312154 -1.332183 0
M  V30 8 C 3.117106 -1.314187 -0.828816 0
M  V30 9 C 4.323134 -1.666667 -1.397698 0
M  V30 10 N 4.756881 -1.017710 -2.493357 0
M  V30 11 C 4.021152 -0.030035 -3.033838 0
M  V30 12 C 2.821792 0.309686 -2.455682 0
M  V30 13 N 0.362572 1.118582 -1.399207 0
M  V30 14 C -0.824172 1.554442 -0.941621 0
M  V30 15 C -1.442151 2.585055 -1.626503 0
M  V30 16 N -2.647673 3.036103 -1.171281 0
M  V30 17 C -3.216246 2.483604 -0.077587 0
M  V30 18 C -2.566335 1.458133 0.575613 0
M  V30 19 C -1.365153 0.959257 0.178840 0
M  V30 20 C 0.676513 -1.351912 3.320506 0
M  V30 21 C -0.034135 -1.308788 4.655609 0
M  V30 22 C -1.217305 -2.024456 4.047993 0
M  V30 23 H -0.770605 -2.805077 0.842216 0
M  V30 24 H 0.622353 -3.339977 1.820658 0
M  V30 25 H -1.065434 -3.852000 2.281739 0
M  V30 26 H -2.228831 -0.373472 2.413768 0
M  V30 27 H 1.023647 -1.235364 0.775105 0
M  V30 28 H 2.795839 -1.842014 0.036873 0
M  V30 29 H 4.900711 -2.478836 -0.931118 0
M  V30 30 H 4.359301 0.497628 -3.912976 0
M  V30 31 H 2.253855 1.121166 -2.929251 0
M  V30 32 H -0.944443 3.006174 -2.512075 0
M  V30 33 H -4.171476 2.910518 0.203272 0
M  V30 34 H -3.087343 1.085032 1.424744 0
M  V30 35 H 0.945360 -0.311366 2.978678 0
M  V30 36 H 1.489333 -2.079566 3.219191 0
M  V30 37 H 0.433598 -1.937864 5.439099 0
M  V30 38 H -0.290198 -0.269184 4.990009 0
M  V30 39 H -1.302088 -3.095931 4.330355 0
M  V30 40 H -2.175831 -1.466622 4.227202 0
M  V30 END ATOM
M  V30 BEGIN BOND
M  V30 1 1 1 2
M  V30 2 1 2 3
M  V30 3 1 3 4
M  V30 4 2 4 5
M  V30 5 1 5 6
M  V30 6 1 6 7
M  V30 7 2 7 8
M  V30 8 1 8 9
M  V30 9 2 9 10
M  V30 10 1 10 11
M  V30 11 2 11 12
M  V30 12 2 6 13
M  V30 13 1 13 14
M  V30 14 2 14 15
M  V30 15 1 15 16
M  V30 16 2 16 17
M  V30 17 1 17 18
M  V30 18 2 18 19
M  V30 19 1 2 20
M  V30 20 1 20 21
M  V30 21 1 21 22
M  V30 22 1 22 2
M  V30 23 1 19 4
M  V30 24 1 12 7
M  V30 25 1 19 14
M  V30 26 1 1 23
M  V30 27 1 1 24
M  V30 28 1 1 25
M  V30 29 1 3 26
M  V30 30 1 5 27
M  V30 31 1 8 28
M  V30 32 1 9 29
M  V30 33 1 11 30
M  V30 34 1 12 31
M  V30 35 1 15 32
M  V30 36 1 17 33
M  V30 37 1 18 34
M  V30 38 1 20 35
M  V30 39 1 20 36
M  V30 40 1 21 37
M  V30 41 1 21 38
M  V30 42 1 22 39
M  V30 43 1 22 40
M  V30 END BOND
M  V30 END CTAB
M  END
>  <Dataset>  (965) 
ChEMBL_Kinases

>  <Ligand_Instance>  (965) 
nan

>  <PDB_ID>  (965) 
nan

>  <Standardized_SMILES>  (965) 
CC1(Nc2cc(-c3ccncc3)nc3cnccc23)CCC1

>  <Name>  (965) 
nan

>  <Pocket>  (965) 
nan

>  <ATP_Site>  (965) 
nan

>  <Peripheral>  (965) 
nan

>  <Num_H_Atoms_ProtBoundConf>  (965) 
nan

>  <Num_Resolved_Atoms>  (965) 
nan

>  <Num_Not_Resolved_Atoms>  (965) 
nan

$$$$
CHEMBL4750648
     RDKit          3D

  0  0  0  0  0  0  0  0  0  0999 V3000
M  V30 BEGIN CTAB
M  V30 COUNTS 54 57 0 0 0
M  V30 BEGIN ATOM
M  V30 1 C 2.623442 -3.903645 3.858934 0
M  V30 2 C 3.604201 -3.150798 3.003946 0
M  V30 3 O 4.451870 -3.985114 2.553246 0
M  V30 4 N 3.603207 -1.753402 2.733399 0
M  V30 5 C 4.619630 -1.203016 1.891987 0 CFG=2
M  V30 6 C 5.483841 -0.176341 2.539981 0
M  V30 7 C 4.982511 1.196324 2.245818 0
M  V30 8 C 3.517263 1.317932 2.013397 0
M  V30 9 C 3.130029 0.496678 0.807890 0 CFG=2
M  V30 10 C 1.761965 -0.046882 0.910433 0
M  V30 11 O 1.334714 -1.252561 0.907484 0
M  V30 12 N 0.628000 0.825394 1.039974 0
M  V30 13 C -0.590004 0.047236 1.120744 0
M  V30 14 C -1.255571 -0.265223 -0.071089 0
M  V30 15 C -2.432707 -1.013846 -0.037971 0
M  V30 16 C -3.127595 -1.340652 -1.278803 0
M  V30 17 C -2.879735 -2.492031 -2.035444 0
M  V30 18 N -3.723233 -2.409767 -3.089582 0
M  V30 19 N -4.456154 -1.320471 -3.042638 0
M  V30 20 C -4.099664 -0.653222 -1.932981 0
M  V30 21 N -4.741363 0.592475 -1.615093 0
M  V30 22 C -6.102111 0.881977 -1.995722 0
M  V30 23 C -6.610596 -0.166841 -2.956454 0
M  V30 24 C -5.493596 -0.695814 -3.843838 0
M  V30 25 C -2.887066 -1.416212 1.213630 0
M  V30 26 Cl -4.378342 -2.364840 1.258858 0
M  V30 27 C -2.222397 -1.102731 2.388297 0
M  V30 28 N -1.077148 -0.369891 2.307131 0
M  V30 29 C 4.076489 -0.664548 0.595052 0
M  V30 30 H 3.116710 -4.588512 4.560934 0
M  V30 31 H 1.992735 -3.187675 4.434228 0
M  V30 32 H 1.912582 -4.493056 3.245406 0
M  V30 33 H 2.808695 -1.333472 3.226350 0
M  V30 34 H 5.273632 -2.074683 1.591441 0
M  V30 35 H 6.537875 -0.332823 2.249404 0
M  V30 36 H 5.386993 -0.337928 3.644576 0
M  V30 37 H 5.577282 1.572535 1.362555 0
M  V30 38 H 5.311277 1.881698 3.076516 0
M  V30 39 H 2.986234 1.040043 2.938333 0
M  V30 40 H 3.306727 2.379881 1.772368 0
M  V30 41 H 3.171835 1.117922 -0.085206 0
M  V30 42 H 0.738254 1.879873 1.065901 0
M  V30 43 H -0.852588 0.076477 -1.016639 0
M  V30 44 H -2.187770 -3.305675 -1.876490 0
M  V30 45 H -4.173717 1.293056 -1.087898 0
M  V30 46 H -6.761888 0.810775 -1.091088 0
M  V30 47 H -6.245586 1.897507 -2.422078 0
M  V30 48 H -7.372385 0.273469 -3.624207 0
M  V30 49 H -7.071111 -1.031730 -2.435527 0
M  V30 50 H -5.100370 0.123790 -4.492370 0
M  V30 51 H -5.944642 -1.503738 -4.466500 0
M  V30 52 H -2.617273 -1.440464 3.345499 0
M  V30 53 H 4.859148 -0.375406 -0.106600 0
M  V30 54 H 3.498431 -1.475480 0.109207 0
M  V30 END ATOM
M  V30 BEGIN BOND
M  V30 1 1 1 2
M  V30 2 2 2 3
M  V30 3 1 2 4
M  V30 4 1 4 5
M  V30 5 1 5 6
M  V30 6 1 6 7
M  V30 7 1 7 8
M  V30 8 1 8 9
M  V30 9 1 9 10
M  V30 10 2 10 11
M  V30 11 1 10 12
M  V30 12 1 12 13
M  V30 13 2 13 14
M  V30 14 1 14 15
M  V30 15 1 15 16
M  V30 16 1 16 17
M  V30 17 2 17 18
M  V30 18 1 18 19
M  V30 19 1 19 20
M  V30 20 1 20 21
M  V30 21 1 21 22
M  V30 22 1 22 23
M  V30 23 1 23 24
M  V30 24 2 15 25
M  V30 25 1 25 26
M  V30 26 1 25 27
M  V30 27 2 27 28
M  V30 28 1 9 29
M  V30 29 1 29 5
M  V30 30 1 28 13
M  V30 31 2 20 16
M  V30 32 1 24 19
M  V30 33 1 1 30
M  V30 34 1 1 31
M  V30 35 1 1 32
M  V30 36 1 4 33
M  V30 37 1 5 34 CFG=3
M  V30 38 1 6 35
M  V30 39 1 6 36
M  V30 40 1 7 37
M  V30 41 1 7 38
M  V30 42 1 8 39
M  V30 43 1 8 40
M  V30 44 1 9 41 CFG=3
M  V30 45 1 12 42
M  V30 46 1 14 43
M  V30 47 1 17 44
M  V30 48 1 21 45
M  V30 49 1 22 46
M  V30 50 1 22 47
M  V30 51 1 23 48
M  V30 52 1 23 49
M  V30 53 1 24 50
M  V30 54 1 24 51
M  V30 55 1 27 52
M  V30 56 1 29 53
M  V30 57 1 29 54
M  V30 END BOND
M  V30 END CTAB
M  END
>  <Dataset>  (966) 
ChEMBL_Kinases

>  <Ligand_Instance>  (966) 
nan

>  <PDB_ID>  (966) 
nan

>  <Standardized_SMILES>  (966) 
CC(=O)N[C@@H]1CCC[C@H](C(=O)Nc2cc(-c3cnn4c3NCCC4)c(Cl)cn2)C1

>  <Name>  (966) 
nan

>  <Pocket>  (966) 
nan

>  <ATP_Site>  (966) 
nan

>  <Peripheral>  (966) 
nan

>  <Num_H_Atoms_ProtBoundConf>  (966) 
nan

>  <Num_Resolved_Atoms>  (966) 
nan

>  <Num_Not_Resolved_Atoms>  (966) 
nan

$$$$
CHEMBL4750700
     RDKit          3D

  0  0  0  0  0  0  0  0  0  0999 V3000
M  V30 BEGIN CTAB
M  V30 COUNTS 46 49 0 0 0
M  V30 BEGIN ATOM
M  V30 1 C 0.403885 -6.267544 0.667807 0
M  V30 2 C 0.526027 -5.637645 -0.709138 0
M  V30 3 N 1.388883 -4.474292 -0.607885 0
M  V30 4 C 2.801361 -4.523507 -0.335905 0
M  V30 5 C 3.300417 -3.312434 0.394053 0
M  V30 6 O 2.245339 -2.471729 0.829925 0
M  V30 7 C 1.214072 -2.100548 -0.031169 0
M  V30 8 C 0.644247 -0.828355 -0.174061 0
M  V30 9 C -0.376374 -0.643011 -1.084053 0
M  V30 10 N -0.938006 0.659577 -1.221056 0
M  V30 11 C -0.351806 1.655849 -0.381848 0
M  V30 12 N 0.735667 2.365434 -0.774323 0
M  V30 13 C 1.291154 3.298116 0.026577 0
M  V30 14 C 0.781124 3.572443 1.276763 0
M  V30 15 C 1.400521 4.588441 2.122645 0
M  V30 16 F 2.500544 5.146427 1.455598 0
M  V30 17 F 0.552082 5.682780 2.336030 0
M  V30 18 F 1.864345 4.165756 3.327925 0
M  V30 19 C -0.319834 2.861222 1.686064 0
M  V30 20 N -0.913139 3.055377 2.962681 0
M  V30 21 C -2.076461 2.458241 3.606064 0
M  V30 22 C -3.443414 2.724217 3.034255 0
M  V30 23 C -2.835276 1.375418 2.928972 0
M  V30 24 N -0.808244 1.952697 0.826185 0
M  V30 25 C -0.761371 -1.762175 -1.797905 0
M  V30 26 N -0.226455 -2.990290 -1.674279 0
M  V30 27 C 0.774302 -3.194347 -0.789762 0
M  V30 28 H 1.046771 -7.160659 0.796426 0
M  V30 29 H 0.679381 -5.529939 1.467191 0
M  V30 30 H -0.672057 -6.556015 0.794623 0
M  V30 31 H 1.088159 -6.393933 -1.319376 0
M  V30 32 H -0.432921 -5.410515 -1.164282 0
M  V30 33 H 3.340965 -4.701745 -1.292593 0
M  V30 34 H 2.975025 -5.424777 0.314173 0
M  V30 35 H 3.935408 -3.597785 1.248132 0
M  V30 36 H 3.916093 -2.697795 -0.277012 0
M  V30 37 H 1.063677 -0.063789 0.463155 0
M  V30 38 H -1.720450 0.759117 -1.917676 0
M  V30 39 H 2.157969 3.858179 -0.295877 0
M  V30 40 H -0.435100 3.772738 3.592365 0
M  V30 41 H -2.054018 2.352263 4.711024 0
M  V30 42 H -3.501016 3.423615 2.163301 0
M  V30 43 H -4.294959 2.906661 3.733756 0
M  V30 44 H -2.657090 1.021202 1.918018 0
M  V30 45 H -3.345586 0.602759 3.559460 0
M  V30 46 H -1.575544 -1.562171 -2.507067 0
M  V30 END ATOM
M  V30 BEGIN BOND
M  V30 1 1 1 2
M  V30 2 1 2 3
M  V30 3 1 3 4
M  V30 4 1 4 5
M  V30 5 1 5 6
M  V30 6 1 6 7
M  V30 7 2 7 8
M  V30 8 1 8 9
M  V30 9 1 9 10
M  V30 10 1 10 11
M  V30 11 2 11 12
M  V30 12 1 12 13
M  V30 13 2 13 14
M  V30 14 1 14 15
M  V30 15 1 15 16
M  V30 16 1 15 17
M  V30 17 1 15 18
M  V30 18 1 14 19
M  V30 19 1 19 20
M  V30 20 1 20 21
M  V30 21 1 21 22
M  V30 22 1 22 23
M  V30 23 2 19 24
M  V30 24 2 9 25
M  V30 25 1 25 26
M  V30 26 2 26 27
M  V30 27 1 27 3
M  V30 28 1 27 7
M  V30 29 1 24 11
M  V30 30 1 23 21
M  V30 31 1 1 28
M  V30 32 1 1 29
M  V30 33 1 1 30
M  V30 34 1 2 31
M  V30 35 1 2 32
M  V30 36 1 4 33
M  V30 37 1 4 34
M  V30 38 1 5 35
M  V30 39 1 5 36
M  V30 40 1 8 37
M  V30 41 1 10 38
M  V30 42 1 13 39
M  V30 43 1 20 40
M  V30 44 1 21 41
M  V30 45 1 22 42
M  V30 46 1 22 43
M  V30 47 1 23 44
M  V30 48 1 23 45
M  V30 49 1 25 46
M  V30 END BOND
M  V30 END CTAB
M  END
>  <Dataset>  (967) 
ChEMBL_Kinases

>  <Ligand_Instance>  (967) 
nan

>  <PDB_ID>  (967) 
nan

>  <Standardized_SMILES>  (967) 
CCN1CCOc2cc(Nc3ncc(C(F)(F)F)c(NC4CC4)n3)cnc21

>  <Name>  (967) 
nan

>  <Pocket>  (967) 
nan

>  <ATP_Site>  (967) 
nan

>  <Peripheral>  (967) 
nan

>  <Num_H_Atoms_ProtBoundConf>  (967) 
nan

>  <Num_Resolved_Atoms>  (967) 
nan

>  <Num_Not_Resolved_Atoms>  (967) 
nan

$$$$
CHEMBL4446192
     RDKit          3D

  0  0  0  0  0  0  0  0  0  0999 V3000
M  V30 BEGIN CTAB
M  V30 COUNTS 55 58 0 0 0
M  V30 BEGIN ATOM
M  V30 1 C -1.729061 -1.089850 5.851734 0
M  V30 2 O -0.339615 -1.038513 5.538475 0
M  V30 3 C 0.175179 -1.394772 4.301011 0
M  V30 4 C 1.552347 -1.290763 4.129110 0
M  V30 5 C 2.122675 -1.625491 2.924847 0
M  V30 6 C 1.383664 -2.069387 1.855951 0
M  V30 7 C 1.881590 -2.431849 0.518062 0
M  V30 8 O 1.894542 -3.574421 -0.016585 0
M  V30 9 N 2.417643 -1.388436 -0.305169 0
M  V30 10 C 2.484266 -0.028707 0.190405 0
M  V30 11 C 2.862409 0.942039 -0.909004 0
M  V30 12 C 1.779370 0.723462 -2.023194 0
M  V30 13 C 0.624854 1.259720 -1.418498 0
M  V30 14 N 0.699085 2.607552 -1.109404 0
M  V30 15 C -0.249696 3.278628 -0.501034 0
M  V30 16 N -1.394338 2.707024 -0.118105 0
M  V30 17 C -1.569680 1.410088 -0.369347 0
M  V30 18 C -2.761071 0.837780 0.015723 0
M  V30 19 C -2.929282 -0.514838 -0.274553 0
M  V30 20 O -4.127702 -1.106122 0.111476 0
M  V30 21 C -5.085469 -0.320996 0.768210 0
M  V30 22 C -1.916246 -1.207074 -0.921831 0
M  V30 23 O -2.220646 -2.524400 -1.148172 0
M  V30 24 C -1.383645 -3.451922 -1.799528 0
M  V30 25 C -0.730503 -0.611077 -1.296262 0
M  V30 26 C -0.576866 0.723191 -1.003012 0
M  V30 27 C 2.211798 -0.508952 -2.537206 0
M  V30 28 C 2.935733 -1.491344 -1.633870 0
M  V30 29 C 0.022447 -2.162796 2.060360 0
M  V30 30 C -0.605375 -1.836209 3.257918 0
M  V30 31 H -2.315379 -0.751801 4.956152 0
M  V30 32 H -2.031585 -2.111285 6.134865 0
M  V30 33 H -1.979610 -0.402665 6.666892 0
M  V30 34 H 2.220030 -0.951419 4.918220 0
M  V30 35 H 3.187035 -1.556158 2.776319 0
M  V30 36 H 1.538229 0.289968 0.625790 0
M  V30 37 H 3.326910 -0.035105 0.959153 0
M  V30 38 H 3.859242 0.786931 -1.319662 0
M  V30 39 H 2.748362 1.983349 -0.551378 0
M  V30 40 H 2.115865 1.526705 -2.771470 0
M  V30 41 H -0.154676 4.344898 -0.272451 0
M  V30 42 H -3.532988 1.401369 0.518425 0
M  V30 43 H -4.593894 0.088584 1.699681 0
M  V30 44 H -5.415901 0.503179 0.087886 0
M  V30 45 H -5.984990 -0.904417 1.039793 0
M  V30 46 H -1.556887 -3.338432 -2.903635 0
M  V30 47 H -0.319981 -3.334804 -1.555800 0
M  V30 48 H -1.780163 -4.467547 -1.565004 0
M  V30 49 H 0.012405 -1.182499 -1.776061 0
M  V30 50 H 3.093994 -0.239366 -3.255609 0
M  V30 51 H 1.639341 -1.040776 -3.369774 0
M  V30 52 H 4.041639 -1.425754 -1.671913 0
M  V30 53 H 2.707132 -2.510344 -2.049137 0
M  V30 54 H -0.614040 -2.512264 1.262057 0
M  V30 55 H -1.693413 -1.922848 3.385396 0
M  V30 END ATOM
M  V30 BEGIN BOND
M  V30 1 1 1 2
M  V30 2 1 2 3
M  V30 3 2 3 4
M  V30 4 1 4 5
M  V30 5 2 5 6
M  V30 6 1 6 7
M  V30 7 2 7 8
M  V30 8 1 7 9
M  V30 9 1 9 10
M  V30 10 1 10 11
M  V30 11 1 11 12
M  V30 12 1 12 13
M  V30 13 2 13 14
M  V30 14 1 14 15
M  V30 15 2 15 16
M  V30 16 1 16 17
M  V30 17 2 17 18
M  V30 18 1 18 19
M  V30 19 1 19 20
M  V30 20 1 20 21
M  V30 21 2 19 22
M  V30 22 1 22 23
M  V30 23 1 23 24
M  V30 24 1 22 25
M  V30 25 2 25 26
M  V30 26 1 12 27
M  V30 27 1 27 28
M  V30 28 1 6 29
M  V30 29 2 29 30
M  V30 30 1 30 3
M  V30 31 1 28 9
M  V30 32 1 26 13
M  V30 33 1 26 17
M  V30 34 1 1 31
M  V30 35 1 1 32
M  V30 36 1 1 33
M  V30 37 1 4 34
M  V30 38 1 5 35
M  V30 39 1 10 36
M  V30 40 1 10 37
M  V30 41 1 11 38
M  V30 42 1 11 39
M  V30 43 1 12 40
M  V30 44 1 15 41
M  V30 45 1 18 42
M  V30 46 1 21 43
M  V30 47 1 21 44
M  V30 48 1 21 45
M  V30 49 1 24 46
M  V30 50 1 24 47
M  V30 51 1 24 48
M  V30 52 1 25 49
M  V30 53 1 27 50
M  V30 54 1 27 51
M  V30 55 1 28 52
M  V30 56 1 28 53
M  V30 57 1 29 54
M  V30 58 1 30 55
M  V30 END BOND
M  V30 END CTAB
M  END
>  <Dataset>  (968) 
ChEMBL_Kinases

>  <Ligand_Instance>  (968) 
nan

>  <PDB_ID>  (968) 
nan

>  <Standardized_SMILES>  (968) 
COc1ccc(C(=O)N2CCC(c3ncnc4cc(OC)c(OC)cc34)CC2)cc1

>  <Name>  (968) 
nan

>  <Pocket>  (968) 
nan

>  <ATP_Site>  (968) 
nan

>  <Peripheral>  (968) 
nan

>  <Num_H_Atoms_ProtBoundConf>  (968) 
nan

>  <Num_Resolved_Atoms>  (968) 
nan

>  <Num_Not_Resolved_Atoms>  (968) 
nan

$$$$
CHEMBL4750705
     RDKit          3D

  0  0  0  0  0  0  0  0  0  0999 V3000
M  V30 BEGIN CTAB
M  V30 COUNTS 52 54 0 0 0
M  V30 BEGIN ATOM
M  V30 1 C -0.151339 1.988665 4.324561 0
M  V30 2 N 0.098600 0.581523 4.477828 0
M  V30 3 C -0.031847 0.160276 5.887385 0
M  V30 4 C 0.444311 -0.389767 3.500668 0
M  V30 5 O 0.539362 -1.499203 4.066514 0
M  V30 6 C 0.663210 -0.218311 2.082888 0
M  V30 7 C 0.866298 1.007871 1.506222 0
M  V30 8 N 1.131072 1.269649 0.195404 0
M  V30 9 C 1.214691 0.225171 -0.685331 0
M  V30 10 N 1.491068 0.469282 -2.058200 0
M  V30 11 C 1.668713 1.823005 -2.461749 0
M  V30 12 C 2.868889 2.511933 -2.471891 0
M  V30 13 N 2.865738 3.801530 -2.888934 0
M  V30 14 C 1.750198 4.437990 -3.291853 0
M  V30 15 C 1.787709 5.811859 -3.729060 0
M  V30 16 N 1.799073 6.918988 -4.082139 0
M  V30 17 C 0.550168 3.735607 -3.277317 0
M  V30 18 N 0.536908 2.434196 -2.859344 0
M  V30 19 C 1.015301 -1.023193 -0.137072 0
M  V30 20 C 0.747336 -1.258133 1.194930 0
M  V30 21 N 0.573947 -2.602579 1.490519 0
M  V30 22 C 0.534355 -3.952327 1.058171 0
M  V30 23 C -0.678954 -4.433241 0.356038 0
M  V30 24 C -1.898082 -4.265348 1.244256 0
M  V30 25 C -3.183354 -4.271117 0.478374 0
M  V30 26 N -3.232456 -3.353121 -0.629416 0
M  V30 27 C -1.906118 -2.816480 -0.970710 0
M  V30 28 C -0.907764 -3.964706 -1.040228 0
M  V30 29 H -0.636500 2.354892 5.279831 0
M  V30 30 H -0.849861 2.243594 3.495186 0
M  V30 31 H 0.804803 2.533268 4.276333 0
M  V30 32 H 0.280104 -0.912367 5.985366 0
M  V30 33 H -1.062505 0.255348 6.251397 0
M  V30 34 H 0.642219 0.741239 6.545493 0
M  V30 35 H 0.858742 1.943214 2.024015 0
M  V30 36 H 1.552163 -0.332968 -2.702930 0
M  V30 37 H 3.739775 1.971934 -2.143259 0
M  V30 38 H -0.313839 4.294645 -3.610924 0
M  V30 39 H 1.110118 -1.779289 -0.894933 0
M  V30 40 H 0.334762 -2.805480 2.474528 0
M  V30 41 H 1.366081 -4.024827 0.254208 0
M  V30 42 H 0.866769 -4.727847 1.778184 0
M  V30 43 H -0.568915 -5.565613 0.270734 0
M  V30 44 H -1.906150 -5.081283 1.971036 0
M  V30 45 H -1.751420 -3.309015 1.798785 0
M  V30 46 H -3.354671 -5.298918 0.088064 0
M  V30 47 H -3.991404 -4.070786 1.212502 0
M  V30 48 H -3.806231 -2.533562 -0.341279 0
M  V30 49 H -1.972733 -2.345287 -1.952140 0
M  V30 50 H -1.633995 -2.176726 -0.128870 0
M  V30 51 H -0.034099 -3.636599 -1.596586 0
M  V30 52 H -1.465907 -4.764130 -1.631568 0
M  V30 END ATOM
M  V30 BEGIN BOND
M  V30 1 1 1 2
M  V30 2 1 2 3
M  V30 3 1 2 4
M  V30 4 2 4 5
M  V30 5 1 4 6
M  V30 6 2 6 7
M  V30 7 1 7 8
M  V30 8 2 8 9
M  V30 9 1 9 10
M  V30 10 1 10 11
M  V30 11 2 11 12
M  V30 12 1 12 13
M  V30 13 2 13 14
M  V30 14 1 14 15
M  V30 15 3 15 16
M  V30 16 1 14 17
M  V30 17 2 17 18
M  V30 18 1 9 19
M  V30 19 2 19 20
M  V30 20 1 20 21
M  V30 21 1 21 22
M  V30 22 1 22 23
M  V30 23 1 23 24
M  V30 24 1 24 25
M  V30 25 1 25 26
M  V30 26 1 26 27
M  V30 27 1 27 28
M  V30 28 1 20 6
M  V30 29 1 28 23
M  V30 30 1 18 11
M  V30 31 1 1 29
M  V30 32 1 1 30
M  V30 33 1 1 31
M  V30 34 1 3 32
M  V30 35 1 3 33
M  V30 36 1 3 34
M  V30 37 1 7 35
M  V30 38 1 10 36
M  V30 39 1 12 37
M  V30 40 1 17 38
M  V30 41 1 19 39
M  V30 42 1 21 40
M  V30 43 1 22 41
M  V30 44 1 22 42
M  V30 45 1 23 43
M  V30 46 1 24 44
M  V30 47 1 24 45
M  V30 48 1 25 46
M  V30 49 1 25 47
M  V30 50 1 26 48
M  V30 51 1 27 49
M  V30 52 1 27 50
M  V30 53 1 28 51
M  V30 54 1 28 52
M  V30 END BOND
M  V30 END CTAB
M  END
>  <Dataset>  (969) 
ChEMBL_Kinases

>  <Ligand_Instance>  (969) 
nan

>  <PDB_ID>  (969) 
nan

>  <Standardized_SMILES>  (969) 
CN(C)C(=O)c1cnc(Nc2cnc(C#N)cn2)cc1NCC1CCNCC1

>  <Name>  (969) 
nan

>  <Pocket>  (969) 
nan

>  <ATP_Site>  (969) 
nan

>  <Peripheral>  (969) 
nan

>  <Num_H_Atoms_ProtBoundConf>  (969) 
nan

>  <Num_Resolved_Atoms>  (969) 
nan

>  <Num_Not_Resolved_Atoms>  (969) 
nan

$$$$
CHEMBL4446164
     RDKit          3D

  0  0  0  0  0  0  0  0  0  0999 V3000
M  V30 BEGIN CTAB
M  V30 COUNTS 41 43 0 0 0
M  V30 BEGIN ATOM
M  V30 1 C 0.462660 -4.512087 2.111930 0
M  V30 2 C 1.711385 -3.724099 2.012300 0
M  V30 3 C 2.950763 -4.234258 2.336946 0
M  V30 4 N 4.123571 -3.588377 2.274259 0
M  V30 5 C 4.096546 -2.300580 1.848769 0
M  V30 6 C 2.913168 -1.689644 1.498205 0
M  V30 7 C 1.740849 -2.412639 1.586233 0
M  V30 8 C 0.490524 -1.759755 1.213607 0
M  V30 9 N 0.461163 -0.484131 0.793417 0
M  V30 10 C -0.630422 0.196069 0.431714 0
M  V30 11 N -0.567606 1.551289 -0.011400 0
M  V30 12 C 0.695826 2.272064 -0.078952 0
M  V30 13 C 0.434953 3.662118 -0.686412 0
M  V30 14 C 1.711860 1.545286 -0.929333 0
M  V30 15 C 1.275493 2.574741 1.285265 0
M  V30 16 F 2.469015 3.261768 1.032335 0
M  V30 17 F 0.390505 3.357628 2.001961 0
M  V30 18 F 1.603279 1.494383 2.028807 0
M  V30 19 C -1.786207 -0.546609 0.526321 0
M  V30 20 C -2.984559 0.040083 0.181601 0
M  V30 21 C -4.196592 -0.612843 0.239797 0
M  V30 22 N -4.237021 -1.900893 0.655108 0
M  V30 23 C -3.065876 -2.507936 1.003004 0
M  V30 24 C -1.852956 -1.853951 0.944578 0
M  V30 25 N -0.685690 -2.429910 1.281925 0
M  V30 26 H -0.248235 -4.141242 2.876414 0
M  V30 27 H -0.011947 -4.706263 1.117399 0
M  V30 28 H 0.765930 -5.542514 2.458465 0
M  V30 29 H 3.030757 -5.256341 2.682066 0
M  V30 30 H 5.043268 -1.765514 1.793682 0
M  V30 31 H 2.982370 -0.660642 1.169623 0
M  V30 32 H -1.413921 2.079933 -0.302950 0
M  V30 33 H 0.098484 3.596194 -1.725900 0
M  V30 34 H -0.354387 4.167084 -0.094455 0
M  V30 35 H 1.390314 4.205459 -0.558017 0
M  V30 36 H 2.156142 2.271348 -1.667326 0
M  V30 37 H 2.558323 1.133512 -0.367452 0
M  V30 38 H 1.247287 0.765577 -1.565336 0
M  V30 39 H -3.072737 1.051680 -0.159781 0
M  V30 40 H -5.148775 -0.165942 -0.027820 0
M  V30 41 H -2.994667 -3.526093 1.344486 0
M  V30 END ATOM
M  V30 BEGIN BOND
M  V30 1 1 1 2
M  V30 2 2 2 3
M  V30 3 1 3 4
M  V30 4 2 4 5
M  V30 5 1 5 6
M  V30 6 2 6 7
M  V30 7 1 7 8
M  V30 8 2 8 9
M  V30 9 1 9 10
M  V30 10 1 10 11
M  V30 11 1 11 12
M  V30 12 1 12 13
M  V30 13 1 12 14
M  V30 14 1 12 15
M  V30 15 1 15 16
M  V30 16 1 15 17
M  V30 17 1 15 18
M  V30 18 2 10 19
M  V30 19 1 19 20
M  V30 20 2 20 21
M  V30 21 1 21 22
M  V30 22 2 22 23
M  V30 23 1 23 24
M  V30 24 2 24 25
M  V30 25 1 7 2
M  V30 26 1 25 8
M  V30 27 1 24 19
M  V30 28 1 1 26
M  V30 29 1 1 27
M  V30 30 1 1 28
M  V30 31 1 3 29
M  V30 32 1 5 30
M  V30 33 1 6 31
M  V30 34 1 11 32
M  V30 35 1 13 33
M  V30 36 1 13 34
M  V30 37 1 13 35
M  V30 38 1 14 36
M  V30 39 1 14 37
M  V30 40 1 14 38
M  V30 41 1 20 39
M  V30 42 1 21 40
M  V30 43 1 23 41
M  V30 END BOND
M  V30 END CTAB
M  END
>  <Dataset>  (970) 
ChEMBL_Kinases

>  <Ligand_Instance>  (970) 
nan

>  <PDB_ID>  (970) 
nan

>  <Standardized_SMILES>  (970) 
Cc1cnccc1-c1nc(NC(C)(C)C(F)(F)F)c2ccncc2n1

>  <Name>  (970) 
nan

>  <Pocket>  (970) 
nan

>  <ATP_Site>  (970) 
nan

>  <Peripheral>  (970) 
nan

>  <Num_H_Atoms_ProtBoundConf>  (970) 
nan

>  <Num_Resolved_Atoms>  (970) 
nan

>  <Num_Not_Resolved_Atoms>  (970) 
nan

$$$$
CHEMBL444613
     RDKit          3D

  0  0  0  0  0  0  0  0  0  0999 V3000
M  V30 BEGIN CTAB
M  V30 COUNTS 74 78 0 0 0
M  V30 BEGIN ATOM
M  V30 1 C 6.397883 -2.348596 3.775626 0
M  V30 2 C 5.272154 -1.426037 4.194194 0
M  V30 3 C 5.866215 -0.273067 4.972815 0
M  V30 4 C 4.364457 -2.242073 5.080645 0
M  V30 5 O 3.275767 -1.556491 5.558372 0
M  V30 6 C 4.603469 -0.925556 2.966333 0
M  V30 7 C 3.545422 -0.065140 2.870113 0
M  V30 8 C 3.241427 0.142580 1.548083 0
M  V30 9 N 2.303583 0.883027 0.795104 0
M  V30 10 C 1.002001 0.581920 0.252681 0
M  V30 11 O 0.821306 -0.614225 0.601858 0
M  V30 12 N 0.193568 1.515881 -0.497898 0
M  V30 13 C -0.957079 0.748709 -0.816780 0
M  V30 14 C -2.001086 0.786778 0.080199 0
M  V30 15 C -3.079679 0.019184 -0.308387 0
M  V30 16 C -3.124606 -0.717249 -1.469689 0
M  V30 17 O -4.069977 -1.497891 -1.981354 0
M  V30 18 C -5.294123 -2.001780 -1.829690 0
M  V30 19 C -6.485504 -1.112857 -1.764275 0
M  V30 20 N -6.505678 -0.197448 -0.684158 0
M  V30 21 C -6.685361 -0.788922 0.621925 0
M  V30 22 C -8.117289 -0.549446 1.070289 0
M  V30 23 O -8.336900 0.804569 1.308919 0
M  V30 24 C -7.729172 1.626797 0.358869 0
M  V30 25 C -7.440647 0.892161 -0.912685 0
M  V30 26 C -2.009138 -0.695107 -2.325177 0
M  V30 27 C -1.917329 -1.393548 -3.538234 0
M  V30 28 C -0.798724 -1.337621 -4.341971 0
M  V30 29 C 0.292832 -0.581385 -3.982000 0
M  V30 30 C 0.255396 0.123404 -2.803043 0
M  V30 31 C -0.867253 0.060616 -2.007571 0
M  V30 32 N 4.111024 -0.589268 0.835148 0
M  V30 33 C 4.460552 -0.924424 -0.523389 0
M  V30 34 C 3.600952 -1.860449 -1.068967 0
M  V30 35 C 3.754855 -2.330997 -2.356302 0
M  V30 36 C 4.825503 -1.817519 -3.096163 0
M  V30 37 C 5.695746 -0.873676 -2.553576 0
M  V30 38 C 5.514977 -0.418858 -1.251754 0
M  V30 39 N 4.916611 -1.221058 1.668867 0
M  V30 40 H 6.295213 -3.384130 4.185946 0
M  V30 41 H 6.449553 -2.367742 2.668776 0
M  V30 42 H 7.392240 -1.924302 4.089516 0
M  V30 43 H 5.263490 -0.146648 5.891940 0
M  V30 44 H 5.771034 0.655812 4.377367 0
M  V30 45 H 6.880345 -0.527422 5.288555 0
M  V30 46 H 4.062962 -3.145350 4.499041 0
M  V30 47 H 5.009592 -2.636369 5.899202 0
M  V30 48 H 2.487006 -1.710257 4.974217 0
M  V30 49 H 2.976135 0.423989 3.641459 0
M  V30 50 H 2.682914 1.835338 0.633955 0
M  V30 51 H 0.705377 2.403397 -0.549345 0
M  V30 52 H -1.965607 1.360663 0.986305 0
M  V30 53 H -3.937068 -0.029968 0.307320 0
M  V30 54 H -5.307895 -2.570665 -0.832689 0
M  V30 55 H -5.514939 -2.866829 -2.544277 0
M  V30 56 H -6.489143 -0.505096 -2.706900 0
M  V30 57 H -7.452632 -1.702328 -1.800045 0
M  V30 58 H -6.047587 -0.229309 1.369742 0
M  V30 59 H -6.505873 -1.871008 0.629414 0
M  V30 60 H -8.777074 -0.937683 0.276999 0
M  V30 61 H -8.229724 -1.086488 2.049141 0
M  V30 62 H -8.397856 2.494530 0.081766 0
M  V30 63 H -6.806980 2.074449 0.782757 0
M  V30 64 H -8.400692 0.526491 -1.341105 0
M  V30 65 H -6.988820 1.594047 -1.640997 0
M  V30 66 H -2.772842 -1.986313 -3.827939 0
M  V30 67 H -0.807126 -1.912825 -5.271637 0
M  V30 68 H 1.180864 -0.509188 -4.568935 0
M  V30 69 H 1.112298 0.724038 -2.511435 0
M  V30 70 H 2.757489 -2.289755 -0.546613 0
M  V30 71 H 3.088030 -3.066832 -2.794799 0
M  V30 72 H 4.970681 -2.169797 -4.109651 0
M  V30 73 H 6.527433 -0.462649 -3.103896 0
M  V30 74 H 6.129261 0.306057 -0.738667 0
M  V30 END ATOM
M  V30 BEGIN BOND
M  V30 1 1 1 2
M  V30 2 1 2 3
M  V30 3 1 2 4
M  V30 4 1 4 5
M  V30 5 1 2 6
M  V30 6 1 6 7
M  V30 7 2 7 8
M  V30 8 1 8 9
M  V30 9 1 9 10
M  V30 10 2 10 11
M  V30 11 1 10 12
M  V30 12 1 12 13
M  V30 13 2 13 14
M  V30 14 1 14 15
M  V30 15 2 15 16
M  V30 16 1 16 17
M  V30 17 1 17 18
M  V30 18 1 18 19
M  V30 19 1 19 20
M  V30 20 1 20 21
M  V30 21 1 21 22
M  V30 22 1 22 23
M  V30 23 1 23 24
M  V30 24 1 24 25
M  V30 25 1 16 26
M  V30 26 2 26 27
M  V30 27 1 27 28
M  V30 28 2 28 29
M  V30 29 1 29 30
M  V30 30 2 30 31
M  V30 31 1 8 32
M  V30 32 1 32 33
M  V30 33 2 33 34
M  V30 34 1 34 35
M  V30 35 2 35 36
M  V30 36 1 36 37
M  V30 37 2 37 38
M  V30 38 1 32 39
M  V30 39 2 39 6
M  V30 40 1 31 13
M  V30 41 1 38 33
M  V30 42 1 25 20
M  V30 43 1 31 26
M  V30 44 1 1 40
M  V30 45 1 1 41
M  V30 46 1 1 42
M  V30 47 1 3 43
M  V30 48 1 3 44
M  V30 49 1 3 45
M  V30 50 1 4 46
M  V30 51 1 4 47
M  V30 52 1 5 48
M  V30 53 1 7 49
M  V30 54 1 9 50
M  V30 55 1 12 51
M  V30 56 1 14 52
M  V30 57 1 15 53
M  V30 58 1 18 54
M  V30 59 1 18 55
M  V30 60 1 19 56
M  V30 61 1 19 57
M  V30 62 1 21 58
M  V30 63 1 21 59
M  V30 64 1 22 60
M  V30 65 1 22 61
M  V30 66 1 24 62
M  V30 67 1 24 63
M  V30 68 1 25 64
M  V30 69 1 25 65
M  V30 70 1 27 66
M  V30 71 1 28 67
M  V30 72 1 29 68
M  V30 73 1 30 69
M  V30 74 1 34 70
M  V30 75 1 35 71
M  V30 76 1 36 72
M  V30 77 1 37 73
M  V30 78 1 38 74
M  V30 END BOND
M  V30 END CTAB
M  END
>  <Dataset>  (971) 
ChEMBL_Kinases

>  <Ligand_Instance>  (971) 
nan

>  <PDB_ID>  (971) 
nan

>  <Standardized_SMILES>  (971) 
CC(C)(CO)c1cc(NC(=O)Nc2ccc(OCCN3CCOCC3)c3ccccc23)n(-c2ccccc2)n1

>  <Name>  (971) 
nan

>  <Pocket>  (971) 
nan

>  <ATP_Site>  (971) 
nan

>  <Peripheral>  (971) 
nan

>  <Num_H_Atoms_ProtBoundConf>  (971) 
nan

>  <Num_Resolved_Atoms>  (971) 
nan

>  <Num_Not_Resolved_Atoms>  (971) 
nan

$$$$
CHEMBL4750818
     RDKit          3D

  0  0  0  0  0  0  0  0  0  0999 V3000
M  V30 BEGIN CTAB
M  V30 COUNTS 54 57 0 0 0
M  V30 BEGIN ATOM
M  V30 1 C 6.299354 -6.788077 2.360382 0
M  V30 2 C 6.592141 -6.781465 1.069859 0
M  V30 3 C 5.771459 -5.639479 0.694098 0
M  V30 4 O 5.171352 -5.185011 1.726941 0
M  V30 5 N 5.546271 -4.986618 -0.574391 0
M  V30 6 C 4.625966 -3.917833 -0.263602 0
M  V30 7 C 5.207777 -2.719961 0.094403 0
M  V30 8 C 4.276269 -1.741506 0.378638 0
M  V30 9 C 2.892024 -1.952664 0.307631 0
M  V30 10 C 2.024538 -0.827836 0.638782 0
M  V30 11 C 2.417748 0.469239 0.372923 0
M  V30 12 C 1.549546 1.510419 0.723759 0
M  V30 13 C 0.307556 1.300480 1.328660 0
M  V30 14 C -0.433128 2.517521 1.623346 0
M  V30 15 C -0.762662 2.573494 3.097780 0
M  V30 16 C -1.620910 2.696150 0.786123 0
M  V30 17 O -1.747810 3.665535 -0.037103 0
M  V30 18 N -2.774946 1.892945 0.731278 0
M  V30 19 C -3.891409 2.142737 -0.114191 0
M  V30 20 C -5.055772 1.409109 -0.214289 0
M  V30 21 C -5.896672 1.978775 -1.148022 0
M  V30 22 C -7.234946 1.427566 -1.490085 0
M  V30 23 C -7.977119 0.645880 -0.455522 0
M  V30 24 C -7.271566 -0.079663 -1.584462 0
M  V30 25 N -5.217280 3.055133 -1.597614 0
M  V30 26 N -4.046144 3.151214 -0.993637 0
M  V30 27 C 0.013203 -0.014229 1.548623 0
M  V30 28 C 0.809687 -1.093459 1.233937 0
M  V30 29 C 2.413285 -3.215840 -0.070249 0
M  V30 30 C 3.292837 -4.237523 -0.366836 0
M  V30 31 H 5.822513 -6.460351 3.298920 0
M  V30 32 H 5.992506 -6.699677 3.391976 0
M  V30 33 H 7.287736 -7.600071 0.879384 0
M  V30 34 H 6.094522 -5.461286 -1.321120 0
M  V30 35 H 6.273869 -2.588748 0.139967 0
M  V30 36 H 4.630203 -0.745785 0.675244 0
M  V30 37 H 3.375269 0.649997 -0.093345 0
M  V30 38 H 1.950039 2.489414 0.472583 0
M  V30 39 H 0.209939 3.426422 1.434410 0
M  V30 40 H -1.322046 1.720380 3.477819 0
M  V30 41 H 0.231692 2.687838 3.619046 0
M  V30 42 H -1.298951 3.510073 3.314965 0
M  V30 43 H -2.825659 1.050336 1.357786 0
M  V30 44 H -5.264987 0.527606 0.355050 0
M  V30 45 H -7.848711 1.951514 -2.247886 0
M  V30 46 H -9.085234 0.616073 -0.526488 0
M  V30 47 H -7.609817 0.562471 0.578470 0
M  V30 48 H -7.858985 -0.571005 -2.375533 0
M  V30 49 H -6.386025 -0.675507 -1.215781 0
M  V30 50 H -5.586846 3.693755 -2.313815 0
M  V30 51 H -0.940868 -0.192708 2.022232 0
M  V30 52 H 0.461178 -2.091314 1.458415 0
M  V30 53 H 1.345734 -3.357787 -0.120200 0
M  V30 54 H 2.963242 -5.220129 -0.660561 0
M  V30 END ATOM
M  V30 BEGIN BOND
M  V30 1 2 1 2
M  V30 2 1 2 3
M  V30 3 2 3 4
M  V30 4 1 3 5
M  V30 5 1 5 6
M  V30 6 2 6 7
M  V30 7 1 7 8
M  V30 8 2 8 9
M  V30 9 1 9 10
M  V30 10 2 10 11
M  V30 11 1 11 12
M  V30 12 2 12 13
M  V30 13 1 13 14
M  V30 14 1 14 15
M  V30 15 1 14 16
M  V30 16 2 16 17
M  V30 17 1 16 18
M  V30 18 1 18 19
M  V30 19 1 19 20
M  V30 20 2 20 21
M  V30 21 1 21 22
M  V30 22 1 22 23
M  V30 23 1 23 24
M  V30 24 1 21 25
M  V30 25 1 25 26
M  V30 26 1 13 27
M  V30 27 2 27 28
M  V30 28 1 9 29
M  V30 29 2 29 30
M  V30 30 1 30 6
M  V30 31 1 28 10
M  V30 32 2 26 19
M  V30 33 1 24 22
M  V30 34 1 1 31
M  V30 35 1 1 32
M  V30 36 1 2 33
M  V30 37 1 5 34
M  V30 38 1 7 35
M  V30 39 1 8 36
M  V30 40 1 11 37
M  V30 41 1 12 38
M  V30 42 1 14 39
M  V30 43 1 15 40
M  V30 44 1 15 41
M  V30 45 1 15 42
M  V30 46 1 18 43
M  V30 47 1 20 44
M  V30 48 1 22 45
M  V30 49 1 23 46
M  V30 50 1 23 47
M  V30 51 1 24 48
M  V30 52 1 24 49
M  V30 53 1 25 50
M  V30 54 1 27 51
M  V30 55 1 28 52
M  V30 56 1 29 53
M  V30 57 1 30 54
M  V30 END BOND
M  V30 END CTAB
M  END
>  <Dataset>  (972) 
ChEMBL_Kinases

>  <Ligand_Instance>  (972) 
nan

>  <PDB_ID>  (972) 
nan

>  <Standardized_SMILES>  (972) 
C=CC(=O)Nc1ccc(-c2ccc(C(C)C(=O)Nc3cc(C4CC4)[nH]n3)cc2)cc1

>  <Name>  (972) 
nan

>  <Pocket>  (972) 
nan

>  <ATP_Site>  (972) 
nan

>  <Peripheral>  (972) 
nan

>  <Num_H_Atoms_ProtBoundConf>  (972) 
nan

>  <Num_Resolved_Atoms>  (972) 
nan

>  <Num_Not_Resolved_Atoms>  (972) 
nan

$$$$
CHEMBL4446123
     RDKit          3D

  0  0  0  0  0  0  0  0  0  0999 V3000
M  V30 BEGIN CTAB
M  V30 COUNTS 38 40 0 0 0
M  V30 BEGIN ATOM
M  V30 1 C -0.094197 -5.075786 2.884699 0
M  V30 2 C 0.536207 -4.794811 4.225838 0
M  V30 3 O 1.837039 -4.298955 4.169514 0
M  V30 4 C 2.299668 -3.158555 3.586123 0
M  V30 5 O 1.873324 -4.194435 4.114946 0
M  V30 6 C 2.335373 -1.915098 2.866259 0
M  V30 7 N 3.600076 -1.465453 2.831936 0
M  V30 8 C 3.591647 -0.303615 2.152382 0
M  V30 9 C 2.261041 -0.158395 1.828002 0
M  V30 10 C 1.683892 0.975885 1.063029 0
M  V30 11 C 2.542992 1.965022 0.642652 0
M  V30 12 C 2.130019 3.066471 -0.071350 0
M  V30 13 N 0.799700 3.137567 -0.351508 0
M  V30 14 C -0.055764 2.185200 0.048045 0
M  V30 15 N -1.468820 2.229743 -0.229837 0
M  V30 16 C -1.618477 1.560448 -1.480344 0
M  V30 17 O -0.566376 1.100666 -2.047092 0
M  V30 18 C -2.913807 1.333862 -2.218270 0
M  V30 19 C -2.949065 0.338112 -3.280081 0
M  V30 20 C -2.813188 1.759524 -3.703303 0
M  V30 21 C 0.346395 1.094709 0.753668 0
M  V30 22 N 1.442722 -1.131459 2.248171 0
M  V30 23 H 0.568770 -5.634116 2.211630 0
M  V30 24 H -0.479333 -4.128758 2.406220 0
M  V30 25 H -0.965526 -5.744754 3.099235 0
M  V30 26 H 0.578497 -5.758534 4.772848 0
M  V30 27 H -0.150523 -4.139860 4.803786 0
M  V30 28 H 4.368100 0.398867 1.882463 0
M  V30 29 H 3.622031 1.967476 0.834314 0
M  V30 30 H 2.806544 3.842222 -0.400636 0
M  V30 31 H -2.394551 2.549042 0.110802 0
M  V30 32 H -3.813867 1.716319 -1.744223 0
M  V30 33 H -3.958733 -0.114595 -3.500694 0
M  V30 34 H -2.123573 -0.361499 -3.481794 0
M  V30 35 H -3.666866 2.288111 -4.155899 0
M  V30 36 H -1.846722 2.107477 -4.086981 0
M  V30 37 H -0.322144 0.323006 1.081562 0
M  V30 38 H 0.452215 -1.382185 2.216071 0
M  V30 END ATOM
M  V30 BEGIN BOND
M  V30 1 1 1 2
M  V30 2 1 2 3
M  V30 3 1 3 4
M  V30 4 2 4 5
M  V30 5 1 4 6
M  V30 6 2 6 7
M  V30 7 1 7 8
M  V30 8 2 8 9
M  V30 9 1 9 10
M  V30 10 2 10 11
M  V30 11 1 11 12
M  V30 12 2 12 13
M  V30 13 1 13 14
M  V30 14 1 14 15
M  V30 15 1 15 16
M  V30 16 2 16 17
M  V30 17 1 16 18
M  V30 18 1 18 19
M  V30 19 1 19 20
M  V30 20 2 14 21
M  V30 21 1 9 22
M  V30 22 1 22 6
M  V30 23 1 21 10
M  V30 24 1 20 18
M  V30 25 1 1 23
M  V30 26 1 1 24
M  V30 27 1 1 25
M  V30 28 1 2 26
M  V30 29 1 2 27
M  V30 30 1 8 28
M  V30 31 1 11 29
M  V30 32 1 12 30
M  V30 33 1 15 31
M  V30 34 1 18 32
M  V30 35 1 19 33
M  V30 36 1 19 34
M  V30 37 1 20 35
M  V30 38 1 20 36
M  V30 39 1 21 37
M  V30 40 1 22 38
M  V30 END BOND
M  V30 END CTAB
M  END
>  <Dataset>  (973) 
ChEMBL_Kinases

>  <Ligand_Instance>  (973) 
nan

>  <PDB_ID>  (973) 
nan

>  <Standardized_SMILES>  (973) 
CCOC(=O)c1ncc(-c2ccnc(NC(=O)C3CC3)c2)[nH]1

>  <Name>  (973) 
nan

>  <Pocket>  (973) 
nan

>  <ATP_Site>  (973) 
nan

>  <Peripheral>  (973) 
nan

>  <Num_H_Atoms_ProtBoundConf>  (973) 
nan

>  <Num_Resolved_Atoms>  (973) 
nan

>  <Num_Not_Resolved_Atoms>  (973) 
nan

$$$$
CHEMBL4446094
     RDKit          3D

  0  0  0  0  0  0  0  0  0  0999 V3000
M  V30 BEGIN CTAB
M  V30 COUNTS 35 38 0 0 0
M  V30 BEGIN ATOM
M  V30 1 C -3.031978 -2.165493 1.645621 0
M  V30 2 C -2.670732 -1.275565 0.453672 0
M  V30 3 N -1.295416 -1.039573 0.249513 0
M  V30 4 C -0.080379 -0.472882 0.609662 0
M  V30 5 N 1.061364 -0.675101 -0.104431 0
M  V30 6 C 2.241973 -0.170256 0.174740 0
M  V30 7 C 3.356325 -0.496365 -0.705487 0
M  V30 8 C 3.205463 -1.307480 -1.805370 0
M  V30 9 C 4.348856 -1.547800 -2.574199 0
M  V30 10 N 5.520214 -0.989886 -2.215682 0
M  V30 11 N 5.642809 -0.213369 -1.154575 0
M  V30 12 C 4.579294 0.050535 -0.381913 0
M  V30 13 N 2.355062 0.607210 1.240459 0
M  V30 14 C 1.342250 0.920724 2.064376 0
M  V30 15 C 1.471121 1.735303 3.168473 0
M  V30 16 N 0.388775 2.006624 3.948480 0
M  V30 17 C -0.817984 1.469102 3.630610 0
M  V30 18 C -0.906138 0.664205 2.525533 0
M  V30 19 C 0.146099 0.347458 1.693319 0
M  V30 20 C -3.663604 -1.400069 -0.685741 0
M  V30 21 C -3.593852 -0.158641 0.102065 0
M  V30 22 H -2.948539 -3.209102 1.255394 0
M  V30 23 H -2.304415 -2.092286 2.468496 0
M  V30 24 H -4.062049 -1.997682 1.999620 0
M  V30 25 H -1.196263 -1.625371 -0.634128 0
M  V30 26 H 2.262018 -1.734057 -2.061663 0
M  V30 27 H 4.240574 -2.191956 -3.451988 0
M  V30 28 H 4.694975 0.694082 0.492265 0
M  V30 29 H 2.470761 2.101218 3.319420 0
M  V30 30 H -1.606448 1.732612 4.291514 0
M  V30 31 H -1.882053 0.283861 2.334271 0
M  V30 32 H -3.225264 -1.473398 -1.704198 0
M  V30 33 H -4.541535 -2.043697 -0.557903 0
M  V30 34 H -4.432983 0.072212 0.790104 0
M  V30 35 H -3.174138 0.723429 -0.391040 0
M  V30 END ATOM
M  V30 BEGIN BOND
M  V30 1 1 1 2
M  V30 2 1 2 3
M  V30 3 1 3 4
M  V30 4 2 4 5
M  V30 5 1 5 6
M  V30 6 1 6 7
M  V30 7 2 7 8
M  V30 8 1 8 9
M  V30 9 2 9 10
M  V30 10 1 10 11
M  V30 11 2 11 12
M  V30 12 2 6 13
M  V30 13 1 13 14
M  V30 14 2 14 15
M  V30 15 1 15 16
M  V30 16 2 16 17
M  V30 17 1 17 18
M  V30 18 2 18 19
M  V30 19 1 2 20
M  V30 20 1 20 21
M  V30 21 1 21 2
M  V30 22 1 19 4
M  V30 23 1 12 7
M  V30 24 1 19 14
M  V30 25 1 1 22
M  V30 26 1 1 23
M  V30 27 1 1 24
M  V30 28 1 3 25
M  V30 29 1 8 26
M  V30 30 1 9 27
M  V30 31 1 12 28
M  V30 32 1 15 29
M  V30 33 1 17 30
M  V30 34 1 18 31
M  V30 35 1 20 32
M  V30 36 1 20 33
M  V30 37 1 21 34
M  V30 38 1 21 35
M  V30 END BOND
M  V30 END CTAB
M  END
>  <Dataset>  (974) 
ChEMBL_Kinases

>  <Ligand_Instance>  (974) 
nan

>  <PDB_ID>  (974) 
nan

>  <Standardized_SMILES>  (974) 
CC1(Nc2nc(-c3ccnnc3)nc3cnccc23)CC1

>  <Name>  (974) 
nan

>  <Pocket>  (974) 
nan

>  <ATP_Site>  (974) 
nan

>  <Peripheral>  (974) 
nan

>  <Num_H_Atoms_ProtBoundConf>  (974) 
nan

>  <Num_Resolved_Atoms>  (974) 
nan

>  <Num_Not_Resolved_Atoms>  (974) 
nan

$$$$
CHEMBL4446024
     RDKit          3D

  0  0  0  0  0  0  0  0  0  0999 V3000
M  V30 BEGIN CTAB
M  V30 COUNTS 52 56 0 0 0
M  V30 BEGIN ATOM
M  V30 1 F 0.752438 -6.071651 1.466972 0
M  V30 2 C 0.854730 -4.738917 1.243400 0
M  V30 3 C 0.852611 -4.165335 0.003198 0
M  V30 4 C 0.955068 -2.816170 -0.209454 0
M  V30 5 C 1.067701 -1.964428 0.870265 0
M  V30 6 C 1.185733 -0.490375 0.891006 0
M  V30 7 N 2.294744 0.058035 1.385419 0
M  V30 8 C 2.328233 1.372244 1.377795 0
M  V30 9 C 3.401128 2.257237 1.847013 0
M  V30 10 C 4.044181 3.098377 0.782081 0
M  V30 11 C 3.260226 4.299949 0.373418 0
M  V30 12 N 2.588806 4.976919 1.424131 0
M  V30 13 C 2.036894 4.184468 2.468715 0
M  V30 14 C 2.960338 3.117222 2.971769 0
M  V30 15 S 0.725067 1.886325 0.640595 0
M  V30 16 C 0.127192 0.208163 0.397830 0
M  V30 17 C -1.114543 -0.152733 -0.172713 0
M  V30 18 C -1.346564 0.417599 -1.433773 0
M  V30 19 C -2.516686 0.166956 -2.134984 0
M  V30 20 N -3.418559 -0.645686 -1.556959 0
M  V30 21 C -3.200183 -1.194963 -0.348377 0
M  V30 22 N -4.068854 -2.070960 0.387916 0
M  V30 23 C -4.009191 -3.435170 -0.080371 0
M  V30 24 C -4.758041 -4.411096 0.521076 0
M  V30 25 C -4.802099 -5.739047 0.167935 0
M  V30 26 C -4.008874 -6.112638 -0.899859 0
M  V30 27 C -3.254359 -5.130969 -1.506289 0
M  V30 28 N -3.255879 -3.853137 -1.113475 0
M  V30 29 N -2.079208 -0.964682 0.342374 0
M  V30 30 C 1.071829 -2.527291 2.134623 0
M  V30 31 C 0.966955 -3.907548 2.346340 0
M  V30 32 H 0.763312 -4.807653 -0.856781 0
M  V30 33 H 0.958519 -2.306709 -1.152024 0
M  V30 34 H 4.225162 1.562966 2.204439 0
M  V30 35 H 4.240144 2.476026 -0.116453 0
M  V30 36 H 5.024207 3.420201 1.186793 0
M  V30 37 H 2.589954 4.135489 -0.497265 0
M  V30 38 H 4.030870 5.032720 -0.020603 0
M  V30 39 H 1.821554 5.566657 1.022374 0
M  V30 40 H 1.895407 4.886813 3.349151 0
M  V30 41 H 1.029452 3.790432 2.263658 0
M  V30 42 H 3.858981 3.610397 3.410189 0
M  V30 43 H 2.428867 2.504419 3.732645 0
M  V30 44 H -0.619719 1.083825 -1.916057 0
M  V30 45 H -2.725638 0.584560 -3.093614 0
M  V30 46 H -4.696249 -1.860291 1.170356 0
M  V30 47 H -5.392620 -4.147236 1.370145 0
M  V30 48 H -5.375680 -6.518709 0.615763 0
M  V30 49 H -3.882413 -7.069247 -1.347426 0
M  V30 50 H -2.580992 -5.264595 -2.359346 0
M  V30 51 H 1.157272 -1.930450 3.056112 0
M  V30 52 H 0.973117 -4.296855 3.374017 0
M  V30 END ATOM
M  V30 BEGIN BOND
M  V30 1 1 1 2
M  V30 2 2 2 3
M  V30 3 1 3 4
M  V30 4 2 4 5
M  V30 5 1 5 6
M  V30 6 1 6 7
M  V30 7 2 7 8
M  V30 8 1 8 9
M  V30 9 1 9 10
M  V30 10 1 10 11
M  V30 11 1 11 12
M  V30 12 1 12 13
M  V30 13 1 13 14
M  V30 14 1 8 15
M  V30 15 1 15 16
M  V30 16 1 16 17
M  V30 17 2 17 18
M  V30 18 1 18 19
M  V30 19 2 19 20
M  V30 20 1 20 21
M  V30 21 1 21 22
M  V30 22 1 22 23
M  V30 23 2 23 24
M  V30 24 1 24 25
M  V30 25 2 25 26
M  V30 26 1 26 27
M  V30 27 2 27 28
M  V30 28 2 21 29
M  V30 29 1 5 30
M  V30 30 2 30 31
M  V30 31 1 31 2
M  V30 32 2 16 6
M  V30 33 1 29 17
M  V30 34 1 14 9
M  V30 35 1 28 23
M  V30 36 1 3 32
M  V30 37 1 4 33
M  V30 38 1 9 34
M  V30 39 1 10 35
M  V30 40 1 10 36
M  V30 41 1 11 37
M  V30 42 1 11 38
M  V30 43 1 12 39
M  V30 44 1 13 40
M  V30 45 1 13 41
M  V30 46 1 14 42
M  V30 47 1 14 43
M  V30 48 1 18 44
M  V30 49 1 19 45
M  V30 50 1 22 46
M  V30 51 1 24 47
M  V30 52 1 25 48
M  V30 53 1 26 49
M  V30 54 1 27 50
M  V30 55 1 30 51
M  V30 56 1 31 52
M  V30 END BOND
M  V30 END CTAB
M  END
>  <Dataset>  (975) 
ChEMBL_Kinases

>  <Ligand_Instance>  (975) 
nan

>  <PDB_ID>  (975) 
nan

>  <Standardized_SMILES>  (975) 
Fc1ccc(-c2nc(C3CCNCC3)sc2-c2ccnc(Nc3ccccn3)n2)cc1

>  <Name>  (975) 
nan

>  <Pocket>  (975) 
nan

>  <ATP_Site>  (975) 
nan

>  <Peripheral>  (975) 
nan

>  <Num_H_Atoms_ProtBoundConf>  (975) 
nan

>  <Num_Resolved_Atoms>  (975) 
nan

>  <Num_Not_Resolved_Atoms>  (975) 
nan

$$$$
CHEMBL4446345
     RDKit          3D

  0  0  0  0  0  0  0  0  0  0999 V3000
M  V30 BEGIN CTAB
M  V30 COUNTS 40 43 0 0 0
M  V30 BEGIN ATOM
M  V30 1 C 0.899468 -5.894406 3.230438 0
M  V30 2 O 0.705446 -4.605612 2.735760 0
M  V30 3 C 1.845062 -4.053042 2.208011 0
M  V30 4 C 2.030273 -2.640396 2.778986 0
M  V30 5 C 0.851177 -2.308331 1.835227 0
M  V30 6 N 0.742644 -0.982794 1.373918 0
M  V30 7 C 0.056038 -0.026493 0.576031 0
M  V30 8 N 0.445306 1.281430 0.514771 0
M  V30 9 C -0.199426 2.174733 -0.234644 0
M  V30 10 C 0.333856 3.528634 -0.196714 0
M  V30 11 C -0.327153 4.445707 -0.965252 0
M  V30 12 C 0.177344 5.749784 -0.935804 0
M  V30 13 N 1.256745 6.101424 -0.194893 0
M  V30 14 C 1.852700 5.144324 0.534226 0
M  V30 15 C 1.435095 3.816772 0.578820 0
M  V30 16 N -1.258424 1.789154 -0.950358 0
M  V30 17 C -1.750397 0.539354 -0.985248 0
M  V30 18 C -2.843235 0.177122 -1.735974 0
M  V30 19 N -3.279996 -1.107800 -1.720730 0
M  V30 20 C -2.635573 -2.041250 -0.960927 0
M  V30 21 C -1.546798 -1.616804 -0.230502 0
M  V30 22 C -1.045540 -0.336905 -0.193890 0
M  V30 23 C 1.541626 -3.325295 0.912202 0
M  V30 24 H 1.249844 -6.593099 2.427694 0
M  V30 25 H -0.073324 -6.316116 3.556033 0
M  V30 26 H 1.598687 -5.904787 4.071737 0
M  V30 27 H 2.767026 -4.659188 2.226232 0
M  V30 28 H 2.997604 -2.248446 2.419495 0
M  V30 29 H 1.797913 -2.533095 3.846178 0
M  V30 30 H -0.028478 -2.774619 2.350233 0
M  V30 31 H 1.556632 -0.495231 1.858157 0
M  V30 32 H -1.187349 4.203791 -1.566347 0
M  V30 33 H -0.344057 6.490716 -1.546897 0
M  V30 34 H 2.720452 5.412450 1.133905 0
M  V30 35 H 1.930350 3.067073 1.172034 0
M  V30 36 H -3.311245 0.949150 -2.313857 0
M  V30 37 H -3.001315 -3.042172 -0.969025 0
M  V30 38 H -1.090288 -2.404541 0.339738 0
M  V30 39 H 0.870551 -3.882844 0.244379 0
M  V30 40 H 2.464237 -2.926796 0.482686 0
M  V30 END ATOM
M  V30 BEGIN BOND
M  V30 1 1 1 2
M  V30 2 1 2 3
M  V30 3 1 3 4
M  V30 4 1 4 5
M  V30 5 1 5 6
M  V30 6 1 6 7
M  V30 7 2 7 8
M  V30 8 1 8 9
M  V30 9 1 9 10
M  V30 10 2 10 11
M  V30 11 1 11 12
M  V30 12 2 12 13
M  V30 13 1 13 14
M  V30 14 2 14 15
M  V30 15 2 9 16
M  V30 16 1 16 17
M  V30 17 2 17 18
M  V30 18 1 18 19
M  V30 19 2 19 20
M  V30 20 1 20 21
M  V30 21 2 21 22
M  V30 22 1 5 23
M  V30 23 1 23 3
M  V30 24 1 22 7
M  V30 25 1 15 10
M  V30 26 1 22 17
M  V30 27 1 1 24
M  V30 28 1 1 25
M  V30 29 1 1 26
M  V30 30 1 3 27
M  V30 31 1 4 28
M  V30 32 1 4 29
M  V30 33 1 5 30
M  V30 34 1 6 31
M  V30 35 1 11 32
M  V30 36 1 12 33
M  V30 37 1 14 34
M  V30 38 1 15 35
M  V30 39 1 18 36
M  V30 40 1 20 37
M  V30 41 1 21 38
M  V30 42 1 23 39
M  V30 43 1 23 40
M  V30 END BOND
M  V30 END CTAB
M  END
>  <Dataset>  (976) 
ChEMBL_Kinases

>  <Ligand_Instance>  (976) 
nan

>  <PDB_ID>  (976) 
nan

>  <Standardized_SMILES>  (976) 
COC1CC(Nc2nc(-c3ccncc3)nc3cnccc23)C1

>  <Name>  (976) 
nan

>  <Pocket>  (976) 
nan

>  <ATP_Site>  (976) 
nan

>  <Peripheral>  (976) 
nan

>  <Num_H_Atoms_ProtBoundConf>  (976) 
nan

>  <Num_Resolved_Atoms>  (976) 
nan

>  <Num_Not_Resolved_Atoms>  (976) 
nan

$$$$
CHEMBL4461188
     RDKit          3D

  0  0  0  0  0  0  0  0  0  0999 V3000
M  V30 BEGIN CTAB
M  V30 COUNTS 48 51 0 0 0
M  V30 BEGIN ATOM
M  V30 1 C 4.408292 -1.700670 2.377283 0
M  V30 2 N 5.107937 -2.356196 1.282574 0
M  V30 3 N 6.205241 -3.048782 1.556006 0
M  V30 4 C 6.687847 -3.564630 0.423474 0
M  V30 5 C 5.808959 -3.132697 -0.523794 0
M  V30 6 Cl 6.172004 -3.650609 -2.145950 0
M  V30 7 C 4.795286 -2.365159 -0.018833 0
M  V30 8 C 3.696474 -1.738124 -0.686905 0
M  V30 9 C 2.735972 -0.985379 -0.057681 0
M  V30 10 C 1.771539 -0.484534 -0.937400 0
M  V30 11 C 0.579549 0.344713 -0.778454 0
M  V30 12 O -0.146794 0.673212 -1.729958 0
M  V30 13 N 0.226949 0.802826 0.530429 0
M  V30 14 C -0.910280 1.629481 0.892572 0
M  V30 15 C -0.489285 2.873355 1.632239 0
M  V30 16 N -1.464134 3.086736 2.677597 0
M  V30 17 C -2.162803 1.866892 2.908690 0
M  V30 18 C -1.733278 0.844513 1.897397 0
M  V30 19 C -2.860590 0.119003 1.292737 0
M  V30 20 C -3.854247 0.756749 0.541890 0
M  V30 21 C -4.888355 0.005352 0.001866 0
M  V30 22 C -4.995336 -1.356775 0.165091 0
M  V30 23 C -6.096874 -2.171503 -0.407705 0
M  V30 24 F -5.738987 -3.486947 -0.479850 0
M  V30 25 F -7.226751 -2.005024 0.384677 0
M  V30 26 F -6.418244 -1.732641 -1.690140 0
M  V30 27 C -4.025759 -2.033211 0.906977 0
M  V30 28 C -3.014128 -1.256691 1.428192 0
M  V30 29 O 2.164925 -0.950118 -2.127504 0
M  V30 30 C 3.248824 -1.653866 -1.973840 0
M  V30 31 Cl 3.968824 -2.374355 -3.371580 0
M  V30 32 H 3.405453 -2.100137 2.538831 0
M  V30 33 H 4.431988 -0.605801 2.255785 0
M  V30 34 H 4.946515 -1.900509 3.348339 0
M  V30 35 H 7.586948 -4.164137 0.457584 0
M  V30 36 H 2.523028 -0.672191 0.949027 0
M  V30 37 H 0.817958 0.547671 1.376636 0
M  V30 38 H -1.467266 1.849658 -0.025254 0
M  V30 39 H -0.505703 3.765899 0.973900 0
M  V30 40 H 0.533990 2.776286 2.034200 0
M  V30 41 H -0.938226 3.356580 3.540987 0
M  V30 42 H -3.276013 1.980768 2.770336 0
M  V30 43 H -2.060885 1.472442 3.942509 0
M  V30 44 H -1.098547 0.092047 2.435895 0
M  V30 45 H -3.781494 1.810505 0.409150 0
M  V30 46 H -5.658145 0.527237 -0.584563 0
M  V30 47 H -4.022036 -3.095925 1.090662 0
M  V30 48 H -2.246320 -1.762527 2.010603 0
M  V30 END ATOM
M  V30 BEGIN BOND
M  V30 1 1 1 2
M  V30 2 1 2 3
M  V30 3 2 3 4
M  V30 4 1 4 5
M  V30 5 1 5 6
M  V30 6 2 5 7
M  V30 7 1 7 8
M  V30 8 1 8 9
M  V30 9 2 9 10
M  V30 10 1 10 11
M  V30 11 2 11 12
M  V30 12 1 11 13
M  V30 13 1 13 14
M  V30 14 1 14 15
M  V30 15 1 15 16
M  V30 16 1 16 17
M  V30 17 1 17 18
M  V30 18 1 18 19
M  V30 19 2 19 20
M  V30 20 1 20 21
M  V30 21 2 21 22
M  V30 22 1 22 23
M  V30 23 1 23 24
M  V30 24 1 23 25
M  V30 25 1 23 26
M  V30 26 1 22 27
M  V30 27 2 27 28
M  V30 28 1 10 29
M  V30 29 1 29 30
M  V30 30 1 30 31
M  V30 31 1 7 2
M  V30 32 2 30 8
M  V30 33 1 18 14
M  V30 34 1 28 19
M  V30 35 1 1 32
M  V30 36 1 1 33
M  V30 37 1 1 34
M  V30 38 1 4 35
M  V30 39 1 9 36
M  V30 40 1 13 37
M  V30 41 1 14 38
M  V30 42 1 15 39
M  V30 43 1 15 40
M  V30 44 1 16 41
M  V30 45 1 17 42
M  V30 46 1 17 43
M  V30 47 1 18 44
M  V30 48 1 20 45
M  V30 49 1 21 46
M  V30 50 1 27 47
M  V30 51 1 28 48
M  V30 END BOND
M  V30 END CTAB
M  END
>  <Dataset>  (977) 
ChEMBL_Kinases

>  <Ligand_Instance>  (977) 
nan

>  <PDB_ID>  (977) 
nan

>  <Standardized_SMILES>  (977) 
Cn1ncc(Cl)c1-c1cc(C(=O)NC2CNCC2c2ccc(C(F)(F)F)cc2)oc1Cl

>  <Name>  (977) 
nan

>  <Pocket>  (977) 
nan

>  <ATP_Site>  (977) 
nan

>  <Peripheral>  (977) 
nan

>  <Num_H_Atoms_ProtBoundConf>  (977) 
nan

>  <Num_Resolved_Atoms>  (977) 
nan

>  <Num_Not_Resolved_Atoms>  (977) 
nan

$$$$
CHEMBL4741261
     RDKit          3D

  0  0  0  0  0  0  0  0  0  0999 V3000
M  V30 BEGIN CTAB
M  V30 COUNTS 39 41 0 0 0
M  V30 BEGIN ATOM
M  V30 1 C -4.030668 -3.770692 3.038805 0
M  V30 2 O -3.693241 -3.194806 1.769804 0
M  V30 3 C -2.526405 -2.443358 1.687198 0
M  V30 4 C -1.755253 -2.290314 2.825765 0
M  V30 5 C -0.595243 -1.545380 2.750972 0
M  V30 6 C -0.228460 -0.971547 1.552523 0
M  V30 7 C -0.982295 -1.111752 0.406897 0
M  V30 8 C -2.159009 -1.868497 0.486559 0
M  V30 9 C -0.734893 -0.567014 -0.951472 0
M  V30 10 C 0.509984 0.248688 -1.070515 0
M  V30 11 C 1.362941 -0.400913 -2.156261 0
M  V30 12 C 0.147017 1.649202 -1.575523 0
M  V30 13 C 1.269979 0.352348 0.204603 0
M  V30 14 C 2.437506 1.101568 0.126997 0
M  V30 15 N 2.970915 1.767264 -1.030574 0
M  V30 16 N 3.241012 1.294722 1.190631 0
M  V30 17 C 2.939997 0.759662 2.394876 0
M  V30 18 C 3.773687 0.928220 3.609068 0
M  V30 19 N 1.812179 0.029910 2.490460 0
M  V30 20 C 0.992055 -0.178973 1.445428 0
M  V30 21 H -3.150292 -4.357861 3.432483 0
M  V30 22 H -4.830369 -4.531125 2.924244 0
M  V30 23 H -4.291471 -2.990099 3.772305 0
M  V30 24 H -1.990568 -2.715253 3.791900 0
M  V30 25 H 0.064095 -1.378094 3.597949 0
M  V30 26 H -2.823064 -2.041158 -0.351865 0
M  V30 27 H -0.754042 -1.436601 -1.646659 0
M  V30 28 H -1.610993 0.064135 -1.248406 0
M  V30 29 H 1.758114 0.378927 -2.864332 0
M  V30 30 H 2.148882 -1.018770 -1.705081 0
M  V30 31 H 0.744538 -1.057875 -2.801775 0
M  V30 32 H 0.444796 1.779911 -2.615000 0
M  V30 33 H -0.954084 1.774992 -1.514774 0
M  V30 34 H 0.674172 2.382706 -0.934681 0
M  V30 35 H 2.970124 2.653888 -1.574237 0
M  V30 36 H 3.614160 1.119908 -1.535595 0
M  V30 37 H 3.932450 -0.048176 4.088954 0
M  V30 38 H 3.177941 1.532604 4.339489 0
M  V30 39 H 4.710772 1.458800 3.394952 0
M  V30 END ATOM
M  V30 BEGIN BOND
M  V30 1 1 1 2
M  V30 2 1 2 3
M  V30 3 2 3 4
M  V30 4 1 4 5
M  V30 5 2 5 6
M  V30 6 1 6 7
M  V30 7 2 7 8
M  V30 8 1 7 9
M  V30 9 1 9 10
M  V30 10 1 10 11
M  V30 11 1 10 12
M  V30 12 1 10 13
M  V30 13 2 13 14
M  V30 14 1 14 15
M  V30 15 1 14 16
M  V30 16 2 16 17
M  V30 17 1 17 18
M  V30 18 1 17 19
M  V30 19 2 19 20
M  V30 20 1 8 3
M  V30 21 1 20 13
M  V30 22 1 20 6
M  V30 23 1 1 21
M  V30 24 1 1 22
M  V30 25 1 1 23
M  V30 26 1 4 24
M  V30 27 1 5 25
M  V30 28 1 8 26
M  V30 29 1 9 27
M  V30 30 1 9 28
M  V30 31 1 11 29
M  V30 32 1 11 30
M  V30 33 1 11 31
M  V30 34 1 12 32
M  V30 35 1 12 33
M  V30 36 1 12 34
M  V30 37 1 15 35
M  V30 38 1 15 36
M  V30 39 1 18 37
M  V30 40 1 18 38
M  V30 41 1 18 39
M  V30 END BOND
M  V30 END CTAB
M  END
>  <Dataset>  (978) 
ChEMBL_Kinases

>  <Ligand_Instance>  (978) 
nan

>  <PDB_ID>  (978) 
nan

>  <Standardized_SMILES>  (978) 
COc1ccc2c(c1)CC(C)(C)c1c(N)nc(C)nc1-2

>  <Name>  (978) 
nan

>  <Pocket>  (978) 
nan

>  <ATP_Site>  (978) 
nan

>  <Peripheral>  (978) 
nan

>  <Num_H_Atoms_ProtBoundConf>  (978) 
nan

>  <Num_Resolved_Atoms>  (978) 
nan

>  <Num_Not_Resolved_Atoms>  (978) 
nan

$$$$
CHEMBL4461170
     RDKit          3D

  0  0  0  0  0  0  0  0  0  0999 V3000
M  V30 BEGIN CTAB
M  V30 COUNTS 58 62 0 0 0
M  V30 BEGIN ATOM
M  V30 1 C 4.191981 -2.755719 2.982981 0
M  V30 2 C 3.614809 -1.402580 2.796076 0
M  V30 3 C 3.149107 -0.772771 3.944060 0
M  V30 4 C 2.613275 0.490664 3.752606 0
M  V30 5 C 2.087875 1.235996 4.950346 0
M  V30 6 C 2.520868 1.135507 2.521205 0
M  V30 7 C 3.008260 0.442755 1.414026 0
M  V30 8 O 2.886686 1.140507 0.216977 0
M  V30 9 C 1.711927 0.965850 -0.525878 0
M  V30 10 N 1.590194 1.645011 -1.693761 0
M  V30 11 C 0.489029 1.524128 -2.457087 0
M  V30 12 C -0.563059 0.692365 -2.065683 0
M  V30 13 C -0.419497 0.009653 -0.873340 0
M  V30 14 C -1.395373 -0.899502 -0.295337 0
M  V30 15 C -2.646825 -0.415435 0.065379 0
M  V30 16 C -3.179369 0.960478 -0.050842 0
M  V30 17 C -4.270347 1.336272 -0.802328 0
M  V30 18 C -4.611467 2.682915 -0.778774 0
M  V30 19 C -3.918022 3.631072 -0.051421 0
M  V30 20 F -4.296337 4.934582 -0.065315 0
M  V30 21 C -2.830943 3.192653 0.683984 0
M  V30 22 C -2.435884 1.869026 0.706318 0
M  V30 23 N -3.315575 -1.472135 0.561941 0
M  V30 24 N -2.571935 -2.558729 0.532108 0
M  V30 25 N -1.405802 -2.210485 0.011382 0
M  V30 26 C -0.162778 -2.921320 -0.293095 0
M  V30 27 C -0.397840 -4.374047 0.064479 0
M  V30 28 C -0.952993 -5.068745 -1.159355 0
M  V30 29 N -1.750276 -4.218175 -1.977880 0
M  V30 30 C -1.079021 -3.087993 -2.529447 0
M  V30 31 C 0.195151 -2.888981 -1.743224 0
M  V30 32 N 0.706478 0.142726 -0.107716 0
M  V30 33 C 3.550993 -0.815624 1.548089 0
M  V30 34 H 3.360220 -3.447719 3.240459 0
M  V30 35 H 4.985624 -2.751064 3.758190 0
M  V30 36 H 4.617353 -3.081678 2.028638 0
M  V30 37 H 3.185967 -1.207995 4.935452 0
M  V30 38 H 2.800759 2.063533 5.151763 0
M  V30 39 H 1.991403 0.548934 5.804101 0
M  V30 40 H 1.090200 1.653275 4.633085 0
M  V30 41 H 2.086809 2.123660 2.464371 0
M  V30 42 H 0.336608 2.042493 -3.400003 0
M  V30 43 H -1.486056 0.527155 -2.605470 0
M  V30 44 H -4.767309 0.569634 -1.341919 0
M  V30 45 H -5.470418 2.955183 -1.375402 0
M  V30 46 H -2.322094 3.985636 1.238439 0
M  V30 47 H -1.578811 1.615776 1.305668 0
M  V30 48 H 0.651339 -2.553386 0.367519 0
M  V30 49 H 0.597831 -4.822384 0.249349 0
M  V30 50 H -1.054296 -4.485188 0.953773 0
M  V30 51 H -1.587163 -5.933587 -0.841679 0
M  V30 52 H -0.132432 -5.493664 -1.801548 0
M  V30 53 H -2.740832 -4.135593 -1.769580 0
M  V30 54 H -1.662256 -2.141211 -2.427769 0
M  V30 55 H -0.798849 -3.217486 -3.593181 0
M  V30 56 H 0.871056 -3.734899 -1.986354 0
M  V30 57 H 0.747786 -1.985753 -2.053295 0
M  V30 58 H 3.908879 -1.301446 0.671184 0
M  V30 END ATOM
M  V30 BEGIN BOND
M  V30 1 1 1 2
M  V30 2 2 2 3
M  V30 3 1 3 4
M  V30 4 1 4 5
M  V30 5 2 4 6
M  V30 6 1 6 7
M  V30 7 1 7 8
M  V30 8 1 8 9
M  V30 9 2 9 10
M  V30 10 1 10 11
M  V30 11 2 11 12
M  V30 12 1 12 13
M  V30 13 1 13 14
M  V30 14 2 14 15
M  V30 15 1 15 16
M  V30 16 2 16 17
M  V30 17 1 17 18
M  V30 18 2 18 19
M  V30 19 1 19 20
M  V30 20 1 19 21
M  V30 21 2 21 22
M  V30 22 1 15 23
M  V30 23 2 23 24
M  V30 24 1 24 25
M  V30 25 1 25 26
M  V30 26 1 26 27
M  V30 27 1 27 28
M  V30 28 1 28 29
M  V30 29 1 29 30
M  V30 30 1 30 31
M  V30 31 2 13 32
M  V30 32 2 7 33
M  V30 33 1 33 2
M  V30 34 1 32 9
M  V30 35 1 25 14
M  V30 36 1 31 26
M  V30 37 1 22 16
M  V30 38 1 1 34
M  V30 39 1 1 35
M  V30 40 1 1 36
M  V30 41 1 3 37
M  V30 42 1 5 38
M  V30 43 1 5 39
M  V30 44 1 5 40
M  V30 45 1 6 41
M  V30 46 1 11 42
M  V30 47 1 12 43
M  V30 48 1 17 44
M  V30 49 1 18 45
M  V30 50 1 21 46
M  V30 51 1 22 47
M  V30 52 1 26 48
M  V30 53 1 27 49
M  V30 54 1 27 50
M  V30 55 1 28 51
M  V30 56 1 28 52
M  V30 57 1 29 53
M  V30 58 1 30 54
M  V30 59 1 30 55
M  V30 60 1 31 56
M  V30 61 1 31 57
M  V30 62 1 33 58
M  V30 END BOND
M  V30 END CTAB
M  END
>  <Dataset>  (979) 
ChEMBL_Kinases

>  <Ligand_Instance>  (979) 
nan

>  <PDB_ID>  (979) 
nan

>  <Standardized_SMILES>  (979) 
Cc1cc(C)cc(Oc2nccc(-c3c(-c4ccc(F)cc4)nnn3C3CCNCC3)n2)c1

>  <Name>  (979) 
nan

>  <Pocket>  (979) 
nan

>  <ATP_Site>  (979) 
nan

>  <Peripheral>  (979) 
nan

>  <Num_H_Atoms_ProtBoundConf>  (979) 
nan

>  <Num_Resolved_Atoms>  (979) 
nan

>  <Num_Not_Resolved_Atoms>  (979) 
nan

$$$$
CHEMBL4461131
     RDKit          3D

  0  0  0  0  0  0  0  0  0  0999 V3000
M  V30 BEGIN CTAB
M  V30 COUNTS 43 46 0 0 0
M  V30 BEGIN ATOM
M  V30 1 C 0.313006 -3.999048 2.725912 0
M  V30 2 C 0.600327 -4.125755 1.238862 0
M  V30 3 O 1.873679 -4.575449 0.974606 0
M  V30 4 C 0.417131 -2.799486 0.609049 0
M  V30 5 C 0.284333 -1.720494 0.084199 0
M  V30 6 C 0.137510 -0.444766 -0.559887 0
M  V30 7 C -0.595188 -0.307911 -1.719803 0
M  V30 8 C -0.744433 0.911366 -2.348941 0
M  V30 9 C -0.162237 2.054393 -1.840061 0
M  V30 10 C 0.578543 1.933399 -0.673078 0
M  V30 11 C 1.260756 3.033730 0.002087 0
M  V30 12 C 2.029954 3.992226 -0.645154 0
M  V30 13 N 2.509528 4.853770 0.268990 0
M  V30 14 C 2.079583 4.493105 1.504850 0
M  V30 15 C 2.257704 4.999831 2.776547 0
M  V30 16 N 1.676745 4.388955 3.829762 0
M  V30 17 C 0.913144 3.275968 3.666243 0
M  V30 18 N 0.322132 2.669059 4.810368 0
M  V30 19 N 0.741319 2.781078 2.409149 0
M  V30 20 C 1.304073 3.363395 1.341924 0
M  V30 21 C 0.722626 0.712258 -0.051180 0
M  V30 22 C -0.412268 -5.048470 0.662429 0
M  V30 23 C -0.035862 -6.391803 0.672385 0
M  V30 24 N -0.863595 -7.330021 0.178899 0
M  V30 25 C -2.068861 -7.013622 -0.335810 0
M  V30 26 C -2.436243 -5.662987 -0.340741 0
M  V30 27 N -1.612429 -4.720129 0.151510 0
M  V30 28 H 1.160615 -3.538780 3.253680 0
M  V30 29 H 0.091893 -4.946694 3.215342 0
M  V30 30 H -0.613081 -3.365397 2.806638 0
M  V30 31 H 2.495930 -4.022354 1.539002 0
M  V30 32 H -1.072561 -1.200632 -2.151736 0
M  V30 33 H -1.322610 1.022806 -3.265368 0
M  V30 34 H -0.230132 3.032896 -2.266039 0
M  V30 35 H 2.230259 4.060312 -1.719853 0
M  V30 36 H 3.129611 5.703038 0.129622 0
M  V30 37 H 2.876668 5.893299 2.865567 0
M  V30 38 H 0.314501 1.694851 5.183704 0
M  V30 39 H -0.243741 3.291574 5.459212 0
M  V30 40 H 1.294559 0.570537 0.865748 0
M  V30 41 H 0.900831 -6.771891 1.056137 0
M  V30 42 H -2.739976 -7.768610 -0.735243 0
M  V30 43 H -3.388776 -5.356927 -0.740736 0
M  V30 END ATOM
M  V30 BEGIN BOND
M  V30 1 1 1 2
M  V30 2 1 2 3
M  V30 3 1 2 4
M  V30 4 3 4 5
M  V30 5 1 5 6
M  V30 6 2 6 7
M  V30 7 1 7 8
M  V30 8 2 8 9
M  V30 9 1 9 10
M  V30 10 1 10 11
M  V30 11 2 11 12
M  V30 12 1 12 13
M  V30 13 1 13 14
M  V30 14 2 14 15
M  V30 15 1 15 16
M  V30 16 2 16 17
M  V30 17 1 17 18
M  V30 18 1 17 19
M  V30 19 2 19 20
M  V30 20 2 10 21
M  V30 21 1 2 22
M  V30 22 2 22 23
M  V30 23 1 23 24
M  V30 24 2 24 25
M  V30 25 1 25 26
M  V30 26 2 26 27
M  V30 27 1 21 6
M  V30 28 1 27 22
M  V30 29 1 20 11
M  V30 30 1 20 14
M  V30 31 1 1 28
M  V30 32 1 1 29
M  V30 33 1 1 30
M  V30 34 1 3 31
M  V30 35 1 7 32
M  V30 36 1 8 33
M  V30 37 1 9 34
M  V30 38 1 12 35
M  V30 39 1 13 36
M  V30 40 1 15 37
M  V30 41 1 18 38
M  V30 42 1 18 39
M  V30 43 1 21 40
M  V30 44 1 23 41
M  V30 45 1 25 42
M  V30 46 1 26 43
M  V30 END BOND
M  V30 END CTAB
M  END
>  <Dataset>  (980) 
ChEMBL_Kinases

>  <Ligand_Instance>  (980) 
nan

>  <PDB_ID>  (980) 
nan

>  <Standardized_SMILES>  (980) 
CC(O)(C#Cc1cccc(-c2c[nH]c3cnc(N)nc23)c1)c1cnccn1

>  <Name>  (980) 
nan

>  <Pocket>  (980) 
nan

>  <ATP_Site>  (980) 
nan

>  <Peripheral>  (980) 
nan

>  <Num_H_Atoms_ProtBoundConf>  (980) 
nan

>  <Num_Resolved_Atoms>  (980) 
nan

>  <Num_Not_Resolved_Atoms>  (980) 
nan

$$$$
CHEMBL4741330
     RDKit          3D

  0  0  0  0  0  0  0  0  0  0999 V3000
M  V30 BEGIN CTAB
M  V30 COUNTS 53 56 0 0 0
M  V30 BEGIN ATOM
M  V30 1 C 2.848946 -3.020135 -1.972316 0
M  V30 2 N 3.795532 -3.565070 -1.016413 0
M  V30 3 C 4.403889 -2.560025 -0.201718 0
M  V30 4 C 4.050743 -2.608133 1.249032 0
M  V30 5 C 2.594171 -2.806247 1.538749 0
M  V30 6 N 1.880262 -1.559788 1.286102 0
M  V30 7 C 2.368472 -0.332383 1.031910 0
M  V30 8 C 1.352393 0.581570 0.848907 0
M  V30 9 C 1.474022 2.007022 0.555725 0
M  V30 10 C 1.551483 2.767556 -0.610529 0
M  V30 11 N 1.653781 4.061980 -0.222717 0
M  V30 12 N 1.643018 4.131120 1.101106 0
M  V30 13 C 1.534185 2.894524 1.622541 0
M  V30 14 Cl 1.499676 2.741680 3.377607 0
M  V30 15 C 0.181000 -0.132885 1.000902 0
M  V30 16 C -1.118555 0.332408 0.911286 0
M  V30 17 C -2.134583 -0.583812 1.103993 0
M  V30 18 C -3.487260 -0.090811 1.008951 0
M  V30 19 C -4.621748 0.322248 0.916400 0
M  V30 20 C -6.006046 0.825795 0.780771 0
M  V30 21 C -6.080918 2.023072 -0.143211 0
M  V30 22 C -6.433056 1.220870 2.153034 0
M  V30 23 O -6.831532 -0.168575 0.231448 0
M  V30 24 C -1.853781 -1.910272 1.375026 0
M  V30 25 F -2.873941 -2.786785 1.559616 0
M  V30 26 C -0.527842 -2.293133 1.447596 0
M  V30 27 C 0.540429 -1.438302 1.267254 0
M  V30 28 C 2.085645 -3.947686 0.697736 0
M  V30 29 C 3.187730 -4.563538 -0.163382 0
M  V30 30 H 2.652180 -1.957919 -1.657980 0
M  V30 31 H 3.228025 -2.981639 -3.002409 0
M  V30 32 H 1.887169 -3.541291 -2.005527 0
M  V30 33 H 5.515857 -2.748810 -0.256634 0
M  V30 34 H 4.237657 -1.586472 -0.696364 0
M  V30 35 H 4.426367 -1.680335 1.715893 0
M  V30 36 H 4.613815 -3.444165 1.725576 0
M  V30 37 H 2.510746 -3.055710 2.618043 0
M  V30 38 H 3.412769 -0.072846 0.973896 0
M  V30 39 H 1.520834 2.255047 -1.555253 0
M  V30 40 H 1.720645 4.752637 -1.001564 0
M  V30 41 H -1.332804 1.371989 0.698838 0
M  V30 42 H -6.975480 1.999510 -0.785882 0
M  V30 43 H -5.137035 2.124849 -0.747363 0
M  V30 44 H -6.099667 2.939490 0.482345 0
M  V30 45 H -6.926295 0.385109 2.672757 0
M  V30 46 H -5.570458 1.629461 2.706296 0
M  V30 47 H -7.209800 2.027126 2.012804 0
M  V30 48 H -6.851493 -0.899426 0.889328 0
M  V30 49 H -0.355870 -3.336803 1.661072 0
M  V30 50 H 1.676881 -4.744221 1.323464 0
M  V30 51 H 1.305447 -3.632470 -0.045590 0
M  V30 52 H 3.978890 -5.043266 0.417509 0
M  V30 53 H 2.681571 -5.316094 -0.811061 0
M  V30 END ATOM
M  V30 BEGIN BOND
M  V30 1 1 1 2
M  V30 2 1 2 3
M  V30 3 1 3 4
M  V30 4 1 4 5
M  V30 5 1 5 6
M  V30 6 1 6 7
M  V30 7 2 7 8
M  V30 8 1 8 9
M  V30 9 2 9 10
M  V30 10 1 10 11
M  V30 11 1 11 12
M  V30 12 2 12 13
M  V30 13 1 13 14
M  V30 14 1 8 15
M  V30 15 2 15 16
M  V30 16 1 16 17
M  V30 17 1 17 18
M  V30 18 3 18 19
M  V30 19 1 19 20
M  V30 20 1 20 21
M  V30 21 1 20 22
M  V30 22 1 20 23
M  V30 23 2 17 24
M  V30 24 1 24 25
M  V30 25 1 24 26
M  V30 26 2 26 27
M  V30 27 1 5 28
M  V30 28 1 28 29
M  V30 29 1 29 2
M  V30 30 1 27 6
M  V30 31 1 13 9
M  V30 32 1 27 15
M  V30 33 1 1 30
M  V30 34 1 1 31
M  V30 35 1 1 32
M  V30 36 1 3 33
M  V30 37 1 3 34
M  V30 38 1 4 35
M  V30 39 1 4 36
M  V30 40 1 5 37
M  V30 41 1 7 38
M  V30 42 1 10 39
M  V30 43 1 11 40
M  V30 44 1 16 41
M  V30 45 1 21 42
M  V30 46 1 21 43
M  V30 47 1 21 44
M  V30 48 1 22 45
M  V30 49 1 22 46
M  V30 50 1 22 47
M  V30 51 1 23 48
M  V30 52 1 26 49
M  V30 53 1 28 50
M  V30 54 1 28 51
M  V30 55 1 29 52
M  V30 56 1 29 53
M  V30 END BOND
M  V30 END CTAB
M  END
>  <Dataset>  (981) 
ChEMBL_Kinases

>  <Ligand_Instance>  (981) 
nan

>  <PDB_ID>  (981) 
nan

>  <Standardized_SMILES>  (981) 
CN1CCC(n2cc(-c3c[nH]nc3Cl)c3cc(C#CC(C)(C)O)c(F)cc32)CC1

>  <Name>  (981) 
nan

>  <Pocket>  (981) 
nan

>  <ATP_Site>  (981) 
nan

>  <Peripheral>  (981) 
nan

>  <Num_H_Atoms_ProtBoundConf>  (981) 
nan

>  <Num_Resolved_Atoms>  (981) 
nan

>  <Num_Not_Resolved_Atoms>  (981) 
nan

$$$$
CHEMBL4461047
     RDKit          3D

  0  0  0  0  0  0  0  0  0  0999 V3000
M  V30 BEGIN CTAB
M  V30 COUNTS 39 41 0 0 0
M  V30 BEGIN ATOM
M  V30 1 C 0.251962 -4.857347 2.005330 0
M  V30 2 C 1.259766 -3.857847 2.503511 0
M  V30 3 C 1.218294 -2.561095 1.714513 0
M  V30 4 C 1.529550 -2.959065 0.285554 0
M  V30 5 O 1.646490 -1.841547 -0.489123 0
M  V30 6 N -0.007720 -1.826293 1.857385 0
M  V30 7 C -0.348002 -0.531166 1.347415 0
M  V30 8 N 0.487020 0.213397 0.642117 0
M  V30 9 C 0.220976 1.412668 0.161536 0
M  V30 10 C 1.196746 2.174147 -0.609352 0
M  V30 11 C 0.929787 3.415250 -1.110079 0
M  V30 12 C 1.896327 4.088412 -1.833855 0
M  V30 13 N 3.099500 3.566120 -2.066979 0
M  V30 14 C 3.410304 2.350695 -1.596700 0
M  V30 15 C 2.448013 1.668229 -0.870084 0
M  V30 16 N -0.992528 1.945075 0.393845 0
M  V30 17 C -1.915313 1.267324 1.102029 0
M  V30 18 C -3.136602 1.822641 1.326100 0
M  V30 19 N -4.089641 1.155749 2.041088 0
M  V30 20 C -3.805966 -0.080054 2.532401 0
M  V30 21 C -2.570506 -0.611027 2.290618 0
M  V30 22 C -1.587879 0.018916 1.581755 0
M  V30 23 H 0.621879 -5.339906 1.100461 0
M  V30 24 H -0.766262 -4.435151 1.918223 0
M  V30 25 H 0.179667 -5.649570 2.793624 0
M  V30 26 H 1.196303 -3.706065 3.598726 0
M  V30 27 H 2.268723 -4.282910 2.318210 0
M  V30 28 H 2.050909 -1.929955 2.078390 0
M  V30 29 H 0.731292 -3.657686 -0.048337 0
M  V30 30 H 2.458699 -3.580007 0.349518 0
M  V30 31 H 1.017740 -1.896887 -1.254982 0
M  V30 32 H -0.684655 -2.377986 2.417778 0
M  V30 33 H -0.047615 3.866688 -0.934028 0
M  V30 34 H 1.616717 5.077472 -2.205688 0
M  V30 35 H 4.403214 1.925063 -1.791728 0
M  V30 36 H 2.757259 0.689821 -0.515537 0
M  V30 37 H -3.327347 2.808988 0.919452 0
M  V30 38 H -4.605210 -0.548710 3.087512 0
M  V30 39 H -2.424928 -1.577183 2.705496 0
M  V30 END ATOM
M  V30 BEGIN BOND
M  V30 1 1 1 2
M  V30 2 1 2 3
M  V30 3 1 3 4
M  V30 4 1 4 5
M  V30 5 1 3 6
M  V30 6 1 6 7
M  V30 7 2 7 8
M  V30 8 1 8 9
M  V30 9 1 9 10
M  V30 10 2 10 11
M  V30 11 1 11 12
M  V30 12 2 12 13
M  V30 13 1 13 14
M  V30 14 2 14 15
M  V30 15 2 9 16
M  V30 16 1 16 17
M  V30 17 2 17 18
M  V30 18 1 18 19
M  V30 19 2 19 20
M  V30 20 1 20 21
M  V30 21 2 21 22
M  V30 22 1 22 7
M  V30 23 1 15 10
M  V30 24 1 22 17
M  V30 25 1 1 23
M  V30 26 1 1 24
M  V30 27 1 1 25
M  V30 28 1 2 26
M  V30 29 1 2 27
M  V30 30 1 3 28
M  V30 31 1 4 29
M  V30 32 1 4 30
M  V30 33 1 5 31
M  V30 34 1 6 32
M  V30 35 1 11 33
M  V30 36 1 12 34
M  V30 37 1 14 35
M  V30 38 1 15 36
M  V30 39 1 18 37
M  V30 40 1 20 38
M  V30 41 1 21 39
M  V30 END BOND
M  V30 END CTAB
M  END
>  <Dataset>  (982) 
ChEMBL_Kinases

>  <Ligand_Instance>  (982) 
nan

>  <PDB_ID>  (982) 
nan

>  <Standardized_SMILES>  (982) 
CCC(CO)Nc1nc(-c2ccncc2)nc2cnccc12

>  <Name>  (982) 
nan

>  <Pocket>  (982) 
nan

>  <ATP_Site>  (982) 
nan

>  <Peripheral>  (982) 
nan

>  <Num_H_Atoms_ProtBoundConf>  (982) 
nan

>  <Num_Resolved_Atoms>  (982) 
nan

>  <Num_Not_Resolved_Atoms>  (982) 
nan

$$$$
CHEMBL4741377
     RDKit          3D

  0  0  0  0  0  0  0  0  0  0999 V3000
M  V30 BEGIN CTAB
M  V30 COUNTS 25 26 0 0 0
M  V30 BEGIN ATOM
M  V30 1 C -1.056802 -4.651574 3.969291 0
M  V30 2 C -0.940088 -3.454895 3.085161 0
M  V30 3 O -1.992120 -2.799629 2.900398 0
M  V30 4 N 0.342952 -3.160667 2.531290 0
M  V30 5 C 0.467428 -1.968565 1.648346 0
M  V30 6 N 0.714366 -0.906498 1.934133 0
M  V30 7 C 0.843649 0.197227 1.227289 0
M  V30 8 C 1.151654 1.508810 1.604302 0
M  V30 9 C 1.223251 2.480323 0.649468 0
M  V30 10 C 1.018331 2.310283 -0.700031 0
M  V30 11 C 1.101011 3.364731 -1.697194 0
M  V30 12 N 0.867718 3.066395 -3.069225 0
M  V30 13 O 1.379688 4.539034 -1.337187 0
M  V30 14 C 0.714502 1.027951 -1.089858 0
M  V30 15 C 0.639304 0.024941 -0.114158 0
M  V30 16 S 0.272058 -1.737147 -0.253651 0
M  V30 17 H -0.091328 -4.911268 4.443748 0
M  V30 18 H -1.775255 -4.460284 4.800015 0
M  V30 19 H -1.479986 -5.512161 3.392953 0
M  V30 20 H 1.179248 -3.746030 2.724101 0
M  V30 21 H 1.341089 1.803186 2.637303 0
M  V30 22 H 1.466964 3.511688 0.957853 0
M  V30 23 H 0.080596 2.679325 -3.668787 0
M  V30 24 H 0.092249 2.684244 -3.665190 0
M  V30 25 H 0.524968 0.705946 -2.080409 0
M  V30 END ATOM
M  V30 BEGIN BOND
M  V30 1 1 1 2
M  V30 2 2 2 3
M  V30 3 1 2 4
M  V30 4 1 4 5
M  V30 5 2 5 6
M  V30 6 1 6 7
M  V30 7 2 7 8
M  V30 8 1 8 9
M  V30 9 2 9 10
M  V30 10 1 10 11
M  V30 11 1 11 12
M  V30 12 2 11 13
M  V30 13 1 10 14
M  V30 14 2 14 15
M  V30 15 1 15 16
M  V30 16 1 16 5
M  V30 17 1 15 7
M  V30 18 1 1 17
M  V30 19 1 1 18
M  V30 20 1 1 19
M  V30 21 1 4 20
M  V30 22 1 8 21
M  V30 23 1 9 22
M  V30 24 1 12 23
M  V30 25 1 12 24
M  V30 26 1 14 25
M  V30 END BOND
M  V30 END CTAB
M  END
>  <Dataset>  (983) 
ChEMBL_Kinases

>  <Ligand_Instance>  (983) 
nan

>  <PDB_ID>  (983) 
nan

>  <Standardized_SMILES>  (983) 
CC(=O)Nc1nc2ccc(C(N)=O)cc2s1

>  <Name>  (983) 
nan

>  <Pocket>  (983) 
nan

>  <ATP_Site>  (983) 
nan

>  <Peripheral>  (983) 
nan

>  <Num_H_Atoms_ProtBoundConf>  (983) 
nan

>  <Num_Resolved_Atoms>  (983) 
nan

>  <Num_Not_Resolved_Atoms>  (983) 
nan

$$$$
CHEMBL4460909
     RDKit          3D

  0  0  0  0  0  0  0  0  0  0999 V3000
M  V30 BEGIN CTAB
M  V30 COUNTS 47 51 0 0 0
M  V30 BEGIN ATOM
M  V30 1 C 2.880227 -2.451492 6.235883 0
M  V30 2 C 2.095155 -2.581901 4.994017 0
M  V30 3 C 2.519578 -2.551687 3.683808 0
M  V30 4 N 1.517865 -2.703771 2.803578 0
M  V30 5 C 1.597566 -2.722825 1.346416 0
M  V30 6 C 1.459867 -1.423402 0.732628 0
M  V30 7 N 2.620517 -0.689763 0.661681 0
M  V30 8 C 2.344930 0.490601 0.100369 0
M  V30 9 C 3.246474 1.506331 -0.141435 0
M  V30 10 N 2.737645 2.611104 -0.712045 0
M  V30 11 C 1.432413 2.716964 -1.024989 0
M  V30 12 C 1.024524 3.885987 -1.581749 0
M  V30 13 C -0.309694 4.008365 -1.884933 0
M  V30 14 C -1.209555 2.970808 -1.629545 0
M  V30 15 Cl -2.890107 3.226277 -2.051730 0
M  V30 16 C -0.685443 1.827566 -1.061859 0
M  V30 17 C 0.629587 1.642706 -0.738607 0
M  V30 18 C 1.006966 0.450378 -0.161183 0
M  V30 19 N 0.421627 -0.703495 0.206313 0
M  V30 20 C -0.891882 -1.086411 0.062562 0
M  V30 21 C -1.921604 -0.711315 1.028695 0
M  V30 22 N -3.128875 -1.217760 0.403785 0
M  V30 23 C -3.888598 -0.263204 -0.321704 0
M  V30 24 C -2.739522 -2.326316 -0.445468 0
M  V30 25 C -1.242177 -2.574469 -0.018724 0
M  V30 26 F -0.609833 -3.254059 -0.988479 0
M  V30 27 F -1.444045 -3.148980 1.180924 0
M  V30 28 N 0.450879 -2.831348 3.558131 0
M  V30 29 N 0.776520 -2.761888 4.829026 0
M  V30 30 H 3.882368 -2.052623 6.015454 0
M  V30 31 H 2.299275 -1.782471 6.918524 0
M  V30 32 H 2.985564 -3.458987 6.679528 0
M  V30 33 H 3.559885 -2.419035 3.348646 0
M  V30 34 H 1.061253 -3.582063 0.917315 0
M  V30 35 H 2.666491 -3.098157 1.189763 0
M  V30 36 H 4.293682 1.422081 0.110182 0
M  V30 37 H 1.701945 4.699025 -1.786721 0
M  V30 38 H -0.638432 4.938251 -2.329095 0
M  V30 39 H -1.445972 1.136603 -0.900140 0
M  V30 40 H -1.254475 -0.809677 -0.958158 0
M  V30 41 H -2.034955 0.354080 1.284601 0
M  V30 42 H -1.906244 -1.305600 1.990403 0
M  V30 43 H -3.920640 0.744273 0.118862 0
M  V30 44 H -4.946169 -0.602747 -0.373767 0
M  V30 45 H -3.534366 -0.186683 -1.378841 0
M  V30 46 H -3.309309 -3.246782 -0.276473 0
M  V30 47 H -2.670824 -2.026761 -1.513854 0
M  V30 END ATOM
M  V30 BEGIN BOND
M  V30 1 1 1 2
M  V30 2 2 2 3
M  V30 3 1 3 4
M  V30 4 1 4 5
M  V30 5 1 5 6
M  V30 6 2 6 7
M  V30 7 1 7 8
M  V30 8 2 8 9
M  V30 9 1 9 10
M  V30 10 2 10 11
M  V30 11 1 11 12
M  V30 12 2 12 13
M  V30 13 1 13 14
M  V30 14 1 14 15
M  V30 15 2 14 16
M  V30 16 1 16 17
M  V30 17 2 17 18
M  V30 18 1 18 19
M  V30 19 1 19 20
M  V30 20 1 20 21
M  V30 21 1 21 22
M  V30 22 1 22 23
M  V30 23 1 22 24
M  V30 24 1 24 25
M  V30 25 1 25 26
M  V30 26 1 25 27
M  V30 27 1 4 28
M  V30 28 2 28 29
M  V30 29 1 29 2
M  V30 30 1 19 6
M  V30 31 1 25 20
M  V30 32 1 18 8
M  V30 33 1 17 11
M  V30 34 1 1 30
M  V30 35 1 1 31
M  V30 36 1 1 32
M  V30 37 1 3 33
M  V30 38 1 5 34
M  V30 39 1 5 35
M  V30 40 1 9 36
M  V30 41 1 12 37
M  V30 42 1 13 38
M  V30 43 1 16 39
M  V30 44 1 20 40
M  V30 45 1 21 41
M  V30 46 1 21 42
M  V30 47 1 23 43
M  V30 48 1 23 44
M  V30 49 1 23 45
M  V30 50 1 24 46
M  V30 51 1 24 47
M  V30 END BOND
M  V30 END CTAB
M  END
>  <Dataset>  (984) 
ChEMBL_Kinases

>  <Ligand_Instance>  (984) 
nan

>  <PDB_ID>  (984) 
nan

>  <Standardized_SMILES>  (984) 
Cc1cn(Cc2nc3cnc4ccc(Cl)cc4c3n2C2CN(C)CC2(F)F)nn1

>  <Name>  (984) 
nan

>  <Pocket>  (984) 
nan

>  <ATP_Site>  (984) 
nan

>  <Peripheral>  (984) 
nan

>  <Num_H_Atoms_ProtBoundConf>  (984) 
nan

>  <Num_Resolved_Atoms>  (984) 
nan

>  <Num_Not_Resolved_Atoms>  (984) 
nan

$$$$
CHEMBL4460905
     RDKit          3D

  0  0  0  0  0  0  0  0  0  0999 V3000
M  V30 BEGIN CTAB
M  V30 COUNTS 45 48 0 0 0
M  V30 BEGIN ATOM
M  V30 1 C -0.145585 -3.504330 2.872015 0
M  V30 2 C 0.650748 -3.502527 1.628632 0
M  V30 3 N 1.605429 -4.379131 1.324132 0
M  V30 4 C 2.098124 -4.041331 0.100455 0
M  V30 5 N 3.069544 -4.622380 -0.629041 0
M  V30 6 C 3.420513 -4.132666 -1.836918 0
M  V30 7 C 2.767726 -3.013478 -2.330272 0
M  V30 8 C 1.772673 -2.419862 -1.580907 0
M  V30 9 C 1.401836 -2.911003 -0.340144 0
M  V30 10 C 0.475854 -2.574456 0.648546 0
M  V30 11 C -0.417468 -1.431038 0.497258 0
M  V30 12 N -0.044976 -0.213958 0.933219 0
M  V30 13 C -0.794372 0.894805 0.839208 0
M  V30 14 N -0.324321 2.153552 1.328335 0
M  V30 15 C 0.992739 2.173924 1.926999 0
M  V30 16 C 1.296448 3.579011 2.373221 0
M  V30 17 C 1.013268 1.310758 3.176333 0
M  V30 18 C 2.057468 1.669746 1.001107 0
M  V30 19 C -2.006449 0.687946 0.246858 0
M  V30 20 C -2.870283 1.743023 0.089396 0
M  V30 21 C -4.114794 1.649011 -0.492752 0
M  V30 22 N -4.504870 0.425428 -0.938076 0
M  V30 23 C -3.709984 -0.654415 -0.817174 0
M  V30 24 C -2.464639 -0.514942 -0.224641 0
M  V30 25 N -1.630819 -1.579542 -0.082824 0
M  V30 26 H -1.011578 -2.846405 2.851492 0
M  V30 27 H -0.555296 -4.544071 2.980418 0
M  V30 28 H 0.506732 -3.346586 3.765007 0
M  V30 29 H 1.920869 -5.181061 1.914958 0
M  V30 30 H 4.197712 -4.548902 -2.486201 0
M  V30 31 H 3.013167 -2.576470 -3.302582 0
M  V30 32 H 1.252762 -1.556512 -1.936009 0
M  V30 33 H -0.868699 3.036379 1.277073 0
M  V30 34 H 0.322964 4.064254 2.616646 0
M  V30 35 H 1.950057 3.629548 3.276605 0
M  V30 36 H 1.752505 4.151127 1.520156 0
M  V30 37 H 1.117666 0.231442 2.961609 0
M  V30 38 H 0.095498 1.451085 3.771876 0
M  V30 39 H 1.884773 1.592313 3.814474 0
M  V30 40 H 1.714921 1.714029 -0.048983 0
M  V30 41 H 2.932407 2.347525 1.082806 0
M  V30 42 H 2.389589 0.649305 1.295100 0
M  V30 43 H -2.625003 2.740567 0.419633 0
M  V30 44 H -4.797729 2.479338 -0.618085 0
M  V30 45 H -3.958294 -1.652054 -1.148812 0
M  V30 END ATOM
M  V30 BEGIN BOND
M  V30 1 1 1 2
M  V30 2 1 2 3
M  V30 3 1 3 4
M  V30 4 2 4 5
M  V30 5 1 5 6
M  V30 6 2 6 7
M  V30 7 1 7 8
M  V30 8 2 8 9
M  V30 9 1 9 10
M  V30 10 1 10 11
M  V30 11 2 11 12
M  V30 12 1 12 13
M  V30 13 1 13 14
M  V30 14 1 14 15
M  V30 15 1 15 16
M  V30 16 1 15 17
M  V30 17 1 15 18
M  V30 18 2 13 19
M  V30 19 1 19 20
M  V30 20 2 20 21
M  V30 21 1 21 22
M  V30 22 2 22 23
M  V30 23 1 23 24
M  V30 24 2 24 25
M  V30 25 2 10 2
M  V30 26 1 25 11
M  V30 27 1 9 4
M  V30 28 1 24 19
M  V30 29 1 1 26
M  V30 30 1 1 27
M  V30 31 1 1 28
M  V30 32 1 3 29
M  V30 33 1 6 30
M  V30 34 1 7 31
M  V30 35 1 8 32
M  V30 36 1 14 33
M  V30 37 1 16 34
M  V30 38 1 16 35
M  V30 39 1 16 36
M  V30 40 1 17 37
M  V30 41 1 17 38
M  V30 42 1 17 39
M  V30 43 1 18 40
M  V30 44 1 18 41
M  V30 45 1 18 42
M  V30 46 1 20 43
M  V30 47 1 21 44
M  V30 48 1 23 45
M  V30 END BOND
M  V30 END CTAB
M  END
>  <Dataset>  (985) 
ChEMBL_Kinases

>  <Ligand_Instance>  (985) 
nan

>  <PDB_ID>  (985) 
nan

>  <Standardized_SMILES>  (985) 
Cc1[nH]c2ncccc2c1-c1nc(NC(C)(C)C)c2ccncc2n1

>  <Name>  (985) 
nan

>  <Pocket>  (985) 
nan

>  <ATP_Site>  (985) 
nan

>  <Peripheral>  (985) 
nan

>  <Num_H_Atoms_ProtBoundConf>  (985) 
nan

>  <Num_Resolved_Atoms>  (985) 
nan

>  <Num_Not_Resolved_Atoms>  (985) 
nan

$$$$
CHEMBL4741384
     RDKit          3D

  0  0  0  0  0  0  0  0  0  0999 V3000
M  V30 BEGIN CTAB
M  V30 COUNTS 58 62 0 0 0
M  V30 BEGIN ATOM
M  V30 1 C 7.339420 -2.187619 1.734470 0
M  V30 2 O 5.938266 -2.119898 1.793058 0
M  V30 3 C 5.321643 -0.912340 1.475410 0
M  V30 4 C 3.938625 -0.912667 1.552843 0
M  V30 5 C 3.228006 0.243484 1.255511 0
M  V30 6 C 3.856605 1.410376 0.880025 0
M  V30 7 C 3.069581 2.597685 0.577072 0
M  V30 8 C 3.633704 3.796420 0.200250 0
M  V30 9 C 2.851821 4.894628 -0.073958 0
M  V30 10 N 1.516622 4.797877 0.026913 0
M  V30 11 C 0.943774 3.641401 0.391945 0
M  V30 12 N -0.483886 3.543350 0.501458 0
M  V30 13 C -1.254323 2.370328 0.874260 0 CFG=1
M  V30 14 C -2.737126 2.629618 0.914641 0
M  V30 15 O -3.377346 1.476444 0.539658 0
M  V30 16 C -2.496560 0.719274 -0.233476 0 CFG=1
M  V30 17 C -1.162468 1.371168 -0.227101 0 CFG=2
M  V30 18 O -0.206602 0.389516 -0.042366 0
M  V30 19 C -0.804468 -0.647697 0.653927 0
M  V30 20 C -2.274975 -0.580809 0.409912 0 CFG=2
M  V30 21 N -2.678989 -1.754658 -0.293414 0
M  V30 22 C -3.539412 -2.801121 0.122544 0
M  V30 23 O -4.056999 -2.770190 1.239479 0
M  V30 24 N -3.686665 -3.786567 -0.864266 0
M  V30 25 C -4.487591 -4.954755 -0.732669 0
M  V30 26 C -5.818390 -5.155992 -1.052329 0
M  V30 27 C -6.364999 -6.393143 -0.826452 0
M  V30 28 C -5.657754 -7.449263 -0.296764 0
M  V30 29 C -4.333126 -7.258557 0.024399 0
M  V30 30 C -3.758826 -6.019679 -0.194050 0
M  V30 31 N 1.727530 2.579015 0.655730 0
M  V30 32 C 5.229367 1.382795 0.811280 0
M  V30 33 C 5.964340 0.245055 1.101955 0
M  V30 34 H 7.793269 -1.681164 0.870330 0
M  V30 35 H 7.831038 -1.790717 2.638665 0
M  V30 36 H 7.642337 -3.261913 1.637018 0
M  V30 37 H 3.392621 -1.818951 1.847040 0
M  V30 38 H 2.152632 0.170623 1.337909 0
M  V30 39 H 4.704546 3.905549 0.109988 0
M  V30 40 H 3.190635 5.862695 -0.371764 0
M  V30 41 H -1.053698 4.402125 0.294054 0
M  V30 42 H -0.858561 1.920209 1.811087 0
M  V30 43 H -3.015669 2.843236 1.972083 0
M  V30 44 H -2.944144 3.497981 0.259609 0
M  V30 45 H -2.982400 0.689260 -1.228767 0
M  V30 46 H -0.900401 1.898078 -1.160036 0
M  V30 47 H -0.544501 -0.493875 1.735476 0
M  V30 48 H -0.389933 -1.649574 0.410939 0
M  V30 49 H -2.770311 -0.626606 1.403282 0
M  V30 50 H -2.182763 -1.664635 -1.210235 0
M  V30 51 H -3.245687 -3.809206 -1.809350 0
M  V30 52 H -6.280412 -4.282888 -1.455192 0
M  V30 53 H -7.395851 -6.505195 -1.087650 0
M  V30 54 H -6.125902 -8.417580 -0.131480 0
M  V30 55 H -3.786300 -8.096637 0.440530 0
M  V30 56 H -2.700736 -5.978109 0.096880 0
M  V30 57 H 5.793420 2.253678 0.525818 0
M  V30 58 H 7.042577 0.212286 1.051135 0
M  V30 END ATOM
M  V30 BEGIN BOND
M  V30 1 1 1 2
M  V30 2 1 2 3
M  V30 3 2 3 4
M  V30 4 1 4 5
M  V30 5 2 5 6
M  V30 6 1 6 7
M  V30 7 2 7 8
M  V30 8 1 8 9
M  V30 9 2 9 10
M  V30 10 1 10 11
M  V30 11 1 11 12
M  V30 12 1 12 13
M  V30 13 1 13 14
M  V30 14 1 14 15
M  V30 15 1 15 16
M  V30 16 1 16 17
M  V30 17 1 17 18
M  V30 18 1 18 19
M  V30 19 1 19 20
M  V30 20 1 20 21
M  V30 21 1 21 22
M  V30 22 2 22 23
M  V30 23 1 22 24
M  V30 24 1 24 25
M  V30 25 2 25 26
M  V30 26 1 26 27
M  V30 27 2 27 28
M  V30 28 1 28 29
M  V30 29 2 29 30
M  V30 30 2 11 31
M  V30 31 1 6 32
M  V30 32 2 32 33
M  V30 33 1 33 3
M  V30 34 1 31 7
M  V30 35 1 17 13
M  V30 36 1 30 25
M  V30 37 1 20 16
M  V30 38 1 1 34
M  V30 39 1 1 35
M  V30 40 1 1 36
M  V30 41 1 4 37
M  V30 42 1 5 38
M  V30 43 1 8 39
M  V30 44 1 9 40
M  V30 45 1 12 41
M  V30 46 1 13 42 CFG=1
M  V30 47 1 14 43
M  V30 48 1 14 44
M  V30 49 1 16 45 CFG=3
M  V30 50 1 17 46 CFG=3
M  V30 51 1 19 47
M  V30 52 1 19 48
M  V30 53 1 20 49 CFG=1
M  V30 54 1 21 50
M  V30 55 1 24 51
M  V30 56 1 26 52
M  V30 57 1 27 53
M  V30 58 1 28 54
M  V30 59 1 29 55
M  V30 60 1 30 56
M  V30 61 1 32 57
M  V30 62 1 33 58
M  V30 END BOND
M  V30 END CTAB
M  END
>  <Dataset>  (986) 
ChEMBL_Kinases

>  <Ligand_Instance>  (986) 
nan

>  <PDB_ID>  (986) 
nan

>  <Standardized_SMILES>  (986) 
COc1ccc(-c2ccnc(N[C@H]3CO[C@H]4[C@@H]3OC[C@@H]4NC(=O)Nc3ccccc3)n2)cc1

>  <Name>  (986) 
nan

>  <Pocket>  (986) 
nan

>  <ATP_Site>  (986) 
nan

>  <Peripheral>  (986) 
nan

>  <Num_H_Atoms_ProtBoundConf>  (986) 
nan

>  <Num_Resolved_Atoms>  (986) 
nan

>  <Num_Not_Resolved_Atoms>  (986) 
nan

$$$$
CHEMBL4741426
     RDKit          3D

  0  0  0  0  0  0  0  0  0  0999 V3000
M  V30 BEGIN CTAB
M  V30 COUNTS 49 52 0 0 0
M  V30 BEGIN ATOM
M  V30 1 C 1.603136 -4.952479 -4.084842 0
M  V30 2 N 2.227792 -4.058496 -3.100187 0
M  V30 3 C 3.034398 -4.635904 -2.193209 0
M  V30 4 N 3.486956 -3.660184 -1.410506 0
M  V30 5 C 2.956077 -2.497662 -1.842519 0
M  V30 6 C 2.135059 -2.721324 -2.936429 0
M  V30 7 C 1.299185 -1.914054 -3.849163 0
M  V30 8 O -0.033271 -1.800505 -3.498857 0
M  V30 9 C -0.610616 -1.268468 -2.376901 0
M  V30 10 C -0.203366 -0.663791 -1.207888 0
M  V30 11 C -1.123772 -0.241376 -0.271146 0
M  V30 12 C -0.518377 0.378533 0.907408 0
M  V30 13 C 0.651159 1.110117 0.938458 0
M  V30 14 N 0.867956 1.507464 2.205422 0
M  V30 15 N -0.130106 1.048271 2.975207 0
M  V30 16 C -0.268338 1.258314 4.403648 0
M  V30 17 C 0.559744 2.404169 4.894942 0
M  V30 18 C 0.393724 2.426515 6.417579 0
M  V30 19 N -0.440982 1.366240 6.899504 0
M  V30 20 C -1.748287 1.341976 6.314642 0
M  V30 21 C -1.698718 1.489381 4.789091 0
M  V30 22 C -0.991503 0.357590 2.220618 0
M  V30 23 C -2.480289 -0.406521 -0.466881 0
M  V30 24 N -2.919889 -1.003331 -1.617733 0
M  V30 25 C -1.999959 -1.420345 -2.543327 0
M  V30 26 N -2.738136 -2.004685 -3.639256 0
M  V30 27 H 2.400904 -5.492532 -4.625480 0
M  V30 28 H 0.969175 -5.675860 -3.519313 0
M  V30 29 H 0.959419 -4.339969 -4.713969 0
M  V30 30 H 3.338035 -5.641647 -2.017885 0
M  V30 31 H 3.071927 -1.467749 -1.482817 0
M  V30 32 H 1.709886 -0.869443 -3.885423 0
M  V30 33 H 1.351014 -2.347413 -4.880203 0
M  V30 34 H 0.873830 -0.610264 -1.215321 0
M  V30 35 H 1.282481 1.325685 0.092706 0
M  V30 36 H 0.083519 0.347538 4.938134 0
M  V30 37 H 0.243282 3.384422 4.518160 0
M  V30 38 H 1.612420 2.241389 4.594623 0
M  V30 39 H -0.019682 3.389819 6.776672 0
M  V30 40 H 1.388061 2.330473 6.890520 0
M  V30 41 H 0.021110 0.444979 6.990776 0
M  V30 42 H -2.191120 0.338523 6.573932 0
M  V30 43 H -2.364694 2.140463 6.775173 0
M  V30 44 H -2.417729 0.825977 4.292059 0
M  V30 45 H -1.932686 2.553480 4.577788 0
M  V30 46 H -1.899774 -0.135162 2.561378 0
M  V30 47 H -3.139027 -0.049750 0.312662 0
M  V30 48 H -2.967426 -1.281384 -4.358401 0
M  V30 49 H -3.089599 -2.958471 -3.877843 0
M  V30 END ATOM
M  V30 BEGIN BOND
M  V30 1 1 1 2
M  V30 2 1 2 3
M  V30 3 2 3 4
M  V30 4 1 4 5
M  V30 5 2 5 6
M  V30 6 1 6 7
M  V30 7 1 7 8
M  V30 8 1 8 9
M  V30 9 2 9 10
M  V30 10 1 10 11
M  V30 11 1 11 12
M  V30 12 1 12 13
M  V30 13 2 13 14
M  V30 14 1 14 15
M  V30 15 1 15 16
M  V30 16 1 16 17
M  V30 17 1 17 18
M  V30 18 1 18 19
M  V30 19 1 19 20
M  V30 20 1 20 21
M  V30 21 1 15 22
M  V30 22 2 11 23
M  V30 23 1 23 24
M  V30 24 2 24 25
M  V30 25 1 25 26
M  V30 26 1 6 2
M  V30 27 1 25 9
M  V30 28 2 22 12
M  V30 29 1 21 16
M  V30 30 1 1 27
M  V30 31 1 1 28
M  V30 32 1 1 29
M  V30 33 1 3 30
M  V30 34 1 5 31
M  V30 35 1 7 32
M  V30 36 1 7 33
M  V30 37 1 10 34
M  V30 38 1 13 35
M  V30 39 1 16 36
M  V30 40 1 17 37
M  V30 41 1 17 38
M  V30 42 1 18 39
M  V30 43 1 18 40
M  V30 44 1 19 41
M  V30 45 1 20 42
M  V30 46 1 20 43
M  V30 47 1 21 44
M  V30 48 1 21 45
M  V30 49 1 22 46
M  V30 50 1 23 47
M  V30 51 1 26 48
M  V30 52 1 26 49
M  V30 END BOND
M  V30 END CTAB
M  END
>  <Dataset>  (987) 
ChEMBL_Kinases

>  <Ligand_Instance>  (987) 
nan

>  <PDB_ID>  (987) 
nan

>  <Standardized_SMILES>  (987) 
Cn1cncc1COc1cc(-c2cnn(C3CCNCC3)c2)cnc1N

>  <Name>  (987) 
nan

>  <Pocket>  (987) 
nan

>  <ATP_Site>  (987) 
nan

>  <Peripheral>  (987) 
nan

>  <Num_H_Atoms_ProtBoundConf>  (987) 
nan

>  <Num_Resolved_Atoms>  (987) 
nan

>  <Num_Not_Resolved_Atoms>  (987) 
nan

$$$$
CHEMBL4453394
     RDKit          3D

  0  0  0  0  0  0  0  0  0  0999 V3000
M  V30 BEGIN CTAB
M  V30 COUNTS 47 49 0 0 0
M  V30 BEGIN ATOM
M  V30 1 C 2.593927 -6.322889 0.881082 0
M  V30 2 C 3.000973 -5.680463 2.190214 0
M  V30 3 C 4.478142 -5.780631 2.376853 0
M  V30 4 C 2.510928 -4.270077 2.123119 0
M  V30 5 C 2.946334 -3.259681 1.264505 0
M  V30 6 C 2.208538 -2.123555 1.563999 0
M  V30 7 C 2.322104 -0.817523 0.917149 0
M  V30 8 C 3.224756 -0.595323 -0.103302 0
M  V30 9 C 3.269638 0.676981 -0.665677 0
M  V30 10 C 2.449065 1.711542 -0.239634 0
M  V30 11 C 1.548854 1.480375 0.781939 0
M  V30 12 N 0.639772 2.452106 1.324694 0
M  V30 13 C -0.668387 2.579060 0.743234 0
M  V30 14 O -0.882119 1.785659 -0.224271 0
M  V30 15 N -1.674674 3.475237 1.151711 0
M  V30 16 C -2.892226 3.379132 0.380874 0
M  V30 17 C -3.151366 4.113719 -0.772237 0
M  V30 18 C -4.360415 3.923091 -1.413032 0
M  V30 19 C -5.305404 3.043558 -0.956931 0
M  V30 20 Cl -6.806474 2.868294 -1.832939 0
M  V30 21 C -5.074001 2.316263 0.166202 0
M  V30 22 C -6.080951 1.352037 0.687605 0
M  V30 23 F -7.280445 1.942774 1.005972 0
M  V30 24 F -5.584832 0.759470 1.852322 0
M  V30 25 F -6.263284 0.321463 -0.200836 0
M  V30 26 C -3.857774 2.491510 0.832431 0
M  V30 27 C 1.504289 0.203874 1.345690 0
M  V30 28 N 1.367733 -2.471156 2.571550 0
M  V30 29 N 1.537719 -3.742374 2.912047 0
M  V30 30 H 1.560344 -6.030653 0.620289 0
M  V30 31 H 3.284885 -5.997651 0.094382 0
M  V30 32 H 2.666516 -7.433732 0.978660 0
M  V30 33 H 2.450348 -6.229859 2.980282 0
M  V30 34 H 4.789381 -6.098439 3.396506 0
M  V30 35 H 4.968767 -4.796186 2.167702 0
M  V30 36 H 4.874042 -6.529810 1.665497 0
M  V30 37 H 3.704795 -3.370686 0.527858 0
M  V30 38 H 3.874785 -1.383811 -0.453398 0
M  V30 39 H 3.977763 0.877404 -1.476806 0
M  V30 40 H 2.464740 2.701682 -0.657447 0
M  V30 41 H 0.814233 3.117590 2.133570 0
M  V30 42 H -1.417210 4.095739 1.957917 0
M  V30 43 H -2.373011 4.794785 -1.091080 0
M  V30 44 H -4.538832 4.513901 -2.318359 0
M  V30 45 H -3.705126 1.891796 1.730431 0
M  V30 46 H 0.801784 -0.006273 2.154968 0
M  V30 47 H 0.671461 -1.872538 3.046288 0
M  V30 END ATOM
M  V30 BEGIN BOND
M  V30 1 1 1 2
M  V30 2 1 2 3
M  V30 3 1 2 4
M  V30 4 1 4 5
M  V30 5 2 5 6
M  V30 6 1 6 7
M  V30 7 2 7 8
M  V30 8 1 8 9
M  V30 9 2 9 10
M  V30 10 1 10 11
M  V30 11 1 11 12
M  V30 12 1 12 13
M  V30 13 2 13 14
M  V30 14 1 13 15
M  V30 15 1 15 16
M  V30 16 2 16 17
M  V30 17 1 17 18
M  V30 18 2 18 19
M  V30 19 1 19 20
M  V30 20 1 19 21
M  V30 21 1 21 22
M  V30 22 1 22 23
M  V30 23 1 22 24
M  V30 24 1 22 25
M  V30 25 2 21 26
M  V30 26 2 11 27
M  V30 27 1 6 28
M  V30 28 1 28 29
M  V30 29 2 29 4
M  V30 30 1 27 7
M  V30 31 1 26 16
M  V30 32 1 1 30
M  V30 33 1 1 31
M  V30 34 1 1 32
M  V30 35 1 2 33
M  V30 36 1 3 34
M  V30 37 1 3 35
M  V30 38 1 3 36
M  V30 39 1 5 37
M  V30 40 1 8 38
M  V30 41 1 9 39
M  V30 42 1 10 40
M  V30 43 1 12 41
M  V30 44 1 15 42
M  V30 45 1 17 43
M  V30 46 1 18 44
M  V30 47 1 26 45
M  V30 48 1 27 46
M  V30 49 1 28 47
M  V30 END BOND
M  V30 END CTAB
M  END
>  <Dataset>  (988) 
ChEMBL_Kinases

>  <Ligand_Instance>  (988) 
nan

>  <PDB_ID>  (988) 
nan

>  <Standardized_SMILES>  (988) 
CC(C)c1cc(-c2cccc(NC(=O)Nc3ccc(Cl)c(C(F)(F)F)c3)c2)[nH]n1

>  <Name>  (988) 
nan

>  <Pocket>  (988) 
nan

>  <ATP_Site>  (988) 
nan

>  <Peripheral>  (988) 
nan

>  <Num_H_Atoms_ProtBoundConf>  (988) 
nan

>  <Num_Resolved_Atoms>  (988) 
nan

>  <Num_Not_Resolved_Atoms>  (988) 
nan

$$$$
CHEMBL4460688
     RDKit          3D

  0  0  0  0  0  0  0  0  0  0999 V3000
M  V30 BEGIN CTAB
M  V30 COUNTS 51 54 0 0 0
M  V30 BEGIN ATOM
M  V30 1 C 4.312396 -2.801202 1.518625 0
M  V30 2 N 5.350843 -2.026181 0.868624 0
M  V30 3 N 6.578780 -2.455532 0.654910 0
M  V30 4 C 7.318703 -1.520939 0.034105 0
M  V30 5 C 6.455713 -0.480049 -0.120457 0
M  V30 6 Cl 6.835867 1.053119 -0.873581 0
M  V30 7 C 5.207707 -0.760215 0.392194 0
M  V30 8 C 4.009546 0.019471 0.452005 0
M  V30 9 C 3.716805 1.260200 0.033531 0
M  V30 10 C 2.460775 1.776286 0.220460 0
M  V30 11 C 1.530078 0.940428 0.861352 0
M  V30 12 C 0.127277 1.232079 1.187547 0
M  V30 13 O -0.399908 2.327484 0.903610 0
M  V30 14 N -0.577807 0.187442 1.842737 0
M  V30 15 C -1.965665 0.464408 2.170229 0 CFG=2
M  V30 16 C -2.229788 0.310435 3.648195 0
M  V30 17 N -3.610783 0.044973 3.945384 0
M  V30 18 C -4.528512 0.589728 2.981961 0
M  V30 19 C -4.276730 0.167329 1.563507 0
M  V30 20 C -2.906829 -0.506840 1.458290 0 CFG=1
M  V30 21 C -2.545533 -0.717785 0.049444 0
M  V30 22 C -2.383015 0.244244 -0.938060 0
M  V30 23 C -2.039042 -0.137621 -2.218777 0
M  V30 24 C -1.841361 -1.448451 -2.589496 0
M  V30 25 Cl -1.409573 -1.894802 -4.208236 0
M  V30 26 C -2.000885 -2.400697 -1.617527 0
M  V30 27 C -1.793057 -3.838617 -1.987276 0
M  V30 28 F -0.514290 -4.070555 -2.453913 0
M  V30 29 F -2.757234 -4.229756 -2.918325 0
M  V30 30 F -1.989598 -4.655744 -0.893249 0
M  V30 31 C -2.344133 -2.029719 -0.336134 0
M  V30 32 S 2.472459 -0.564143 1.181870 0
M  V30 33 H 4.675275 -3.792987 1.781638 0
M  V30 34 H 3.939670 -2.239760 2.422590 0
M  V30 35 H 3.420244 -2.907369 0.850826 0
M  V30 36 H 8.350315 -1.511573 -0.298029 0
M  V30 37 H 4.479515 1.850794 -0.452756 0
M  V30 38 H 2.118312 2.758526 -0.075598 0
M  V30 39 H -0.189686 -0.742758 2.102806 0
M  V30 40 H -2.222649 1.478934 1.833631 0
M  V30 41 H -1.836063 1.158666 4.234783 0
M  V30 42 H -1.663077 -0.589077 3.967551 0
M  V30 43 H -3.827257 -0.901682 4.282126 0
M  V30 44 H -4.581016 1.703600 3.106193 0
M  V30 45 H -5.543123 0.229819 3.251630 0
M  V30 46 H -4.167972 1.109314 0.962513 0
M  V30 47 H -5.076592 -0.397841 1.087492 0
M  V30 48 H -2.978259 -1.435358 2.061732 0
M  V30 49 H -2.546156 1.261957 -0.610665 0
M  V30 50 H -1.919983 0.630758 -2.963518 0
M  V30 51 H -2.446998 -2.869447 0.366163 0
M  V30 END ATOM
M  V30 BEGIN BOND
M  V30 1 1 1 2
M  V30 2 1 2 3
M  V30 3 2 3 4
M  V30 4 1 4 5
M  V30 5 1 5 6
M  V30 6 2 5 7
M  V30 7 1 7 8
M  V30 8 2 8 9
M  V30 9 1 9 10
M  V30 10 2 10 11
M  V30 11 1 11 12
M  V30 12 2 12 13
M  V30 13 1 12 14
M  V30 14 1 14 15
M  V30 15 1 15 16
M  V30 16 1 16 17
M  V30 17 1 17 18
M  V30 18 1 18 19
M  V30 19 1 19 20
M  V30 20 1 20 21
M  V30 21 2 21 22
M  V30 22 1 22 23
M  V30 23 2 23 24
M  V30 24 1 24 25
M  V30 25 1 24 26
M  V30 26 1 26 27
M  V30 27 1 27 28
M  V30 28 1 27 29
M  V30 29 1 27 30
M  V30 30 2 26 31
M  V30 31 1 11 32
M  V30 32 1 7 2
M  V30 33 1 32 8
M  V30 34 1 20 15
M  V30 35 1 31 21
M  V30 36 1 1 33
M  V30 37 1 1 34
M  V30 38 1 1 35
M  V30 39 1 4 36
M  V30 40 1 9 37
M  V30 41 1 10 38
M  V30 42 1 14 39
M  V30 43 1 15 40 CFG=3
M  V30 44 1 16 41
M  V30 45 1 16 42
M  V30 46 1 17 43
M  V30 47 1 18 44
M  V30 48 1 18 45
M  V30 49 1 19 46
M  V30 50 1 19 47
M  V30 51 1 20 48 CFG=1
M  V30 52 1 22 49
M  V30 53 1 23 50
M  V30 54 1 31 51
M  V30 END BOND
M  V30 END CTAB
M  END
>  <Dataset>  (989) 
ChEMBL_Kinases

>  <Ligand_Instance>  (989) 
nan

>  <PDB_ID>  (989) 
nan

>  <Standardized_SMILES>  (989) 
Cn1ncc(Cl)c1-c1ccc(C(=O)N[C@@H]2CNCC[C@H]2c2ccc(Cl)c(C(F)(F)F)c2)s1

>  <Name>  (989) 
nan

>  <Pocket>  (989) 
nan

>  <ATP_Site>  (989) 
nan

>  <Peripheral>  (989) 
nan

>  <Num_H_Atoms_ProtBoundConf>  (989) 
nan

>  <Num_Resolved_Atoms>  (989) 
nan

>  <Num_Not_Resolved_Atoms>  (989) 
nan

$$$$
CHEMBL4460676
     RDKit          3D

  0  0  0  0  0  0  0  0  0  0999 V3000
M  V30 BEGIN CTAB
M  V30 COUNTS 52 55 0 0 0
M  V30 BEGIN ATOM
M  V30 1 C 0.692109 -5.050496 5.007692 0
M  V30 2 N 1.475513 -3.843279 5.304645 0
M  V30 3 C 2.158919 -3.898349 6.583154 0
M  V30 4 C 1.554457 -2.730647 4.423189 0
M  V30 5 C 2.273639 -1.570613 4.647058 0
M  V30 6 C 2.271197 -0.553975 3.708076 0
M  V30 7 C 1.552884 -0.681670 2.536737 0
M  V30 8 C 1.484108 0.327364 1.485487 0
M  V30 9 C 2.140443 1.538261 1.549145 0
M  V30 10 C 2.090580 2.507152 0.568472 0
M  V30 11 N 2.758197 3.661086 0.704628 0
M  V30 12 C 2.644974 4.552890 -0.318944 0
M  V30 13 C 1.893820 4.331201 -1.462602 0
M  V30 14 N 1.223472 3.149982 -1.578541 0
M  V30 15 C 1.339226 2.267402 -0.558937 0
M  V30 16 C 0.685351 1.053261 -0.615226 0
M  V30 17 N -0.127168 0.711161 -1.758450 0
M  V30 18 C -0.827120 -0.555825 -1.848535 0
M  V30 19 C -1.613317 -0.724599 -3.104461 0 CFG=2
M  V30 20 C -2.678697 0.320566 -3.289703 0
M  V30 21 N -3.538417 0.442210 -2.125319 0
M  V30 22 C -4.179950 -0.816911 -1.851636 0
M  V30 23 C -3.796356 -1.915984 -2.817984 0
M  V30 24 C -2.320243 -2.067714 -3.002518 0
M  V30 25 F -1.824408 -2.827478 -1.960376 0
M  V30 26 F -2.100380 -2.804780 -4.149839 0
M  V30 27 N 0.769801 0.150956 0.366255 0
M  V30 28 C 0.846820 -1.852389 2.346218 0
M  V30 29 N 0.857294 -2.835268 3.268555 0
M  V30 30 H -0.047356 -5.216587 5.795478 0
M  V30 31 H 0.152601 -4.842279 4.060327 0
M  V30 32 H 1.354277 -5.917513 4.816670 0
M  V30 33 H 2.460631 -4.943782 6.847294 0
M  V30 34 H 3.037686 -3.242102 6.607865 0
M  V30 35 H 1.481758 -3.514586 7.398754 0
M  V30 36 H 2.814630 -1.506582 5.558837 0
M  V30 37 H 2.827074 0.357082 3.867787 0
M  V30 38 H 2.744556 1.776929 2.413412 0
M  V30 39 H 3.154577 5.492190 -0.268746 0
M  V30 40 H 1.840319 5.062723 -2.231503 0
M  V30 41 H -0.217853 1.394084 -2.549619 0
M  V30 42 H -1.445369 -0.739300 -0.952300 0
M  V30 43 H -0.016152 -1.334047 -1.883472 0
M  V30 44 H -0.973656 -0.733362 -3.987213 0
M  V30 45 H -3.346048 -0.078985 -4.106169 0
M  V30 46 H -2.316466 1.287840 -3.648904 0
M  V30 47 H -4.314253 1.105961 -2.417184 0
M  V30 48 H -5.306513 -0.759412 -1.908243 0
M  V30 49 H -3.983612 -1.126492 -0.804202 0
M  V30 50 H -4.152966 -2.874398 -2.339693 0
M  V30 51 H -4.359868 -1.846438 -3.770603 0
M  V30 52 H 0.269594 -1.981000 1.428877 0
M  V30 END ATOM
M  V30 BEGIN BOND
M  V30 1 1 1 2
M  V30 2 1 2 3
M  V30 3 1 2 4
M  V30 4 2 4 5
M  V30 5 1 5 6
M  V30 6 2 6 7
M  V30 7 1 7 8
M  V30 8 2 8 9
M  V30 9 1 9 10
M  V30 10 2 10 11
M  V30 11 1 11 12
M  V30 12 2 12 13
M  V30 13 1 13 14
M  V30 14 2 14 15
M  V30 15 1 15 16
M  V30 16 1 16 17
M  V30 17 1 17 18
M  V30 18 1 18 19
M  V30 19 1 19 20
M  V30 20 1 20 21
M  V30 21 1 21 22
M  V30 22 1 22 23
M  V30 23 1 23 24
M  V30 24 1 24 25
M  V30 25 1 24 26
M  V30 26 2 16 27
M  V30 27 1 7 28
M  V30 28 2 28 29
M  V30 29 1 29 4
M  V30 30 1 27 8
M  V30 31 1 15 10
M  V30 32 1 24 19
M  V30 33 1 1 30
M  V30 34 1 1 31
M  V30 35 1 1 32
M  V30 36 1 3 33
M  V30 37 1 3 34
M  V30 38 1 3 35
M  V30 39 1 5 36
M  V30 40 1 6 37
M  V30 41 1 9 38
M  V30 42 1 12 39
M  V30 43 1 13 40
M  V30 44 1 17 41
M  V30 45 1 18 42
M  V30 46 1 18 43
M  V30 47 1 19 44 CFG=3
M  V30 48 1 20 45
M  V30 49 1 20 46
M  V30 50 1 21 47
M  V30 51 1 22 48
M  V30 52 1 22 49
M  V30 53 1 23 50
M  V30 54 1 23 51
M  V30 55 1 28 52
M  V30 END BOND
M  V30 END CTAB
M  END
>  <Dataset>  (990) 
ChEMBL_Kinases

>  <Ligand_Instance>  (990) 
nan

>  <PDB_ID>  (990) 
nan

>  <Standardized_SMILES>  (990) 
CN(C)c1ccc(-c2cc3nccnc3c(NC[C@@H]3CNCCC3(F)F)n2)cn1

>  <Name>  (990) 
nan

>  <Pocket>  (990) 
nan

>  <ATP_Site>  (990) 
nan

>  <Peripheral>  (990) 
nan

>  <Num_H_Atoms_ProtBoundConf>  (990) 
nan

>  <Num_Resolved_Atoms>  (990) 
nan

>  <Num_Not_Resolved_Atoms>  (990) 
nan

$$$$
CHEMBL4460586
     RDKit          3D

  0  0  0  0  0  0  0  0  0  0999 V3000
M  V30 BEGIN CTAB
M  V30 COUNTS 50 54 0 0 0
M  V30 BEGIN ATOM
M  V30 1 C 3.003885 -3.995199 1.107606 0
M  V30 2 C 2.456464 -3.092592 2.150173 0
M  V30 3 C 2.800881 -3.352196 3.461455 0
M  V30 4 C 2.330306 -2.553999 4.494100 0
M  V30 5 C 1.506761 -1.490959 4.176865 0
M  V30 6 C 1.168940 -1.241415 2.858620 0
M  V30 7 C 0.309503 -0.152968 2.386913 0
M  V30 8 N 0.501861 1.186870 2.495439 0
M  V30 9 N -0.532102 1.810082 1.925478 0
M  V30 10 C -0.751067 3.249774 1.806500 0
M  V30 11 C -0.154116 3.755734 0.543262 0
M  V30 12 O -0.322693 4.987936 0.409081 0
M  V30 13 N 0.502086 2.845045 -0.321684 0
M  V30 14 C 1.166337 2.939516 -1.560288 0
M  V30 15 C 2.505459 3.181991 -1.792144 0
M  V30 16 C 3.001489 3.243453 -3.089447 0
M  V30 17 C 2.106007 3.053975 -4.102594 0
M  V30 18 C 0.763120 2.809117 -3.944478 0
M  V30 19 C 0.300248 2.753881 -2.643720 0
M  V30 20 F -1.043230 2.507528 -2.522299 0
M  V30 21 C -1.394405 0.869722 1.447648 0
M  V30 22 C -0.882848 -0.400234 1.727983 0
M  V30 23 C -1.576048 -1.582288 1.343212 0
M  V30 24 C -2.125999 -2.614300 1.989747 0
M  V30 25 C -2.742165 -3.630365 1.307944 0
M  V30 26 C -3.361557 -4.766613 1.776139 0
M  V30 27 N -3.903588 -5.637038 0.942873 0
M  V30 28 C -3.937910 -5.564201 -0.395066 0
M  V30 29 C -3.336546 -4.451618 -0.941516 0
M  V30 30 C -2.763020 -3.528520 -0.078998 0
M  V30 31 S -1.896221 -1.968966 -0.427455 0
M  V30 32 N 1.662701 -2.057744 1.909042 0
M  V30 33 H 3.153823 -3.457309 0.137893 0
M  V30 34 H 2.375278 -4.860677 0.877477 0
M  V30 35 H 4.018931 -4.322740 1.420327 0
M  V30 36 H 3.447792 -4.188156 3.704434 0
M  V30 37 H 2.571284 -2.715397 5.538253 0
M  V30 38 H 1.085776 -0.805630 4.920083 0
M  V30 39 H -0.231556 3.707215 2.688062 0
M  V30 40 H -1.832564 3.486212 1.803437 0
M  V30 41 H 0.567578 1.836663 -0.081362 0
M  V30 42 H 3.103365 3.313528 -0.901513 0
M  V30 43 H 4.056583 3.435565 -3.228545 0
M  V30 44 H 2.524121 3.107344 -5.118261 0
M  V30 45 H 0.147148 2.675119 -4.821945 0
M  V30 46 H -2.320905 1.115274 0.936483 0
M  V30 47 H -2.044333 -2.578040 3.067888 0
M  V30 48 H -3.430344 -4.993444 2.839532 0
M  V30 49 H -4.384404 -6.283620 -1.056895 0
M  V30 50 H -3.268587 -4.226753 -1.996475 0
M  V30 END ATOM
M  V30 BEGIN BOND
M  V30 1 1 1 2
M  V30 2 2 2 3
M  V30 3 1 3 4
M  V30 4 2 4 5
M  V30 5 1 5 6
M  V30 6 1 6 7
M  V30 7 2 7 8
M  V30 8 1 8 9
M  V30 9 1 9 10
M  V30 10 1 10 11
M  V30 11 2 11 12
M  V30 12 1 11 13
M  V30 13 1 13 14
M  V30 14 2 14 15
M  V30 15 1 15 16
M  V30 16 2 16 17
M  V30 17 1 17 18
M  V30 18 2 18 19
M  V30 19 1 19 20
M  V30 20 1 9 21
M  V30 21 2 21 22
M  V30 22 1 22 23
M  V30 23 2 23 24
M  V30 24 1 24 25
M  V30 25 2 25 26
M  V30 26 1 26 27
M  V30 27 2 27 28
M  V30 28 1 28 29
M  V30 29 2 29 30
M  V30 30 1 30 31
M  V30 31 2 6 32
M  V30 32 1 32 2
M  V30 33 1 22 7
M  V30 34 1 31 23
M  V30 35 1 19 14
M  V30 36 1 30 25
M  V30 37 1 1 33
M  V30 38 1 1 34
M  V30 39 1 1 35
M  V30 40 1 3 36
M  V30 41 1 4 37
M  V30 42 1 5 38
M  V30 43 1 10 39
M  V30 44 1 10 40
M  V30 45 1 13 41
M  V30 46 1 15 42
M  V30 47 1 16 43
M  V30 48 1 17 44
M  V30 49 1 18 45
M  V30 50 1 21 46
M  V30 51 1 24 47
M  V30 52 1 26 48
M  V30 53 1 28 49
M  V30 54 1 29 50
M  V30 END BOND
M  V30 END CTAB
M  END
>  <Dataset>  (991) 
ChEMBL_Kinases

>  <Ligand_Instance>  (991) 
nan

>  <PDB_ID>  (991) 
nan

>  <Standardized_SMILES>  (991) 
Cc1cccc(-c2nn(CC(=O)Nc3ccccc3F)cc2-c2cc3cnccc3s2)n1

>  <Name>  (991) 
nan

>  <Pocket>  (991) 
nan

>  <ATP_Site>  (991) 
nan

>  <Peripheral>  (991) 
nan

>  <Num_H_Atoms_ProtBoundConf>  (991) 
nan

>  <Num_Resolved_Atoms>  (991) 
nan

>  <Num_Not_Resolved_Atoms>  (991) 
nan

$$$$
CHEMBL4741586
     RDKit          3D

  0  0  0  0  0  0  0  0  0  0999 V3000
M  V30 BEGIN CTAB
M  V30 COUNTS 36 38 0 0 0
M  V30 BEGIN ATOM
M  V30 1 C -4.628228 -2.189754 1.758093 0
M  V30 2 O -3.665304 -2.969836 1.087127 0
M  V30 3 C -2.394072 -2.535307 0.740860 0
M  V30 4 C -1.633993 -3.485600 0.087973 0
M  V30 5 C -0.354573 -3.127153 -0.289499 0
M  V30 6 C 0.129806 -1.879158 -0.022555 0
M  V30 7 C -0.583623 -0.897143 0.623259 0
M  V30 8 C -1.883599 -1.257491 1.008312 0
M  V30 9 C -0.355770 0.502136 1.042508 0
M  V30 10 C 1.042220 0.912310 0.670997 0
M  V30 11 C 1.848237 1.247480 1.923438 0
M  V30 12 C 0.957924 2.167380 -0.178323 0
M  V30 13 C 1.762927 -0.169161 -0.032201 0
M  V30 14 C 3.053851 0.239972 -0.400413 0
M  V30 15 N 3.748364 1.483921 -0.217709 0
M  V30 16 N 3.895755 -0.594473 -1.051714 0
M  V30 17 C 3.541303 -1.860448 -1.381400 0
M  V30 18 N 2.312090 -2.268288 -1.037880 0
M  V30 19 C 1.474097 -1.463233 -0.399259 0
M  V30 20 H -4.232198 -1.494923 2.500975 0
M  V30 21 H -5.339381 -1.697038 1.056634 0
M  V30 22 H -5.281740 -2.906148 2.337080 0
M  V30 23 H -1.963557 -4.486577 -0.149530 0
M  V30 24 H 0.339347 -3.775883 -0.804953 0
M  V30 25 H -2.641734 -0.668794 1.527239 0
M  V30 26 H -0.519688 0.612308 2.141068 0
M  V30 27 H -1.073683 1.178393 0.521203 0
M  V30 28 H 2.025011 2.325185 2.044912 0
M  V30 29 H 2.781565 0.659704 1.951684 0
M  V30 30 H 1.205186 0.965624 2.805272 0
M  V30 31 H -0.093371 2.293131 -0.500679 0
M  V30 32 H 1.617740 2.078378 -1.077058 0
M  V30 33 H 1.261744 3.049355 0.410065 0
M  V30 34 H 3.854057 2.233877 0.498622 0
M  V30 35 H 3.853483 2.233124 0.498809 0
M  V30 36 H 4.153475 -2.582742 -1.897974 0
M  V30 END ATOM
M  V30 BEGIN BOND
M  V30 1 1 1 2
M  V30 2 1 2 3
M  V30 3 2 3 4
M  V30 4 1 4 5
M  V30 5 2 5 6
M  V30 6 1 6 7
M  V30 7 2 7 8
M  V30 8 1 7 9
M  V30 9 1 9 10
M  V30 10 1 10 11
M  V30 11 1 10 12
M  V30 12 1 10 13
M  V30 13 2 13 14
M  V30 14 1 14 15
M  V30 15 1 14 16
M  V30 16 2 16 17
M  V30 17 1 17 18
M  V30 18 2 18 19
M  V30 19 1 8 3
M  V30 20 1 19 13
M  V30 21 1 19 6
M  V30 22 1 1 20
M  V30 23 1 1 21
M  V30 24 1 1 22
M  V30 25 1 4 23
M  V30 26 1 5 24
M  V30 27 1 8 25
M  V30 28 1 9 26
M  V30 29 1 9 27
M  V30 30 1 11 28
M  V30 31 1 11 29
M  V30 32 1 11 30
M  V30 33 1 12 31
M  V30 34 1 12 32
M  V30 35 1 12 33
M  V30 36 1 15 34
M  V30 37 1 15 35
M  V30 38 1 17 36
M  V30 END BOND
M  V30 END CTAB
M  END
>  <Dataset>  (992) 
ChEMBL_Kinases

>  <Ligand_Instance>  (992) 
nan

>  <PDB_ID>  (992) 
nan

>  <Standardized_SMILES>  (992) 
COc1ccc2c(c1)CC(C)(C)c1c(N)ncnc1-2

>  <Name>  (992) 
nan

>  <Pocket>  (992) 
nan

>  <ATP_Site>  (992) 
nan

>  <Peripheral>  (992) 
nan

>  <Num_H_Atoms_ProtBoundConf>  (992) 
nan

>  <Num_Resolved_Atoms>  (992) 
nan

>  <Num_Not_Resolved_Atoms>  (992) 
nan

$$$$
CHEMBL4460541
     RDKit          3D

  0  0  0  0  0  0  0  0  0  0999 V3000
M  V30 BEGIN CTAB
M  V30 COUNTS 41 44 0 0 0
M  V30 BEGIN ATOM
M  V30 1 C 0.727678 -3.905754 3.384033 0
M  V30 2 C 1.347412 -4.132646 2.030927 0
M  V30 3 O 2.486633 -4.919321 2.087131 0
M  V30 4 C 1.732898 -2.876171 1.386595 0
M  V30 5 C 2.038193 -1.817262 0.857713 0
M  V30 6 C 2.374156 -0.565555 0.228268 0
M  V30 7 C 3.488644 -0.433157 -0.573627 0
M  V30 8 C 3.710619 0.821840 -1.126441 0
M  V30 9 C 2.844891 1.880761 -0.875241 0
M  V30 10 C 1.730267 1.725535 -0.065951 0
M  V30 11 N 0.847019 2.807571 0.189783 0
M  V30 12 C 1.171777 4.105152 0.142630 0
M  V30 13 C 0.083426 4.888008 0.442546 0
M  V30 14 Cl 0.024168 6.625536 0.505745 0
M  V30 15 C -0.963997 4.039206 0.686879 0
M  V30 16 C -2.302585 4.199568 1.033563 0
M  V30 17 N -3.052359 3.095163 1.194723 0
M  V30 18 C -2.577597 1.860127 1.039184 0
M  V30 19 N -3.373872 0.697124 1.210632 0
M  V30 20 N -1.286046 1.717910 0.705027 0
M  V30 21 C -0.457956 2.760316 0.522129 0
M  V30 22 C 1.488672 0.478248 0.497768 0
M  V30 23 C 0.246474 -4.805153 1.218014 0
M  V30 24 N -0.628896 -4.539077 0.532828 0
M  V30 25 C -1.470062 -5.354447 -0.075041 0
M  V30 26 C -1.237688 -6.748150 0.169277 0
M  V30 27 S 0.256891 -6.677821 1.314383 0
M  V30 28 H 1.427816 -3.566092 4.153142 0
M  V30 29 H 0.183960 -4.804366 3.688687 0
M  V30 30 H -0.054842 -3.111110 3.217858 0
M  V30 31 H 2.571279 -5.343467 2.977794 0
M  V30 32 H 4.125845 -1.282931 -0.735999 0
M  V30 33 H 4.573838 0.972963 -1.763083 0
M  V30 34 H 3.008937 2.867509 -1.302742 0
M  V30 35 H 2.144626 4.540643 -0.094071 0
M  V30 36 H -2.697830 5.197968 1.162227 0
M  V30 37 H -3.063862 -0.218664 0.823579 0
M  V30 38 H -4.283588 0.703306 1.718929 0
M  V30 39 H 0.621055 0.358330 1.127438 0
M  V30 40 H -2.236709 -4.896754 -0.685718 0
M  V30 41 H -2.016451 -7.440937 -0.396439 0
M  V30 END ATOM
M  V30 BEGIN BOND
M  V30 1 1 1 2
M  V30 2 1 2 3
M  V30 3 1 2 4
M  V30 4 3 4 5
M  V30 5 1 5 6
M  V30 6 2 6 7
M  V30 7 1 7 8
M  V30 8 2 8 9
M  V30 9 1 9 10
M  V30 10 1 10 11
M  V30 11 1 11 12
M  V30 12 2 12 13
M  V30 13 1 13 14
M  V30 14 1 13 15
M  V30 15 2 15 16
M  V30 16 1 16 17
M  V30 17 2 17 18
M  V30 18 1 18 19
M  V30 19 1 18 20
M  V30 20 2 20 21
M  V30 21 2 10 22
M  V30 22 1 2 23
M  V30 23 2 23 24
M  V30 24 1 24 25
M  V30 25 2 25 26
M  V30 26 1 26 27
M  V30 27 1 22 6
M  V30 28 1 27 23
M  V30 29 1 21 11
M  V30 30 1 21 15
M  V30 31 1 1 28
M  V30 32 1 1 29
M  V30 33 1 1 30
M  V30 34 1 3 31
M  V30 35 1 7 32
M  V30 36 1 8 33
M  V30 37 1 9 34
M  V30 38 1 12 35
M  V30 39 1 16 36
M  V30 40 1 19 37
M  V30 41 1 19 38
M  V30 42 1 22 39
M  V30 43 1 25 40
M  V30 44 1 26 41
M  V30 END BOND
M  V30 END CTAB
M  END
>  <Dataset>  (993) 
ChEMBL_Kinases

>  <Ligand_Instance>  (993) 
nan

>  <PDB_ID>  (993) 
nan

>  <Standardized_SMILES>  (993) 
CC(O)(C#Cc1cccc(-n2cc(Cl)c3cnc(N)nc32)c1)c1nccs1

>  <Name>  (993) 
nan

>  <Pocket>  (993) 
nan

>  <ATP_Site>  (993) 
nan

>  <Peripheral>  (993) 
nan

>  <Num_H_Atoms_ProtBoundConf>  (993) 
nan

>  <Num_Resolved_Atoms>  (993) 
nan

>  <Num_Not_Resolved_Atoms>  (993) 
nan

$$$$
CHEMBL4460525
     RDKit          3D

  0  0  0  0  0  0  0  0  0  0999 V3000
M  V30 BEGIN CTAB
M  V30 COUNTS 61 64 0 0 0
M  V30 BEGIN ATOM
M  V30 1 C 4.526401 -2.927839 6.089358 0
M  V30 2 C 4.096276 -2.008024 5.039667 0
M  V30 3 O 3.878991 -2.628711 3.971105 0
M  V30 4 N 3.845367 -0.649768 4.836423 0
M  V30 5 C 3.568381 0.716164 4.549354 0
M  V30 6 C 2.171675 1.000920 4.181716 0
M  V30 7 C 1.591121 0.421220 2.946053 0 CFG=2
M  V30 8 C 0.141899 0.932066 2.881647 0
M  V30 9 C -0.503212 0.630281 1.548615 0 CFG=1
M  V30 10 C -0.527511 1.898492 0.777402 0
M  V30 11 C 0.496646 2.469398 0.055717 0
M  V30 12 C 0.424955 3.653616 -0.639986 0
M  V30 13 C -0.788712 4.347603 -0.620796 0
M  V30 14 F -0.899203 5.515354 -1.292751 0
M  V30 15 C -1.885450 3.872996 0.068244 0
M  V30 16 F -3.070068 4.492000 0.123033 0
M  V30 17 C -1.694252 2.676506 0.728204 0
M  V30 18 C 0.225725 -0.478309 0.933367 0 CFG=2
M  V30 19 N -0.313886 -1.106472 -0.215284 0
M  V30 20 C 0.187590 -1.312335 -1.517571 0
M  V30 21 O 1.319583 -0.868783 -1.723019 0
M  V30 22 C -0.608139 -2.004429 -2.518682 0
M  V30 23 C -1.870376 -2.557740 -2.479324 0
M  V30 24 C -2.240589 -3.124093 -3.677809 0
M  V30 25 C -3.495062 -3.756175 -3.914546 0
M  V30 26 C -4.430671 -3.819444 -2.908799 0
M  V30 27 Cl -4.595304 -3.307582 -1.225820 0
M  V30 28 C -5.577399 -4.464969 -3.313927 0
M  V30 29 N -5.339079 -4.801882 -4.586645 0
M  V30 30 N -4.108867 -4.373207 -4.911697 0
M  V30 31 C -3.568782 -4.602712 -6.232365 0
M  V30 32 C -1.121538 -2.867140 -4.412035 0
M  V30 33 Cl -0.740230 -3.241841 -6.049244 0
M  V30 34 O -0.166595 -2.217312 -3.749416 0
M  V30 35 C 0.527485 -1.473971 2.066851 0
M  V30 36 N 1.688479 -0.994241 2.786729 0
M  V30 37 H 5.392876 -3.502223 5.735612 0
M  V30 38 H 3.718811 -3.615767 6.418846 0
M  V30 39 H 4.858370 -2.394706 7.015474 0
M  V30 40 H 4.112610 -0.479033 5.881388 0
M  V30 41 H 4.206136 1.033788 3.638099 0
M  V30 42 H 3.885602 1.420198 5.354604 0
M  V30 43 H 2.010315 2.109564 4.116613 0
M  V30 44 H 1.458055 0.711958 5.023250 0
M  V30 45 H 2.084934 0.972622 2.084759 0
M  V30 46 H -0.431806 0.573734 3.753521 0
M  V30 47 H 0.254241 2.043066 3.048637 0
M  V30 48 H -1.562135 0.414213 1.830941 0
M  V30 49 H 1.436693 1.935884 0.031841 0
M  V30 50 H 1.293269 4.011510 -1.174931 0
M  V30 51 H -2.565403 2.288899 1.282121 0
M  V30 52 H 1.221686 -0.101124 0.621159 0
M  V30 53 H -1.259075 -1.434076 0.091352 0
M  V30 54 H -2.334475 -2.440572 -1.503741 0
M  V30 55 H -6.547857 -4.773395 -2.971225 0
M  V30 56 H -3.395480 -3.682337 -6.815828 0
M  V30 57 H -2.659453 -5.224046 -6.235207 0
M  V30 58 H -4.297327 -5.264066 -6.815954 0
M  V30 59 H 0.795214 -2.454589 1.620977 0
M  V30 60 H -0.349800 -1.644208 2.690287 0
M  V30 61 H 2.500532 -1.205544 2.119068 0
M  V30 END ATOM
M  V30 BEGIN BOND
M  V30 1 1 1 2
M  V30 2 2 2 3
M  V30 3 1 2 4
M  V30 4 1 4 5
M  V30 5 1 5 6
M  V30 6 1 6 7
M  V30 7 1 7 8
M  V30 8 1 8 9
M  V30 9 1 9 10
M  V30 10 2 10 11
M  V30 11 1 11 12
M  V30 12 2 12 13
M  V30 13 1 13 14
M  V30 14 1 13 15
M  V30 15 1 15 16
M  V30 16 2 15 17
M  V30 17 1 9 18
M  V30 18 1 18 19
M  V30 19 1 19 20
M  V30 20 2 20 21
M  V30 21 1 20 22
M  V30 22 2 22 23
M  V30 23 1 23 24
M  V30 24 1 24 25
M  V30 25 2 25 26
M  V30 26 1 26 27
M  V30 27 1 26 28
M  V30 28 2 28 29
M  V30 29 1 29 30
M  V30 30 1 30 31
M  V30 31 2 24 32
M  V30 32 1 32 33
M  V30 33 1 32 34
M  V30 34 1 18 35
M  V30 35 1 35 36
M  V30 36 1 36 7
M  V30 37 1 17 10
M  V30 38 1 34 22
M  V30 39 1 30 25
M  V30 40 1 1 37
M  V30 41 1 1 38
M  V30 42 1 1 39
M  V30 43 1 4 40
M  V30 44 1 5 41
M  V30 45 1 5 42
M  V30 46 1 6 43
M  V30 47 1 6 44
M  V30 48 1 7 45 CFG=3
M  V30 49 1 8 46
M  V30 50 1 8 47
M  V30 51 1 9 48 CFG=1
M  V30 52 1 11 49
M  V30 53 1 12 50
M  V30 54 1 17 51
M  V30 55 1 18 52 CFG=3
M  V30 56 1 19 53
M  V30 57 1 23 54
M  V30 58 1 28 55
M  V30 59 1 31 56
M  V30 60 1 31 57
M  V30 61 1 31 58
M  V30 62 1 35 59
M  V30 63 1 35 60
M  V30 64 1 36 61
M  V30 END BOND
M  V30 END CTAB
M  END
>  <Dataset>  (994) 
ChEMBL_Kinases

>  <Ligand_Instance>  (994) 
nan

>  <PDB_ID>  (994) 
nan

>  <Standardized_SMILES>  (994) 
CC(=O)NCC[C@@H]1C[C@@H](c2ccc(F)c(F)c2)[C@H](NC(=O)c2cc(-c3c(Cl)cnn3C)c(Cl)o2)CN1

>  <Name>  (994) 
nan

>  <Pocket>  (994) 
nan

>  <ATP_Site>  (994) 
nan

>  <Peripheral>  (994) 
nan

>  <Num_H_Atoms_ProtBoundConf>  (994) 
nan

>  <Num_Resolved_Atoms>  (994) 
nan

>  <Num_Not_Resolved_Atoms>  (994) 
nan

$$$$
CHEMBL4741637
     RDKit          3D

  0  0  0  0  0  0  0  0  0  0999 V3000
M  V30 BEGIN CTAB
M  V30 COUNTS 40 42 0 0 0
M  V30 BEGIN ATOM
M  V30 1 N 3.300621 -6.402563 4.495554 0
M  V30 2 C 2.725435 -6.007936 3.550071 0
M  V30 3 C 2.053306 -5.533734 2.397631 0
M  V30 4 C 0.787113 -5.990984 2.194744 0
M  V30 5 N 0.067518 -5.580656 1.096085 0
M  V30 6 C 0.693299 -4.706483 0.245201 0
M  V30 7 N 0.227919 -4.119661 -0.969223 0
M  V30 8 C -0.749276 -3.124677 -0.719956 0
M  V30 9 C -0.205892 -1.988616 -0.301387 0
M  V30 10 C -0.452634 -0.750965 0.083907 0
M  V30 11 N -0.703095 0.515634 0.478388 0
M  V30 12 C -0.896237 1.813385 0.888044 0
M  V30 13 C -0.193070 2.785922 -0.051377 0 CFG=1
M  V30 14 C -0.528088 4.219106 0.232607 0
M  V30 15 N 0.408295 4.893486 1.016689 0
M  V30 16 C 1.593093 4.291227 1.413883 0
M  V30 17 C 1.712774 2.845713 1.136230 0
M  V30 18 O 1.144029 2.516324 -0.057443 0
M  V30 19 C -1.932126 -0.803802 -0.059233 0
M  V30 20 F -3.100617 -0.029257 0.094983 0
M  V30 21 C -2.733843 -1.936385 -0.500261 0
M  V30 22 N -2.092943 -3.110601 -0.830157 0
M  V30 23 C 1.982697 -4.255460 0.473583 0
M  V30 24 N 2.688459 -4.664291 1.560673 0
M  V30 25 H 0.275174 -6.673616 2.849524 0
M  V30 26 H 0.637999 -4.464338 -1.859261 0
M  V30 27 H 0.890387 -1.775336 -0.138134 0
M  V30 28 H 0.358677 0.428940 0.553933 0
M  V30 29 H -0.628983 2.042549 1.945493 0
M  V30 30 H -2.000541 2.063161 0.846133 0
M  V30 31 H -0.569346 2.490682 -1.075514 0
M  V30 32 H -1.543342 4.360794 0.659743 0
M  V30 33 H -0.557360 4.727120 -0.772147 0
M  V30 34 H 0.322915 5.909263 1.074307 0
M  V30 35 H 1.710923 4.419962 2.528064 0
M  V30 36 H 2.518686 4.776564 0.991388 0
M  V30 37 H 2.811452 2.547026 1.040243 0
M  V30 38 H 1.376588 2.259378 2.017674 0
M  V30 39 H -3.767193 -2.259649 -0.704473 0
M  V30 40 H 2.570705 -3.575668 -0.120379 0
M  V30 END ATOM
M  V30 BEGIN BOND
M  V30 1 3 1 2
M  V30 2 1 2 3
M  V30 3 2 3 4
M  V30 4 1 4 5
M  V30 5 2 5 6
M  V30 6 1 6 7
M  V30 7 1 7 8
M  V30 8 2 8 9
M  V30 9 1 9 10
M  V30 10 1 10 11
M  V30 11 1 11 12
M  V30 12 1 12 13
M  V30 13 1 13 14
M  V30 14 1 14 15
M  V30 15 1 15 16
M  V30 16 1 16 17
M  V30 17 1 17 18
M  V30 18 2 10 19
M  V30 19 1 19 20
M  V30 20 1 19 21
M  V30 21 2 21 22
M  V30 22 1 6 23
M  V30 23 2 23 24
M  V30 24 1 24 3
M  V30 25 1 22 8
M  V30 26 1 18 13
M  V30 27 1 4 25
M  V30 28 1 7 26
M  V30 29 1 9 27
M  V30 30 1 11 28
M  V30 31 1 12 29
M  V30 32 1 12 30
M  V30 33 1 13 31 CFG=3
M  V30 34 1 14 32
M  V30 35 1 14 33
M  V30 36 1 15 34
M  V30 37 1 16 35
M  V30 38 1 16 36
M  V30 39 1 17 37
M  V30 40 1 17 38
M  V30 41 1 21 39
M  V30 42 1 23 40
M  V30 END BOND
M  V30 END CTAB
M  END
>  <Dataset>  (995) 
ChEMBL_Kinases

>  <Ligand_Instance>  (995) 
nan

>  <PDB_ID>  (995) 
nan

>  <Standardized_SMILES>  (995) 
N#Cc1cnc(Nc2cc(NC[C@H]3CNCCO3)c(F)cn2)cn1

>  <Name>  (995) 
nan

>  <Pocket>  (995) 
nan

>  <ATP_Site>  (995) 
nan

>  <Peripheral>  (995) 
nan

>  <Num_H_Atoms_ProtBoundConf>  (995) 
nan

>  <Num_Resolved_Atoms>  (995) 
nan

>  <Num_Not_Resolved_Atoms>  (995) 
nan

$$$$
CHEMBL4741656
     RDKit          3D

  0  0  0  0  0  0  0  0  0  0999 V3000
M  V30 BEGIN CTAB
M  V30 COUNTS 44 47 0 0 0
M  V30 BEGIN ATOM
M  V30 1 O 1.926747 -1.800088 -0.601429 0
M  V30 2 C 1.398719 -2.921349 -0.398337 0
M  V30 3 N 0.162892 -2.682792 0.211695 0
M  V30 4 C -0.939080 -1.981864 0.780900 0
M  V30 5 C -1.639437 -1.005359 -0.106765 0
M  V30 6 C -0.959657 0.209789 -0.537667 0
M  V30 7 N -0.635423 1.178298 0.471962 0
M  V30 8 C 0.450171 1.346735 1.242818 0
M  V30 9 O 1.376858 0.541436 1.089768 0
M  V30 10 C 0.645056 2.322769 2.189491 0
M  V30 11 C 1.818888 2.371444 2.908956 0
M  V30 12 C 1.927203 3.385735 3.838339 0
M  V30 13 F 3.080820 3.435278 4.546871 0
M  V30 14 C 0.949241 4.333683 4.083715 0
M  V30 15 C -0.209930 4.226463 3.322682 0
M  V30 16 C -0.362921 3.237451 2.389107 0
M  V30 17 N -1.452091 3.101429 1.643897 0
M  V30 18 C -2.560878 3.850237 1.643639 0
M  V30 19 S -3.071288 5.151617 2.461123 0
M  V30 20 N -3.371138 3.317276 0.720323 0
M  V30 21 N -2.803714 2.271489 0.154195 0
M  V30 22 C -1.592551 2.121374 0.725215 0
M  V30 23 C 2.023562 -4.182659 -0.760417 0
M  V30 24 C 1.528637 -5.452865 -0.580033 0
M  V30 25 C 2.221793 -6.579333 -0.968915 0
M  V30 26 C 3.460748 -6.465032 -1.564225 0
M  V30 27 C 3.930158 -5.178836 -1.731488 0
M  V30 28 C 3.252214 -4.040974 -1.349447 0
M  V30 29 H -0.179598 -3.708895 0.319368 0
M  V30 30 H -1.724402 -2.636714 1.203476 0
M  V30 31 H -0.525082 -1.469406 1.704270 0
M  V30 32 H -1.840680 -1.602068 -1.056570 0
M  V30 33 H -2.674526 -0.860491 0.284191 0
M  V30 34 H -1.616395 0.736248 -1.294919 0
M  V30 35 H -0.050195 -0.034611 -1.120179 0
M  V30 36 H 2.634842 1.654830 2.767729 0
M  V30 37 H 1.098542 5.112404 4.835442 0
M  V30 38 H -0.936013 4.979050 3.546546 0
M  V30 39 H -4.334753 3.574482 0.383756 0
M  V30 40 H 0.562638 -5.529027 -0.115242 0
M  V30 41 H 1.797543 -7.541935 -0.808371 0
M  V30 42 H 4.021154 -7.336927 -1.876806 0
M  V30 43 H 4.898183 -5.057922 -2.195133 0
M  V30 44 H 3.711028 -3.061190 -1.525941 0
M  V30 END ATOM
M  V30 BEGIN BOND
M  V30 1 2 1 2
M  V30 2 1 2 3
M  V30 3 1 3 4
M  V30 4 1 4 5
M  V30 5 1 5 6
M  V30 6 1 6 7
M  V30 7 1 7 8
M  V30 8 2 8 9
M  V30 9 1 8 10
M  V30 10 2 10 11
M  V30 11 1 11 12
M  V30 12 1 12 13
M  V30 13 2 12 14
M  V30 14 1 14 15
M  V30 15 2 15 16
M  V30 16 1 16 17
M  V30 17 1 17 18
M  V30 18 2 18 19
M  V30 19 1 18 20
M  V30 20 1 20 21
M  V30 21 2 21 22
M  V30 22 1 2 23
M  V30 23 2 23 24
M  V30 24 1 24 25
M  V30 25 2 25 26
M  V30 26 1 26 27
M  V30 27 2 27 28
M  V30 28 1 22 7
M  V30 29 1 28 23
M  V30 30 1 16 10
M  V30 31 1 22 17
M  V30 32 1 3 29
M  V30 33 1 4 30
M  V30 34 1 4 31
M  V30 35 1 5 32
M  V30 36 1 5 33
M  V30 37 1 6 34
M  V30 38 1 6 35
M  V30 39 1 11 36
M  V30 40 1 14 37
M  V30 41 1 15 38
M  V30 42 1 20 39
M  V30 43 1 24 40
M  V30 44 1 25 41
M  V30 45 1 26 42
M  V30 46 1 27 43
M  V30 47 1 28 44
M  V30 END BOND
M  V30 END CTAB
M  END
>  <Dataset>  (996) 
ChEMBL_Kinases

>  <Ligand_Instance>  (996) 
nan

>  <PDB_ID>  (996) 
nan

>  <Standardized_SMILES>  (996) 
O=C(NCCCn1c(=O)c2cc(F)ccc2n2c(=S)[nH]nc12)c1ccccc1

>  <Name>  (996) 
nan

>  <Pocket>  (996) 
nan

>  <ATP_Site>  (996) 
nan

>  <Peripheral>  (996) 
nan

>  <Num_H_Atoms_ProtBoundConf>  (996) 
nan

>  <Num_Resolved_Atoms>  (996) 
nan

>  <Num_Not_Resolved_Atoms>  (996) 
nan

$$$$
CHEMBL4741669
     RDKit          3D

  0  0  0  0  0  0  0  0  0  0999 V3000
M  V30 BEGIN CTAB
M  V30 COUNTS 67 71 0 0 0
M  V30 BEGIN ATOM
M  V30 1 C 5.426150 -4.038541 5.073120 0
M  V30 2 N 4.252312 -3.511373 4.363987 0
M  V30 3 C 3.855809 -2.194602 4.699463 0
M  V30 4 O 4.460375 -1.500876 5.551844 0
M  V30 5 C 2.717186 -1.640904 4.032796 0
M  V30 6 S 2.106211 0.061278 4.382925 0
M  V30 7 C 0.791207 0.027664 3.276525 0
M  V30 8 C -0.156565 1.146375 3.054907 0
M  V30 9 C 0.049076 2.271525 3.793325 0
M  V30 10 C -0.793685 3.353332 3.640766 0
M  V30 11 N -1.807912 3.238952 2.742272 0
M  V30 12 C -1.984076 2.108696 2.025637 0
M  V30 13 N -3.071306 2.021051 1.079751 0
M  V30 14 C -4.386534 1.546601 1.384584 0
M  V30 15 O -4.579110 1.186183 2.574105 0
M  V30 16 C -5.431588 1.495398 0.345147 0
M  V30 17 C -5.382741 2.310961 -0.866017 0
M  V30 18 C -5.080290 0.870421 -0.999064 0
M  V30 19 C -1.160113 0.983947 2.140889 0
M  V30 20 N 0.804724 -1.159739 2.690459 0
M  V30 21 C 1.768902 -1.982741 3.075273 0
M  V30 22 O 1.896192 -3.253474 2.542613 0
M  V30 23 C 1.092842 -3.845575 1.578324 0
M  V30 24 C 1.132806 -3.059195 0.313918 0
M  V30 25 C 0.273013 -3.663992 -0.777934 0
M  V30 26 C 0.008802 -2.552971 -1.788447 0
M  V30 27 N 1.185728 -1.703856 -1.874194 0
M  V30 28 C 1.191465 -0.906331 -3.084063 0
M  V30 29 C 0.005827 -0.014566 -3.148353 0
M  V30 30 C 0.066197 1.254031 -2.610862 0
M  V30 31 C -1.083451 2.046174 -2.702527 0
M  V30 32 C -2.261696 1.622912 -3.298634 0
M  V30 33 F -3.346324 2.423878 -3.363361 0
M  V30 34 C -2.235708 0.347098 -3.808013 0
M  V30 35 F -3.389309 -0.094121 -4.402323 0
M  V30 36 C -1.143394 -0.493621 -3.756747 0
M  V30 37 C 2.401362 -2.433643 -1.681361 0
M  V30 38 C 2.510242 -2.852190 -0.231926 0
M  V30 39 H 6.336182 -3.445734 4.772295 0
M  V30 40 H 5.610227 -5.086866 4.836817 0
M  V30 41 H 5.291073 -3.827391 6.162967 0
M  V30 42 H 3.749010 -4.065438 3.665959 0
M  V30 43 H 0.848298 2.373593 4.507438 0
M  V30 44 H -0.673884 4.270335 4.203083 0
M  V30 45 H -2.822020 2.341516 0.115723 0
M  V30 46 H -6.406226 1.098224 0.749917 0
M  V30 47 H -4.515441 3.019790 -0.938411 0
M  V30 48 H -6.349670 2.632405 -1.321665 0
M  V30 49 H -3.998682 0.589681 -1.090054 0
M  V30 50 H -5.741565 0.126905 -1.443166 0
M  V30 51 H -1.324595 0.091269 1.553750 0
M  V30 52 H 0.029640 -3.806539 1.942580 0
M  V30 53 H 1.387441 -4.899445 1.465834 0
M  V30 54 H 0.708873 -2.053642 0.507714 0
M  V30 55 H -0.642730 -4.110836 -0.377197 0
M  V30 56 H 0.885051 -4.450565 -1.268739 0
M  V30 57 H -0.849514 -1.941311 -1.497807 0
M  V30 58 H -0.110119 -3.035849 -2.786306 0
M  V30 59 H 2.095884 -0.268805 -3.045581 0
M  V30 60 H 1.191369 -1.524436 -4.012427 0
M  V30 61 H 0.964854 1.626947 -2.135875 0
M  V30 62 H -0.995842 3.034076 -2.269473 0
M  V30 63 H -1.256668 -1.474544 -4.196619 0
M  V30 64 H 2.462566 -3.360144 -2.287279 0
M  V30 65 H 3.278606 -1.805597 -1.891200 0
M  V30 66 H 3.043982 -3.827943 -0.148688 0
M  V30 67 H 3.112034 -2.134034 0.362381 0
M  V30 END ATOM
M  V30 BEGIN BOND
M  V30 1 1 1 2
M  V30 2 1 2 3
M  V30 3 2 3 4
M  V30 4 1 3 5
M  V30 5 1 5 6
M  V30 6 1 6 7
M  V30 7 1 7 8
M  V30 8 2 8 9
M  V30 9 1 9 10
M  V30 10 2 10 11
M  V30 11 1 11 12
M  V30 12 1 12 13
M  V30 13 1 13 14
M  V30 14 2 14 15
M  V30 15 1 14 16
M  V30 16 1 16 17
M  V30 17 1 17 18
M  V30 18 2 12 19
M  V30 19 2 7 20
M  V30 20 1 20 21
M  V30 21 1 21 22
M  V30 22 1 22 23
M  V30 23 1 23 24
M  V30 24 1 24 25
M  V30 25 1 25 26
M  V30 26 1 26 27
M  V30 27 1 27 28
M  V30 28 1 28 29
M  V30 29 2 29 30
M  V30 30 1 30 31
M  V30 31 2 31 32
M  V30 32 1 32 33
M  V30 33 1 32 34
M  V30 34 1 34 35
M  V30 35 2 34 36
M  V30 36 1 27 37
M  V30 37 1 37 38
M  V30 38 2 21 5
M  V30 39 1 38 24
M  V30 40 1 19 8
M  V30 41 1 36 29
M  V30 42 1 18 16
M  V30 43 1 1 39
M  V30 44 1 1 40
M  V30 45 1 1 41
M  V30 46 1 2 42
M  V30 47 1 9 43
M  V30 48 1 10 44
M  V30 49 1 13 45
M  V30 50 1 16 46
M  V30 51 1 17 47
M  V30 52 1 17 48
M  V30 53 1 18 49
M  V30 54 1 18 50
M  V30 55 1 19 51
M  V30 56 1 23 52
M  V30 57 1 23 53
M  V30 58 1 24 54
M  V30 59 1 25 55
M  V30 60 1 25 56
M  V30 61 1 26 57
M  V30 62 1 26 58
M  V30 63 1 28 59
M  V30 64 1 28 60
M  V30 65 1 30 61
M  V30 66 1 31 62
M  V30 67 1 36 63
M  V30 68 1 37 64
M  V30 69 1 37 65
M  V30 70 1 38 66
M  V30 71 1 38 67
M  V30 END BOND
M  V30 END CTAB
M  END
>  <Dataset>  (997) 
ChEMBL_Kinases

>  <Ligand_Instance>  (997) 
nan

>  <PDB_ID>  (997) 
nan

>  <Standardized_SMILES>  (997) 
CNC(=O)c1sc(-c2ccnc(NC(=O)C3CC3)c2)nc1OCC1CCN(Cc2ccc(F)c(F)c2)CC1

>  <Name>  (997) 
nan

>  <Pocket>  (997) 
nan

>  <ATP_Site>  (997) 
nan

>  <Peripheral>  (997) 
nan

>  <Num_H_Atoms_ProtBoundConf>  (997) 
nan

>  <Num_Resolved_Atoms>  (997) 
nan

>  <Num_Not_Resolved_Atoms>  (997) 
nan

$$$$
CHEMBL4741705
     RDKit          3D

  0  0  0  0  0  0  0  0  0  0999 V3000
M  V30 BEGIN CTAB
M  V30 COUNTS 65 69 0 0 0
M  V30 BEGIN ATOM
M  V30 1 C 4.712505 -2.523618 2.761388 0
M  V30 2 O 3.851582 -2.569217 3.880500 0
M  V30 3 C 2.738818 -1.755158 4.008296 0
M  V30 4 C 1.964594 -1.879270 5.140992 0
M  V30 5 C 0.839268 -1.070656 5.293297 0
M  V30 6 C 0.545468 -0.171314 4.294011 0
M  V30 7 C 1.305765 -0.032901 3.156483 0
M  V30 8 C 1.011685 0.911745 2.092506 0
M  V30 9 N 1.629749 1.967083 1.503768 0
M  V30 10 C 0.850366 2.465785 0.540573 0
M  V30 11 C 1.120726 3.596958 -0.337327 0
M  V30 12 C 0.186077 3.978734 -1.274265 0
M  V30 13 C 0.457481 5.058861 -2.104696 0
M  V30 14 C 1.666884 5.751454 -1.991082 0
M  V30 15 C 2.620199 5.375604 -1.048191 0
M  V30 16 C 2.308946 4.286375 -0.233848 0
M  V30 17 N -0.287253 1.717783 0.510866 0
M  V30 18 C -0.214760 0.750873 1.458636 0
M  V30 19 C -1.315032 -0.196943 1.646895 0
M  V30 20 C -2.508813 0.457344 1.963862 0
M  V30 21 C -3.651098 -0.260573 2.179002 0
M  V30 22 N -3.615716 -1.574357 2.084203 0
M  V30 23 C -2.492497 -2.275460 1.779935 0
M  V30 24 N -2.417733 -3.659021 1.692168 0
M  V30 25 C -1.647331 -4.820483 1.350210 0
M  V30 26 C -1.525009 -4.908997 -0.149424 0
M  V30 27 N -0.827926 -3.772559 -0.640628 0
M  V30 28 S -0.645491 -3.776779 -2.355776 0
M  V30 29 O 0.786485 -3.505779 -2.708338 0
M  V30 30 O -1.074823 -5.058609 -2.990846 0
M  V30 31 C -1.668164 -2.501072 -2.975273 0
M  V30 32 C -2.987982 -2.593705 -3.361906 0
M  V30 33 C -3.627269 -1.464322 -3.826903 0
M  V30 34 C -3.013904 -0.229268 -3.929291 0
M  V30 35 Br -3.945808 1.299222 -4.580525 0
M  V30 36 C -1.685758 -0.115931 -3.544702 0
M  V30 37 C -1.053657 -1.248314 -3.081102 0
M  V30 38 C -1.334344 -1.559948 1.561814 0
M  V30 39 C 2.431773 -0.845492 3.009246 0
M  V30 40 H 5.037466 -1.482923 2.637312 0
M  V30 41 H 5.579472 -3.183223 2.965729 0
M  V30 42 H 4.160223 -2.880561 1.870618 0
M  V30 43 H 2.157466 -2.569656 5.946968 0
M  V30 44 H 0.188520 -1.123442 6.166164 0
M  V30 45 H -0.305455 0.509403 4.306687 0
M  V30 46 H -0.768120 3.478109 -1.406194 0
M  V30 47 H -0.294771 5.343732 -2.839465 0
M  V30 48 H 1.769198 6.579995 -2.692542 0
M  V30 49 H 3.534214 5.943774 -1.006341 0
M  V30 50 H 3.075311 4.035315 0.477734 0
M  V30 51 H -1.073648 1.894243 -0.156060 0
M  V30 52 H -2.628118 1.525781 2.060734 0
M  V30 53 H -4.639473 0.101886 2.430781 0
M  V30 54 H -3.349164 -4.077082 2.020688 0
M  V30 55 H -0.566675 -4.656453 1.697259 0
M  V30 56 H -1.990211 -5.765237 1.804996 0
M  V30 57 H -1.046533 -5.881904 -0.416959 0
M  V30 58 H -2.571308 -4.958967 -0.533363 0
M  V30 59 H 0.097952 -3.621802 -0.164214 0
M  V30 60 H -3.411999 -3.569585 -3.261451 0
M  V30 61 H -4.651993 -1.553090 -4.124149 0
M  V30 62 H -1.186668 0.836640 -3.615874 0
M  V30 63 H -0.020413 -1.092716 -2.797842 0
M  V30 64 H -0.354638 -1.890793 1.327222 0
M  V30 65 H 3.090290 -0.797327 2.131825 0
M  V30 END ATOM
M  V30 BEGIN BOND
M  V30 1 1 1 2
M  V30 2 1 2 3
M  V30 3 2 3 4
M  V30 4 1 4 5
M  V30 5 2 5 6
M  V30 6 1 6 7
M  V30 7 1 7 8
M  V30 8 1 8 9
M  V30 9 2 9 10
M  V30 10 1 10 11
M  V30 11 2 11 12
M  V30 12 1 12 13
M  V30 13 2 13 14
M  V30 14 1 14 15
M  V30 15 2 15 16
M  V30 16 1 10 17
M  V30 17 1 17 18
M  V30 18 1 18 19
M  V30 19 2 19 20
M  V30 20 1 20 21
M  V30 21 2 21 22
M  V30 22 1 22 23
M  V30 23 1 23 24
M  V30 24 1 24 25
M  V30 25 1 25 26
M  V30 26 1 26 27
M  V30 27 1 27 28
M  V30 28 2 28 29
M  V30 29 2 28 30
M  V30 30 1 28 31
M  V30 31 2 31 32
M  V30 32 1 32 33
M  V30 33 2 33 34
M  V30 34 1 34 35
M  V30 35 1 34 36
M  V30 36 2 36 37
M  V30 37 2 23 38
M  V30 38 2 7 39
M  V30 39 1 39 3
M  V30 40 2 18 8
M  V30 41 1 38 19
M  V30 42 1 16 11
M  V30 43 1 37 31
M  V30 44 1 1 40
M  V30 45 1 1 41
M  V30 46 1 1 42
M  V30 47 1 4 43
M  V30 48 1 5 44
M  V30 49 1 6 45
M  V30 50 1 12 46
M  V30 51 1 13 47
M  V30 52 1 14 48
M  V30 53 1 15 49
M  V30 54 1 16 50
M  V30 55 1 17 51
M  V30 56 1 20 52
M  V30 57 1 21 53
M  V30 58 1 24 54
M  V30 59 1 25 55
M  V30 60 1 25 56
M  V30 61 1 26 57
M  V30 62 1 26 58
M  V30 63 1 27 59
M  V30 64 1 32 60
M  V30 65 1 33 61
M  V30 66 1 36 62
M  V30 67 1 37 63
M  V30 68 1 38 64
M  V30 69 1 39 65
M  V30 END BOND
M  V30 END CTAB
M  END
>  <Dataset>  (998) 
ChEMBL_Kinases

>  <Ligand_Instance>  (998) 
nan

>  <PDB_ID>  (998) 
nan

>  <Standardized_SMILES>  (998) 
COc1cccc(-c2nc(-c3ccccc3)[nH]c2-c2ccnc(NCCNS(=O)(=O)c3ccc(Br)cc3)c2)c1

>  <Name>  (998) 
nan

>  <Pocket>  (998) 
nan

>  <ATP_Site>  (998) 
nan

>  <Peripheral>  (998) 
nan

>  <Num_H_Atoms_ProtBoundConf>  (998) 
nan

>  <Num_Resolved_Atoms>  (998) 
nan

>  <Num_Not_Resolved_Atoms>  (998) 
nan

$$$$
CHEMBL4741714
     RDKit          3D

  0  0  0  0  0  0  0  0  0  0999 V3000
M  V30 BEGIN CTAB
M  V30 COUNTS 56 59 0 0 0
M  V30 BEGIN ATOM
M  V30 1 C 5.147411 0.842963 -0.154891 0
M  V30 2 C 3.765014 1.460986 -0.174262 0 CFG=2
M  V30 3 C 3.348237 1.999009 1.149115 0
M  V30 4 C 2.081318 1.340603 1.635895 0 CFG=2
M  V30 5 N 1.861331 1.550295 3.051432 0
M  V30 6 C 2.266359 -0.163754 1.376669 0
M  V30 7 C 2.036567 -0.396371 -0.104355 0 CFG=2
M  V30 8 C 2.208099 -1.795796 -0.523829 0
M  V30 9 C 3.391031 -2.394588 -0.901938 0
M  V30 10 C 3.541582 -3.702348 -1.300980 0
M  V30 11 C 2.446095 -4.509807 -1.338719 0
M  V30 12 C 1.234548 -4.012546 -0.984217 0
M  V30 13 C 1.129632 -2.689548 -0.588795 0
M  V30 14 N -0.184826 -2.261571 -0.244026 0
M  V30 15 C -0.563514 -2.488894 1.101330 0
M  V30 16 O 0.216415 -3.042834 1.948832 0
M  V30 17 C -1.888654 -2.082613 1.555935 0
M  V30 18 C -2.283058 -2.290746 2.870841 0
M  V30 19 C -3.520311 -1.917442 3.321341 0
M  V30 20 C -4.440378 -1.317518 2.501800 0
M  V30 21 F -5.680198 -0.923142 2.880972 0
M  V30 22 C -4.026363 -1.115179 1.179084 0
M  V30 23 C -4.989790 -0.477803 0.285840 0
M  V30 24 C -5.142830 0.873027 0.048059 0
M  V30 25 F -4.297183 1.673827 0.726752 0
M  V30 26 C -6.109511 1.289265 -0.830165 0
M  V30 27 C -6.942687 0.402134 -1.491329 0
M  V30 28 C -6.776917 -0.946610 -1.242559 0
M  V30 29 C -5.800793 -1.399201 -0.353303 0
M  V30 30 F -5.778360 -2.738505 -0.230328 0
M  V30 31 N -2.816496 -1.494281 0.789267 0
M  V30 32 C 2.742909 0.632000 -0.896156 0
M  V30 33 H 5.245282 -0.055510 0.446283 0
M  V30 34 H 5.375091 0.557324 -1.214453 0
M  V30 35 H 5.863416 1.649763 0.077977 0
M  V30 36 H 3.903318 2.380138 -0.834214 0
M  V30 37 H 3.234977 3.114537 1.180225 0
M  V30 38 H 4.128210 1.729155 1.919930 0
M  V30 39 H 1.176416 1.731407 1.130785 0
M  V30 40 H 2.509451 2.272293 3.461523 0
M  V30 41 H 2.023844 0.674932 3.596007 0
M  V30 42 H 1.457647 -0.624027 2.011550 0
M  V30 43 H 3.265807 -0.414313 1.724110 0
M  V30 44 H 0.920893 -0.181931 -0.213417 0
M  V30 45 H 4.286315 -1.800517 -0.890111 0
M  V30 46 H 4.484579 -4.107079 -1.581663 0
M  V30 47 H 2.551971 -5.535215 -1.649614 0
M  V30 48 H 0.372175 -4.662919 -1.018253 0
M  V30 49 H -0.886382 -1.801452 -0.883983 0
M  V30 50 H -1.574586 -2.764220 3.542753 0
M  V30 51 H -3.795880 -2.093639 4.350653 0
M  V30 52 H -6.207400 2.362245 -0.998512 0
M  V30 53 H -7.668985 0.836132 -2.160482 0
M  V30 54 H -7.450402 -1.593398 -1.782419 0
M  V30 55 H 2.002078 1.372820 -1.334008 0
M  V30 56 H 3.230991 0.244596 -1.821134 0
M  V30 END ATOM
M  V30 BEGIN BOND
M  V30 1 1 1 2
M  V30 2 1 2 3
M  V30 3 1 3 4
M  V30 4 1 4 5
M  V30 5 1 4 6
M  V30 6 1 6 7
M  V30 7 1 7 8
M  V30 8 2 8 9
M  V30 9 1 9 10
M  V30 10 2 10 11
M  V30 11 1 11 12
M  V30 12 2 12 13
M  V30 13 1 13 14
M  V30 14 1 14 15
M  V30 15 2 15 16
M  V30 16 1 15 17
M  V30 17 2 17 18
M  V30 18 1 18 19
M  V30 19 2 19 20
M  V30 20 1 20 21
M  V30 21 1 20 22
M  V30 22 1 22 23
M  V30 23 2 23 24
M  V30 24 1 24 25
M  V30 25 1 24 26
M  V30 26 2 26 27
M  V30 27 1 27 28
M  V30 28 2 28 29
M  V30 29 1 29 30
M  V30 30 2 22 31
M  V30 31 1 7 32
M  V30 32 1 32 2
M  V30 33 1 13 8
M  V30 34 1 31 17
M  V30 35 1 29 23
M  V30 36 1 1 33
M  V30 37 1 1 34
M  V30 38 1 1 35
M  V30 39 1 2 36 CFG=3
M  V30 40 1 3 37
M  V30 41 1 3 38
M  V30 42 1 4 39 CFG=3
M  V30 43 1 5 40
M  V30 44 1 5 41
M  V30 45 1 6 42
M  V30 46 1 6 43
M  V30 47 1 7 44 CFG=1
M  V30 48 1 9 45
M  V30 49 1 10 46
M  V30 50 1 11 47
M  V30 51 1 12 48
M  V30 52 1 14 49
M  V30 53 1 18 50
M  V30 54 1 19 51
M  V30 55 1 26 52
M  V30 56 1 27 53
M  V30 57 1 28 54
M  V30 58 1 32 55
M  V30 59 1 32 56
M  V30 END BOND
M  V30 END CTAB
M  END
>  <Dataset>  (999) 
ChEMBL_Kinases

>  <Ligand_Instance>  (999) 
nan

>  <PDB_ID>  (999) 
nan

>  <Standardized_SMILES>  (999) 
C[C@@H]1C[C@H](N)C[C@H](c2ccccc2NC(=O)c2ccc(F)c(-c3c(F)cccc3F)n2)C1

>  <Name>  (999) 
nan

>  <Pocket>  (999) 
nan

>  <ATP_Site>  (999) 
nan

>  <Peripheral>  (999) 
nan

>  <Num_H_Atoms_ProtBoundConf>  (999) 
nan

>  <Num_Resolved_Atoms>  (999) 
nan

>  <Num_Not_Resolved_Atoms>  (999) 
nan

$$$$
