CHEMBL3827511
     RDKit          3D

  0  0  0  0  0  0  0  0  0  0999 V3000
M  V30 BEGIN CTAB
M  V30 COUNTS 38 41 0 0 0
M  V30 BEGIN ATOM
M  V30 1 C -0.627093 -3.182925 -2.697468 0
M  V30 2 C 0.470717 -2.867415 -1.755920 0
M  V30 3 N 0.971943 -3.865469 -1.006125 0
M  V30 4 C 1.976763 -3.383313 -0.225705 0
M  V30 5 C 2.792451 -4.003577 0.696723 0
M  V30 6 C 3.745824 -3.201689 1.328572 0
M  V30 7 C 3.870473 -1.839350 1.043821 0
M  V30 8 C 2.993667 -1.336289 0.101790 0
M  V30 9 C 2.027031 -2.048536 -0.568400 0
M  V30 10 N 1.111391 -1.704270 -1.506601 0
M  V30 11 C 0.860542 -0.417005 -2.092322 0
M  V30 12 C -0.109503 0.419414 -1.398396 0
M  V30 13 N -1.286538 0.872741 -1.254013 0
M  V30 14 N -1.631604 1.680762 -0.351254 0
M  V30 15 C -0.939177 2.171608 0.529059 0
M  V30 16 N -0.574766 3.011154 1.708572 0
M  V30 17 C -1.332808 2.299017 2.718725 0
M  V30 18 C -0.559131 1.700765 3.681073 0
M  V30 19 C -1.255333 1.015140 4.695394 0
M  V30 20 C -2.636552 0.976164 4.680769 0
M  V30 21 C -3.410077 1.584206 3.706031 0
M  V30 22 C -2.743122 2.271028 2.684347 0
M  V30 23 Cl -3.457749 3.136756 1.317842 0
M  V30 24 S 0.683788 1.354175 0.081493 0
M  V30 25 H -1.585691 -3.338750 -2.185565 0
M  V30 26 H -0.688831 -2.401079 -3.482618 0
M  V30 27 H -0.406151 -4.123060 -3.268752 0
M  V30 28 H 2.677902 -5.062121 0.898000 0
M  V30 29 H 4.395255 -3.689739 2.051356 0
M  V30 30 H 4.630761 -1.252763 1.561217 0
M  V30 31 H 3.137611 -0.284803 -0.085440 0
M  V30 32 H 0.437905 -0.598367 -3.130553 0
M  V30 33 H 1.794548 0.160559 -2.269227 0
M  V30 34 H 0.058702 3.824623 1.614390 0
M  V30 35 H 0.510711 1.713860 3.715652 0
M  V30 36 H -0.724056 0.511318 5.495152 0
M  V30 37 H -3.233306 0.456660 5.449631 0
M  V30 38 H -4.471777 1.619438 3.600931 0
M  V30 END ATOM
M  V30 BEGIN BOND
M  V30 1 1 1 2
M  V30 2 2 2 3
M  V30 3 1 3 4
M  V30 4 2 4 5
M  V30 5 1 5 6
M  V30 6 2 6 7
M  V30 7 1 7 8
M  V30 8 2 8 9
M  V30 9 1 9 10
M  V30 10 1 10 11
M  V30 11 1 11 12
M  V30 12 2 12 13
M  V30 13 1 13 14
M  V30 14 2 14 15
M  V30 15 1 15 16
M  V30 16 1 16 17
M  V30 17 2 17 18
M  V30 18 1 18 19
M  V30 19 2 19 20
M  V30 20 1 20 21
M  V30 21 2 21 22
M  V30 22 1 22 23
M  V30 23 1 15 24
M  V30 24 1 10 2
M  V30 25 1 24 12
M  V30 26 1 9 4
M  V30 27 1 22 17
M  V30 28 1 1 25
M  V30 29 1 1 26
M  V30 30 1 1 27
M  V30 31 1 5 28
M  V30 32 1 6 29
M  V30 33 1 7 30
M  V30 34 1 8 31
M  V30 35 1 11 32
M  V30 36 1 11 33
M  V30 37 1 16 34
M  V30 38 1 18 35
M  V30 39 1 19 36
M  V30 40 1 20 37
M  V30 41 1 21 38
M  V30 END BOND
M  V30 END CTAB
M  END
>  <Dataset>  (1) 
ChEMBL_Kinases

>  <Ligand_Instance>  (1) 
nan

>  <PDB_ID>  (1) 
nan

>  <Standardized_SMILES>  (1) 
Cc1nc2ccccc2n1Cc1nnc(Nc2ccccc2Cl)s1

>  <Name>  (1) 
nan

>  <Pocket>  (1) 
nan

>  <ATP_Site>  (1) 
nan

>  <Peripheral>  (1) 
nan

>  <Num_H_Atoms_ProtBoundConf>  (1) 
nan

>  <Num_Resolved_Atoms>  (1) 
nan

>  <Num_Not_Resolved_Atoms>  (1) 
nan

$$$$
CHEMBL3827482
     RDKit          3D

  0  0  0  0  0  0  0  0  0  0999 V3000
M  V30 BEGIN CTAB
M  V30 COUNTS 39 42 0 0 0
M  V30 BEGIN ATOM
M  V30 1 C -0.868040 -7.107448 3.012353 0
M  V30 2 N -0.344303 -5.819932 2.593384 0
M  V30 3 C -1.075723 -4.831161 2.045020 0
M  V30 4 C -0.254398 -3.752405 1.770454 0
M  V30 5 C -0.444081 -2.425781 1.192943 0
M  V30 6 C 0.550511 -1.796539 0.470413 0
M  V30 7 C 0.355437 -0.542089 -0.069174 0
M  V30 8 C -0.831277 0.145098 0.081902 0
M  V30 9 C -0.940569 1.467483 -0.526745 0
M  V30 10 C -2.007618 1.950123 -1.257125 0
M  V30 11 N -1.990599 3.194080 -1.770372 0
M  V30 12 C -0.969026 4.051127 -1.624314 0
M  V30 13 C 0.122746 3.614551 -0.901017 0
M  V30 14 C 1.194257 4.474474 -0.731434 0
M  V30 15 C 2.305026 4.076734 -0.015012 0
M  V30 16 C 2.292388 2.804855 0.512111 0
M  V30 17 C 3.340968 2.135552 1.311654 0
M  V30 18 O 3.339166 0.974938 1.797450 0
M  V30 19 O 4.531706 2.813371 1.616645 0
M  V30 20 N 1.234258 2.004909 0.323995 0
M  V30 21 C 0.127173 2.338107 -0.363534 0
M  V30 22 C -1.834247 -0.464496 0.798179 0
M  V30 23 C -1.640146 -1.722395 1.339878 0
M  V30 24 C 1.017205 -4.159485 2.190223 0
M  V30 25 N 0.926011 -5.410336 2.680736 0
M  V30 26 H -1.771678 -6.967330 3.658245 0
M  V30 27 H -1.083576 -7.723570 2.114900 0
M  V30 28 H -0.064802 -7.635342 3.584841 0
M  V30 29 H -2.118628 -4.771598 1.812311 0
M  V30 30 H 1.475994 -2.370908 0.371596 0
M  V30 31 H 1.225702 -0.186996 -0.604705 0
M  V30 32 H -2.839252 1.270074 -1.383417 0
M  V30 33 H -0.948377 5.047352 -2.031887 0
M  V30 34 H 1.237363 5.476840 -1.130448 0
M  V30 35 H 3.201548 4.623630 0.199239 0
M  V30 36 H 5.421238 2.304484 1.695314 0
M  V30 37 H -2.766328 0.072432 0.918219 0
M  V30 38 H -2.470680 -2.165849 1.902690 0
M  V30 39 H 1.951615 -3.627361 2.160602 0
M  V30 END ATOM
M  V30 BEGIN BOND
M  V30 1 1 1 2
M  V30 2 1 2 3
M  V30 3 2 3 4
M  V30 4 1 4 5
M  V30 5 2 5 6
M  V30 6 1 6 7
M  V30 7 2 7 8
M  V30 8 1 8 9
M  V30 9 2 9 10
M  V30 10 1 10 11
M  V30 11 2 11 12
M  V30 12 1 12 13
M  V30 13 2 13 14
M  V30 14 1 14 15
M  V30 15 2 15 16
M  V30 16 1 16 17
M  V30 17 2 17 18
M  V30 18 1 17 19
M  V30 19 1 16 20
M  V30 20 2 20 21
M  V30 21 1 8 22
M  V30 22 2 22 23
M  V30 23 1 4 24
M  V30 24 2 24 25
M  V30 25 1 25 2
M  V30 26 1 23 5
M  V30 27 1 21 9
M  V30 28 1 21 13
M  V30 29 1 1 26
M  V30 30 1 1 27
M  V30 31 1 1 28
M  V30 32 1 3 29
M  V30 33 1 6 30
M  V30 34 1 7 31
M  V30 35 1 10 32
M  V30 36 1 12 33
M  V30 37 1 14 34
M  V30 38 1 15 35
M  V30 39 1 19 36
M  V30 40 1 22 37
M  V30 41 1 23 38
M  V30 42 1 24 39
M  V30 END BOND
M  V30 END CTAB
M  END
>  <Dataset>  (2) 
ChEMBL_Kinases

>  <Ligand_Instance>  (2) 
nan

>  <PDB_ID>  (2) 
nan

>  <Standardized_SMILES>  (2) 
Cn1cc(-c2ccc(-c3cncc4ccc(C(=O)O)nc34)cc2)cn1

>  <Name>  (2) 
nan

>  <Pocket>  (2) 
nan

>  <ATP_Site>  (2) 
nan

>  <Peripheral>  (2) 
nan

>  <Num_H_Atoms_ProtBoundConf>  (2) 
nan

>  <Num_Resolved_Atoms>  (2) 
nan

>  <Num_Not_Resolved_Atoms>  (2) 
nan

$$$$
CHEMBL3827470
     RDKit          3D

  0  0  0  0  0  0  0  0  0  0999 V3000
M  V30 BEGIN CTAB
M  V30 COUNTS 47 51 0 0 0
M  V30 BEGIN ATOM
M  V30 1 C -3.483715 -6.382813 2.108799 0
M  V30 2 N -2.237561 -5.730807 1.760896 0
M  V30 3 C -2.073386 -4.580768 1.084711 0
M  V30 4 C -0.731339 -4.276522 0.946282 0
M  V30 5 C -0.110138 -3.131962 0.288827 0
M  V30 6 C -0.803272 -1.922601 0.312537 0
M  V30 7 C -0.276609 -0.777395 -0.294690 0
M  V30 8 C 0.953428 -0.889156 -0.917514 0
M  V30 9 C 1.643775 0.202420 -1.593152 0
M  V30 10 C 2.257410 0.151613 -2.827321 0
M  V30 11 N 2.865670 1.231301 -3.350807 0
M  V30 12 C 2.925021 2.416787 -2.732962 0
M  V30 13 C 2.326842 2.545008 -1.481160 0
M  V30 14 C 2.351930 3.750369 -0.782355 0
M  V30 15 C 1.742113 3.815828 0.454923 0
M  V30 16 C 1.121615 2.708184 0.985078 0
M  V30 17 N 0.460904 2.639544 2.241764 0
M  V30 18 C 0.714151 2.329395 3.655191 0
M  V30 19 C -0.552562 1.640201 4.125493 0
M  V30 20 C -1.623492 2.450779 3.428036 0
M  V30 21 C -0.938908 2.972004 2.204561 0
M  V30 22 O -1.700919 3.587516 1.395444 0
M  V30 23 N 1.132725 1.560943 0.251279 0
M  V30 24 C 1.699373 1.433202 -0.939940 0
M  V30 25 C 1.634386 -2.090900 -0.937069 0
M  V30 26 C 1.115328 -3.222894 -0.337559 0
M  V30 27 C -0.078166 -5.315362 1.582057 0
M  V30 28 N -1.007852 -6.156419 2.051368 0
M  V30 29 H -3.659976 -6.344580 3.223133 0
M  V30 30 H -3.534443 -7.434016 1.771136 0
M  V30 31 H -4.319883 -5.807264 1.672568 0
M  V30 32 H -2.837101 -3.933591 0.677331 0
M  V30 33 H -1.770327 -1.766883 0.782786 0
M  V30 34 H -0.758739 0.180582 -0.311590 0
M  V30 35 H 2.200666 -0.818547 -3.317021 0
M  V30 36 H 3.421960 3.261718 -3.183643 0
M  V30 37 H 2.840242 4.616490 -1.203003 0
M  V30 38 H 1.721612 4.715784 1.054005 0
M  V30 39 H 0.820205 3.269053 4.257094 0
M  V30 40 H 1.581125 1.665477 3.781101 0
M  V30 41 H -0.581210 0.563961 3.854356 0
M  V30 42 H -0.670069 1.707435 5.216791 0
M  V30 43 H -1.956853 3.261918 4.083739 0
M  V30 44 H -2.474676 1.817486 3.146051 0
M  V30 45 H 2.614025 -2.221792 -1.421069 0
M  V30 46 H 1.636772 -4.184660 -0.340472 0
M  V30 47 H 0.990004 -5.450334 1.695587 0
M  V30 END ATOM
M  V30 BEGIN BOND
M  V30 1 1 1 2
M  V30 2 1 2 3
M  V30 3 2 3 4
M  V30 4 1 4 5
M  V30 5 2 5 6
M  V30 6 1 6 7
M  V30 7 2 7 8
M  V30 8 1 8 9
M  V30 9 2 9 10
M  V30 10 1 10 11
M  V30 11 2 11 12
M  V30 12 1 12 13
M  V30 13 2 13 14
M  V30 14 1 14 15
M  V30 15 2 15 16
M  V30 16 1 16 17
M  V30 17 1 17 18
M  V30 18 1 18 19
M  V30 19 1 19 20
M  V30 20 1 20 21
M  V30 21 2 21 22
M  V30 22 1 16 23
M  V30 23 2 23 24
M  V30 24 1 8 25
M  V30 25 2 25 26
M  V30 26 1 4 27
M  V30 27 2 27 28
M  V30 28 1 28 2
M  V30 29 1 26 5
M  V30 30 1 24 9
M  V30 31 1 24 13
M  V30 32 1 21 17
M  V30 33 1 1 29
M  V30 34 1 1 30
M  V30 35 1 1 31
M  V30 36 1 3 32
M  V30 37 1 6 33
M  V30 38 1 7 34
M  V30 39 1 10 35
M  V30 40 1 12 36
M  V30 41 1 14 37
M  V30 42 1 15 38
M  V30 43 1 18 39
M  V30 44 1 18 40
M  V30 45 1 19 41
M  V30 46 1 19 42
M  V30 47 1 20 43
M  V30 48 1 20 44
M  V30 49 1 25 45
M  V30 50 1 26 46
M  V30 51 1 27 47
M  V30 END BOND
M  V30 END CTAB
M  END
>  <Dataset>  (3) 
ChEMBL_Kinases

>  <Ligand_Instance>  (3) 
nan

>  <PDB_ID>  (3) 
nan

>  <Standardized_SMILES>  (3) 
Cn1cc(-c2ccc(-c3cncc4ccc(N5CCCC5=O)nc34)cc2)cn1

>  <Name>  (3) 
nan

>  <Pocket>  (3) 
nan

>  <ATP_Site>  (3) 
nan

>  <Peripheral>  (3) 
nan

>  <Num_H_Atoms_ProtBoundConf>  (3) 
nan

>  <Num_Resolved_Atoms>  (3) 
nan

>  <Num_Not_Resolved_Atoms>  (3) 
nan

$$$$
CHEMBL3827333
     RDKit          3D

  0  0  0  0  0  0  0  0  0  0999 V3000
M  V30 BEGIN CTAB
M  V30 COUNTS 42 45 0 0 0
M  V30 BEGIN ATOM
M  V30 1 C 0.925701 -7.303654 2.365717 0
M  V30 2 N 1.121708 -6.301577 1.332080 0
M  V30 3 C 0.944685 -4.968163 1.453086 0
M  V30 4 C 1.239289 -4.363077 0.227503 0
M  V30 5 C 1.171815 -2.938990 -0.056858 0
M  V30 6 C 0.861186 -2.394997 -1.284423 0
M  V30 7 C 0.832071 -1.022471 -1.417148 0
M  V30 8 C 1.098675 -0.129224 -0.381828 0
M  V30 9 C 1.038717 1.288039 -0.702347 0
M  V30 10 C 1.833761 1.600246 -1.788821 0
M  V30 11 N 1.925795 2.890504 -2.221701 0
M  V30 12 C 1.261770 3.898024 -1.625060 0
M  V30 13 C 0.461295 3.608417 -0.538151 0
M  V30 14 C -0.270159 4.531491 0.154419 0
M  V30 15 C -1.064181 4.175777 1.238638 0
M  V30 16 C -1.145261 2.851831 1.664276 0
M  V30 17 S -2.138132 2.371651 3.028283 0
M  V30 18 N -1.226024 2.442961 4.511972 0
M  V30 19 O -2.643328 0.974333 2.851395 0
M  V30 20 O -3.346952 3.264103 3.184029 0
M  V30 21 C -0.417099 1.905250 0.981841 0
M  V30 22 C 0.354310 2.313907 -0.085622 0
M  V30 23 C 1.404548 -0.716153 0.825670 0
M  V30 24 C 1.445645 -2.082215 1.006635 0
M  V30 25 C 1.589459 -5.392220 -0.595333 0
M  V30 26 N 1.509328 -6.546419 0.096869 0
M  V30 27 H 0.513649 -8.245629 1.938980 0
M  V30 28 H 1.849270 -7.571238 2.905893 0
M  V30 29 H 0.186404 -6.957445 3.138477 0
M  V30 30 H 0.630574 -4.497968 2.355381 0
M  V30 31 H 0.650359 -3.067383 -2.102785 0
M  V30 32 H 0.575258 -0.690452 -2.431064 0
M  V30 33 H 2.432532 0.922835 -2.384026 0
M  V30 34 H 1.324513 4.918530 -1.954254 0
M  V30 35 H -0.214854 5.574511 -0.170206 0
M  V30 36 H -1.641510 4.934064 1.778264 0
M  V30 37 H -0.265847 2.082441 4.234687 0
M  V30 38 H -1.650714 1.728274 5.147828 0
M  V30 39 H -0.492009 0.882329 1.312293 0
M  V30 40 H 1.626977 -0.048897 1.644712 0
M  V30 41 H 1.698602 -2.459071 2.005806 0
M  V30 42 H 1.873069 -5.254820 -1.613393 0
M  V30 END ATOM
M  V30 BEGIN BOND
M  V30 1 1 1 2
M  V30 2 1 2 3
M  V30 3 2 3 4
M  V30 4 1 4 5
M  V30 5 2 5 6
M  V30 6 1 6 7
M  V30 7 2 7 8
M  V30 8 1 8 9
M  V30 9 2 9 10
M  V30 10 1 10 11
M  V30 11 2 11 12
M  V30 12 1 12 13
M  V30 13 2 13 14
M  V30 14 1 14 15
M  V30 15 2 15 16
M  V30 16 1 16 17
M  V30 17 1 17 18
M  V30 18 2 17 19
M  V30 19 2 17 20
M  V30 20 1 16 21
M  V30 21 2 21 22
M  V30 22 1 8 23
M  V30 23 2 23 24
M  V30 24 1 4 25
M  V30 25 2 25 26
M  V30 26 1 26 2
M  V30 27 1 24 5
M  V30 28 1 22 9
M  V30 29 1 22 13
M  V30 30 1 1 27
M  V30 31 1 1 28
M  V30 32 1 1 29
M  V30 33 1 3 30
M  V30 34 1 6 31
M  V30 35 1 7 32
M  V30 36 1 10 33
M  V30 37 1 12 34
M  V30 38 1 14 35
M  V30 39 1 15 36
M  V30 40 1 18 37
M  V30 41 1 18 38
M  V30 42 1 21 39
M  V30 43 1 23 40
M  V30 44 1 24 41
M  V30 45 1 25 42
M  V30 END BOND
M  V30 END CTAB
M  END
>  <Dataset>  (4) 
ChEMBL_Kinases

>  <Ligand_Instance>  (4) 
nan

>  <PDB_ID>  (4) 
nan

>  <Standardized_SMILES>  (4) 
Cn1cc(-c2ccc(-c3cncc4ccc(S(N)(=O)=O)cc34)cc2)cn1

>  <Name>  (4) 
nan

>  <Pocket>  (4) 
nan

>  <ATP_Site>  (4) 
nan

>  <Peripheral>  (4) 
nan

>  <Num_H_Atoms_ProtBoundConf>  (4) 
nan

>  <Num_Resolved_Atoms>  (4) 
nan

>  <Num_Not_Resolved_Atoms>  (4) 
nan

$$$$
CHEMBL3827327
     RDKit          3D

  0  0  0  0  0  0  0  0  0  0999 V3000
M  V30 BEGIN CTAB
M  V30 COUNTS 48 52 0 0 0
M  V30 BEGIN ATOM
M  V30 1 C 0.973625 -7.661037 0.373042 0
M  V30 2 N 0.841196 -6.429317 -0.381607 0
M  V30 3 C 0.879388 -5.172216 0.117306 0
M  V30 4 C 0.715277 -4.285663 -0.928517 0
M  V30 5 C 0.671620 -2.828529 -0.991452 0
M  V30 6 C 1.387394 -2.030362 -0.131857 0
M  V30 7 C 1.359188 -0.654347 -0.175177 0
M  V30 8 C 0.584071 -0.009648 -1.115405 0
M  V30 9 C 0.373038 1.411172 -1.353220 0
M  V30 10 C 0.604167 1.833576 -2.668876 0
M  V30 11 N 0.482531 3.107940 -3.066305 0
M  V30 12 C 0.121360 4.096250 -2.210846 0
M  V30 13 C -0.113081 3.709763 -0.909395 0
M  V30 14 C -0.492167 4.639497 0.036953 0
M  V30 15 C -0.736676 4.247000 1.356346 0
M  V30 16 C -0.604002 2.927934 1.734617 0
M  V30 17 C -0.880328 2.613329 3.133085 0
M  V30 18 O -1.218988 3.533309 3.892170 0
M  V30 19 N -0.794926 1.325895 3.714292 0
M  V30 20 C -1.082427 1.088877 5.102511 0
M  V30 21 C -0.504257 -0.044335 5.848035 0
M  V30 22 C -1.927553 -0.170312 5.395082 0
M  V30 23 C -0.224588 1.968123 0.809511 0
M  V30 24 C 0.003815 2.407924 -0.472333 0
M  V30 25 C -0.134582 -0.807645 -1.978953 0
M  V30 26 C -0.103015 -2.185068 -1.931907 0
M  V30 27 C 0.577114 -5.068734 -2.076565 0
M  V30 28 N 0.660707 -6.373308 -1.692917 0
M  V30 29 H 1.115797 -7.411868 1.436479 0
M  V30 30 H 1.904884 -8.165673 0.016901 0
M  V30 31 H 0.094063 -8.317270 0.207204 0
M  V30 32 H 1.009509 -4.851424 1.125446 0
M  V30 33 H 2.013971 -2.482525 0.628210 0
M  V30 34 H 1.911952 0.010553 0.472907 0
M  V30 35 H 0.900177 1.134740 -3.451945 0
M  V30 36 H 0.014512 5.133467 -2.498295 0
M  V30 37 H -0.590851 5.680909 -0.287985 0
M  V30 38 H -1.026518 5.061711 2.005929 0
M  V30 39 H -0.507141 0.525805 3.084396 0
M  V30 40 H -1.377493 1.983510 5.661173 0
M  V30 41 H 0.243820 -0.730658 5.437481 0
M  V30 42 H -0.386442 0.101394 6.942035 0
M  V30 43 H -2.070990 -0.886516 4.542768 0
M  V30 44 H -2.763352 -0.081937 6.103246 0
M  V30 45 H -0.133921 0.942525 1.121347 0
M  V30 46 H -0.790153 -0.444745 -2.773636 0
M  V30 47 H -0.664767 -2.837710 -2.606896 0
M  V30 48 H 0.429066 -4.721566 -3.099657 0
M  V30 END ATOM
M  V30 BEGIN BOND
M  V30 1 1 1 2
M  V30 2 1 2 3
M  V30 3 2 3 4
M  V30 4 1 4 5
M  V30 5 2 5 6
M  V30 6 1 6 7
M  V30 7 2 7 8
M  V30 8 1 8 9
M  V30 9 2 9 10
M  V30 10 1 10 11
M  V30 11 2 11 12
M  V30 12 1 12 13
M  V30 13 2 13 14
M  V30 14 1 14 15
M  V30 15 2 15 16
M  V30 16 1 16 17
M  V30 17 2 17 18
M  V30 18 1 17 19
M  V30 19 1 19 20
M  V30 20 1 20 21
M  V30 21 1 21 22
M  V30 22 1 16 23
M  V30 23 2 23 24
M  V30 24 1 8 25
M  V30 25 2 25 26
M  V30 26 1 4 27
M  V30 27 2 27 28
M  V30 28 1 28 2
M  V30 29 1 26 5
M  V30 30 1 24 9
M  V30 31 1 24 13
M  V30 32 1 22 20
M  V30 33 1 1 29
M  V30 34 1 1 30
M  V30 35 1 1 31
M  V30 36 1 3 32
M  V30 37 1 6 33
M  V30 38 1 7 34
M  V30 39 1 10 35
M  V30 40 1 12 36
M  V30 41 1 14 37
M  V30 42 1 15 38
M  V30 43 1 19 39
M  V30 44 1 20 40
M  V30 45 1 21 41
M  V30 46 1 21 42
M  V30 47 1 22 43
M  V30 48 1 22 44
M  V30 49 1 23 45
M  V30 50 1 25 46
M  V30 51 1 26 47
M  V30 52 1 27 48
M  V30 END BOND
M  V30 END CTAB
M  END
>  <Dataset>  (5) 
ChEMBL_Kinases

>  <Ligand_Instance>  (5) 
nan

>  <PDB_ID>  (5) 
nan

>  <Standardized_SMILES>  (5) 
Cn1cc(-c2ccc(-c3cncc4ccc(C(=O)NC5CC5)cc34)cc2)cn1

>  <Name>  (5) 
nan

>  <Pocket>  (5) 
nan

>  <ATP_Site>  (5) 
nan

>  <Peripheral>  (5) 
nan

>  <Num_H_Atoms_ProtBoundConf>  (5) 
nan

>  <Num_Resolved_Atoms>  (5) 
nan

>  <Num_Not_Resolved_Atoms>  (5) 
nan

$$$$
CHEMBL3827240
     RDKit          3D

  0  0  0  0  0  0  0  0  0  0999 V3000
M  V30 BEGIN CTAB
M  V30 COUNTS 45 48 0 0 0
M  V30 BEGIN ATOM
M  V30 1 C -3.414601 -7.093605 0.441136 0
M  V30 2 C -2.857931 -5.724893 0.243266 0
M  V30 3 O -2.634404 -5.402431 -1.120317 0
M  V30 4 C -2.110722 -4.125980 -1.366434 0
M  V30 5 C -1.844547 -3.270669 -0.320769 0
M  V30 6 C -1.331678 -2.037946 -0.659566 0
M  V30 7 C -1.059840 -1.575756 -1.923094 0
M  V30 8 N -0.547929 -0.358926 -2.338251 0
M  V30 9 C -0.133430 0.818514 -1.564594 0
M  V30 10 N 0.302379 1.882052 -1.749417 0
M  V30 11 N 0.589876 2.759864 -0.859947 0
M  V30 12 C 0.483489 2.691074 0.281602 0
M  V30 13 C 0.651599 3.349738 1.637339 0
M  V30 14 N 1.956956 3.087038 2.197285 0
M  V30 15 C 3.039438 3.832407 2.020739 0
M  V30 16 C 3.103789 5.078845 1.210696 0
M  V30 17 N 4.090242 3.297889 2.686465 0
M  V30 18 C 3.648260 2.172013 3.305189 0
M  V30 19 C 4.254028 1.211555 4.123121 0
M  V30 20 C 3.507746 0.138418 4.617033 0
M  V30 21 C 2.171132 0.037236 4.289916 0
M  V30 22 C 1.594716 0.996333 3.481595 0
M  V30 23 C 2.310131 2.059471 2.985183 0
M  V30 24 S -0.217538 0.934094 0.314430 0
M  V30 25 C -1.342156 -2.466357 -2.938377 0
M  V30 26 C -1.856274 -3.712632 -2.658685 0
M  V30 27 H -2.763948 -7.635308 1.156755 0
M  V30 28 H -3.421063 -7.620799 -0.535310 0
M  V30 29 H -4.409168 -7.048016 0.933899 0
M  V30 30 H -3.595354 -4.965087 0.636063 0
M  V30 31 H -1.885380 -5.602982 0.748423 0
M  V30 32 H -2.022618 -3.539313 0.702757 0
M  V30 33 H -1.123227 -1.368290 0.158433 0
M  V30 34 H -0.385232 -0.119721 -3.327186 0
M  V30 35 H -0.089264 2.936976 2.371209 0
M  V30 36 H 0.478650 4.431085 1.481380 0
M  V30 37 H 4.154127 5.476099 1.181396 0
M  V30 38 H 2.743834 4.933028 0.162839 0
M  V30 39 H 2.518571 5.905175 1.694323 0
M  V30 40 H 5.309016 1.398215 4.310144 0
M  V30 41 H 4.068653 -0.538902 5.233383 0
M  V30 42 H 1.630300 -0.823360 4.702907 0
M  V30 43 H 0.530719 0.900393 3.231369 0
M  V30 44 H -1.183573 -2.252767 -3.989036 0
M  V30 45 H -2.078942 -4.416776 -3.469147 0
M  V30 END ATOM
M  V30 BEGIN BOND
M  V30 1 1 1 2
M  V30 2 1 2 3
M  V30 3 1 3 4
M  V30 4 2 4 5
M  V30 5 1 5 6
M  V30 6 2 6 7
M  V30 7 1 7 8
M  V30 8 1 8 9
M  V30 9 2 9 10
M  V30 10 1 10 11
M  V30 11 2 11 12
M  V30 12 1 12 13
M  V30 13 1 13 14
M  V30 14 1 14 15
M  V30 15 1 15 16
M  V30 16 2 15 17
M  V30 17 1 17 18
M  V30 18 2 18 19
M  V30 19 1 19 20
M  V30 20 2 20 21
M  V30 21 1 21 22
M  V30 22 2 22 23
M  V30 23 1 12 24
M  V30 24 1 7 25
M  V30 25 2 25 26
M  V30 26 1 26 4
M  V30 27 1 24 9
M  V30 28 1 23 14
M  V30 29 1 23 18
M  V30 30 1 1 27
M  V30 31 1 1 28
M  V30 32 1 1 29
M  V30 33 1 2 30
M  V30 34 1 2 31
M  V30 35 1 5 32
M  V30 36 1 6 33
M  V30 37 1 8 34
M  V30 38 1 13 35
M  V30 39 1 13 36
M  V30 40 1 16 37
M  V30 41 1 16 38
M  V30 42 1 16 39
M  V30 43 1 19 40
M  V30 44 1 20 41
M  V30 45 1 21 42
M  V30 46 1 22 43
M  V30 47 1 25 44
M  V30 48 1 26 45
M  V30 END BOND
M  V30 END CTAB
M  END
>  <Dataset>  (6) 
ChEMBL_Kinases

>  <Ligand_Instance>  (6) 
nan

>  <PDB_ID>  (6) 
nan

>  <Standardized_SMILES>  (6) 
CCOc1ccc(Nc2nnc(Cn3c(C)nc4ccccc43)s2)cc1

>  <Name>  (6) 
nan

>  <Pocket>  (6) 
nan

>  <ATP_Site>  (6) 
nan

>  <Peripheral>  (6) 
nan

>  <Num_H_Atoms_ProtBoundConf>  (6) 
nan

>  <Num_Resolved_Atoms>  (6) 
nan

>  <Num_Not_Resolved_Atoms>  (6) 
nan

$$$$
CHEMBL3827219
     RDKit          3D

  0  0  0  0  0  0  0  0  0  0999 V3000
M  V30 BEGIN CTAB
M  V30 COUNTS 45 47 0 0 0
M  V30 BEGIN ATOM
M  V30 1 C 0.794103 -1.784015 -1.238614 0
M  V30 2 C 2.130377 -2.057232 -0.682949 0
M  V30 3 C 2.382582 -3.248214 -0.002502 0
M  V30 4 C 3.564642 -3.660027 0.550706 0
M  V30 5 C 4.645427 -2.810429 0.427565 0
M  V30 6 C 4.473359 -1.617150 -0.233154 0
M  V30 7 C 3.252247 -1.222902 -0.783972 0
M  V30 8 C 3.053065 0.096146 -1.473474 0
M  V30 9 C 2.358352 0.942814 -0.414931 0
M  V30 10 O 2.473777 -0.047715 0.385226 0
M  V30 11 N 1.819661 2.280314 -0.384274 0
M  V30 12 N 1.347153 2.282155 0.956608 0
M  V30 13 C -0.038059 1.875507 0.947560 0
M  V30 14 O -0.384596 1.652951 -0.232892 0
M  V30 15 C -0.857628 1.763301 2.177279 0
M  V30 16 N -1.593566 0.513642 2.228665 0
M  V30 17 C -1.008830 -0.546510 2.809095 0
M  V30 18 C 0.334602 -0.686608 3.457516 0
M  V30 19 N -1.906745 -1.554751 2.706077 0
M  V30 20 C -3.004395 -1.076329 2.069887 0
M  V30 21 C -4.184804 -1.744340 1.740755 0
M  V30 22 C -5.161616 -1.003609 1.081720 0
M  V30 23 C -4.950584 0.345535 0.772736 0
M  V30 24 C -3.772159 1.006206 1.103208 0
M  V30 25 C -2.827576 0.260839 1.749648 0
M  V30 26 H 0.336209 -0.837260 -0.970575 0
M  V30 27 H 0.762146 -1.954188 -2.340162 0
M  V30 28 H 0.102486 -2.584817 -0.834506 0
M  V30 29 H 1.548927 -3.942126 0.111623 0
M  V30 30 H 3.652621 -4.606700 1.063915 0
M  V30 31 H 5.594419 -3.097739 0.847307 0
M  V30 32 H 5.320853 -0.947883 -0.332302 0
M  V30 33 H 2.395786 0.020111 -2.345873 0
M  V30 34 H 4.018031 0.532852 -1.731047 0
M  V30 35 H 2.050684 2.516408 -1.334775 0
M  V30 36 H 1.857560 2.521463 1.810270 0
M  V30 37 H -0.315605 1.944678 3.084603 0
M  V30 38 H -1.651105 2.564482 2.049268 0
M  V30 39 H 0.808730 0.308547 3.438765 0
M  V30 40 H 0.923842 -1.491907 3.004759 0
M  V30 41 H 0.207131 -0.954091 4.544825 0
M  V30 42 H -4.305804 -2.785202 1.995455 0
M  V30 43 H -6.112662 -1.478932 0.793996 0
M  V30 44 H -5.736933 0.907027 0.254119 0
M  V30 45 H -3.567273 2.032696 0.892990 0
M  V30 END ATOM
M  V30 BEGIN BOND
M  V30 1 1 1 2
M  V30 2 2 2 3
M  V30 3 1 3 4
M  V30 4 2 4 5
M  V30 5 1 5 6
M  V30 6 2 6 7
M  V30 7 1 7 8
M  V30 8 1 8 9
M  V30 9 2 9 10
M  V30 10 1 9 11
M  V30 11 1 11 12
M  V30 12 1 12 13
M  V30 13 2 13 14
M  V30 14 1 13 15
M  V30 15 1 15 16
M  V30 16 1 16 17
M  V30 17 1 17 18
M  V30 18 2 17 19
M  V30 19 1 19 20
M  V30 20 2 20 21
M  V30 21 1 21 22
M  V30 22 2 22 23
M  V30 23 1 23 24
M  V30 24 2 24 25
M  V30 25 1 7 2
M  V30 26 1 25 16
M  V30 27 1 25 20
M  V30 28 1 1 26
M  V30 29 1 1 27
M  V30 30 1 1 28
M  V30 31 1 3 29
M  V30 32 1 4 30
M  V30 33 1 5 31
M  V30 34 1 6 32
M  V30 35 1 8 33
M  V30 36 1 8 34
M  V30 37 1 11 35
M  V30 38 1 12 36
M  V30 39 1 15 37
M  V30 40 1 15 38
M  V30 41 1 18 39
M  V30 42 1 18 40
M  V30 43 1 18 41
M  V30 44 1 21 42
M  V30 45 1 22 43
M  V30 46 1 23 44
M  V30 47 1 24 45
M  V30 END BOND
M  V30 END CTAB
M  END
>  <Dataset>  (7) 
ChEMBL_Kinases

>  <Ligand_Instance>  (7) 
nan

>  <PDB_ID>  (7) 
nan

>  <Standardized_SMILES>  (7) 
Cc1ccccc1CC(=O)NNC(=O)Cn1c(C)nc2ccccc21

>  <Name>  (7) 
nan

>  <Pocket>  (7) 
nan

>  <ATP_Site>  (7) 
nan

>  <Peripheral>  (7) 
nan

>  <Num_H_Atoms_ProtBoundConf>  (7) 
nan

>  <Num_Resolved_Atoms>  (7) 
nan

>  <Num_Not_Resolved_Atoms>  (7) 
nan

$$$$
CHEMBL3827150
     RDKit          3D

  0  0  0  0  0  0  0  0  0  0999 V3000
M  V30 BEGIN CTAB
M  V30 COUNTS 42 46 0 0 0
M  V30 BEGIN ATOM
M  V30 1 C -1.955495 -6.494462 1.616242 0
M  V30 2 N -0.835468 -5.875370 0.913313 0
M  V30 3 C -0.590850 -4.538291 0.837103 0
M  V30 4 C 0.565154 -4.324134 0.083945 0
M  V30 5 C 1.033440 -2.954409 -0.138599 0
M  V30 6 C 0.108144 -1.938700 -0.223203 0
M  V30 7 C 0.501245 -0.623183 -0.433243 0
M  V30 8 C 1.842861 -0.283443 -0.565783 0
M  V30 9 C 2.173262 1.124033 -0.783520 0
M  V30 10 C 3.095467 1.532516 -1.747807 0
M  V30 11 N 3.368534 2.854053 -1.912275 0
M  V30 12 C 2.781265 3.817857 -1.174826 0
M  V30 13 C 1.859496 3.482404 -0.203668 0
M  V30 14 C 1.216151 4.410421 0.592040 0
M  V30 15 C 0.294054 4.018517 1.558783 0
M  V30 16 C 0.085977 2.656861 1.648421 0
M  V30 17 C -0.880996 2.171330 2.655369 0
M  V30 18 N -1.228601 0.901417 2.905630 0
M  V30 19 C -2.145541 0.920758 3.909220 0
M  V30 20 C -2.335402 2.232174 4.250355 0
M  V30 21 O -1.546849 2.958754 3.462989 0
M  V30 22 N 0.705065 1.733256 0.879531 0
M  V30 23 C 1.581522 2.141076 -0.035770 0
M  V30 24 C 2.767856 -1.308726 -0.479840 0
M  V30 25 C 2.372441 -2.618931 -0.270385 0
M  V30 26 C 0.997172 -5.583936 -0.283773 0
M  V30 27 N 0.135224 -6.480647 0.230339 0
M  V30 28 H -1.640738 -6.636529 2.667433 0
M  V30 29 H -2.233626 -7.462822 1.173098 0
M  V30 30 H -2.790428 -5.751681 1.637581 0
M  V30 31 H -1.237268 -3.816792 1.312435 0
M  V30 32 H -0.947075 -2.209917 -0.118375 0
M  V30 33 H -0.331414 0.081177 -0.480251 0
M  V30 34 H 3.590455 0.781705 -2.363000 0
M  V30 35 H 2.991883 4.871275 -1.298410 0
M  V30 36 H 1.434686 5.462286 0.459568 0
M  V30 37 H -0.221606 4.726472 2.193230 0
M  V30 38 H -2.491991 -0.080055 4.185599 0
M  V30 39 H -3.038890 2.434975 5.039513 0
M  V30 40 H 3.816172 -1.038914 -0.583997 0
M  V30 41 H 3.118353 -3.405163 -0.206855 0
M  V30 42 H 1.881251 -5.679759 -0.876445 0
M  V30 END ATOM
M  V30 BEGIN BOND
M  V30 1 1 1 2
M  V30 2 1 2 3
M  V30 3 2 3 4
M  V30 4 1 4 5
M  V30 5 2 5 6
M  V30 6 1 6 7
M  V30 7 2 7 8
M  V30 8 1 8 9
M  V30 9 2 9 10
M  V30 10 1 10 11
M  V30 11 2 11 12
M  V30 12 1 12 13
M  V30 13 2 13 14
M  V30 14 1 14 15
M  V30 15 2 15 16
M  V30 16 1 16 17
M  V30 17 2 17 18
M  V30 18 1 18 19
M  V30 19 2 19 20
M  V30 20 1 20 21
M  V30 21 1 16 22
M  V30 22 2 22 23
M  V30 23 1 8 24
M  V30 24 2 24 25
M  V30 25 1 4 26
M  V30 26 2 26 27
M  V30 27 1 27 2
M  V30 28 1 25 5
M  V30 29 1 23 9
M  V30 30 1 23 13
M  V30 31 1 21 17
M  V30 32 1 1 28
M  V30 33 1 1 29
M  V30 34 1 1 30
M  V30 35 1 3 31
M  V30 36 1 6 32
M  V30 37 1 7 33
M  V30 38 1 10 34
M  V30 39 1 12 35
M  V30 40 1 14 36
M  V30 41 1 15 37
M  V30 42 1 19 38
M  V30 43 1 20 39
M  V30 44 1 24 40
M  V30 45 1 25 41
M  V30 46 1 26 42
M  V30 END BOND
M  V30 END CTAB
M  END
>  <Dataset>  (8) 
ChEMBL_Kinases

>  <Ligand_Instance>  (8) 
nan

>  <PDB_ID>  (8) 
nan

>  <Standardized_SMILES>  (8) 
Cn1cc(-c2ccc(-c3cncc4ccc(-c5ncco5)nc34)cc2)cn1

>  <Name>  (8) 
nan

>  <Pocket>  (8) 
nan

>  <ATP_Site>  (8) 
nan

>  <Peripheral>  (8) 
nan

>  <Num_H_Atoms_ProtBoundConf>  (8) 
nan

>  <Num_Resolved_Atoms>  (8) 
nan

>  <Num_Not_Resolved_Atoms>  (8) 
nan

$$$$
CHEMBL3823297
     RDKit          3D

  0  0  0  0  0  0  0  0  0  0999 V3000
M  V30 BEGIN CTAB
M  V30 COUNTS 58 62 0 0 0
M  V30 BEGIN ATOM
M  V30 1 C 2.398610 -1.625120 5.008318 0
M  V30 2 O 1.253350 -1.886612 4.242862 0
M  V30 3 C 1.085989 -1.299225 3.003598 0
M  V30 4 C 2.008688 -0.437551 2.449370 0
M  V30 5 C 1.834120 0.143375 1.215612 0
M  V30 6 N 2.777869 1.038149 0.642786 0
M  V30 7 C 3.868786 1.675044 1.359722 0
M  V30 8 C 3.811909 3.179133 1.225401 0
M  V30 9 N 2.708999 3.613878 0.377439 0
M  V30 10 C 2.023263 4.826159 0.690248 0
M  V30 11 C 0.895275 5.309623 -0.139768 0
M  V30 12 O 2.317711 5.556479 1.669408 0
M  V30 13 C 2.267064 2.864653 -0.786609 0
M  V30 14 C 2.801658 1.441832 -0.744833 0
M  V30 15 C 0.684278 -0.139314 0.483304 0
M  V30 16 C -0.224964 -1.016836 1.080733 0
M  V30 17 C -0.090620 -1.621509 2.313026 0
M  V30 18 N -1.096845 -2.511180 2.786844 0
M  V30 19 C -2.275116 -2.728199 2.027457 0
M  V30 20 N -3.297965 -1.972700 2.501276 0
M  V30 21 C -4.534801 -2.004778 1.932102 0
M  V30 22 C -4.771762 -2.817138 0.848557 0
M  V30 23 Cl -6.358650 -2.886332 0.084948 0
M  V30 24 C -3.725794 -3.578157 0.377337 0
M  V30 25 C -3.891687 -4.454120 -0.775412 0
M  V30 26 C -4.753854 -5.503097 -1.117000 0
M  V30 27 N -4.389934 -5.911018 -2.346093 0
M  V30 28 N -3.364241 -5.185822 -2.783546 0
M  V30 29 C -2.716815 -5.284878 -3.963758 0
M  V30 30 C -1.663319 -4.446802 -4.267728 0
M  V30 31 C -1.264750 -3.492354 -3.352077 0
M  V30 32 C -1.956548 -3.429778 -2.161247 0
M  V30 33 C -3.009343 -4.259807 -1.844768 0
M  V30 34 N -2.515161 -3.530810 0.954521 0
M  V30 35 H 2.452365 -0.608323 5.399976 0
M  V30 36 H 3.288562 -1.775762 4.359946 0
M  V30 37 H 2.444998 -2.338429 5.868259 0
M  V30 38 H 2.877400 -0.251608 3.047496 0
M  V30 39 H 3.919196 1.354197 2.416507 0
M  V30 40 H 4.822634 1.355554 0.886542 0
M  V30 41 H 3.605601 3.585662 2.236763 0
M  V30 42 H 4.736559 3.619509 0.840535 0
M  V30 43 H -0.026918 4.807553 0.271680 0
M  V30 44 H 0.973734 4.976969 -1.192421 0
M  V30 45 H 0.780453 6.388000 -0.099015 0
M  V30 46 H 2.609519 3.422059 -1.686637 0
M  V30 47 H 1.162008 2.778209 -0.844571 0
M  V30 48 H 3.850506 1.424796 -1.121460 0
M  V30 49 H 2.153818 0.755772 -1.322499 0
M  V30 50 H 0.413318 0.241171 -0.485619 0
M  V30 51 H -1.146599 -1.263078 0.530775 0
M  V30 52 H -0.933125 -2.989726 3.703519 0
M  V30 53 H -5.366470 -1.403352 2.303193 0
M  V30 54 H -5.505108 -5.784902 -0.393567 0
M  V30 55 H -2.988043 -6.017419 -4.723409 0
M  V30 56 H -1.080962 -4.448174 -5.187972 0
M  V30 57 H -0.464040 -2.797853 -3.491303 0
M  V30 58 H -1.670195 -2.693864 -1.421480 0
M  V30 END ATOM
M  V30 BEGIN BOND
M  V30 1 1 1 2
M  V30 2 1 2 3
M  V30 3 2 3 4
M  V30 4 1 4 5
M  V30 5 1 5 6
M  V30 6 1 6 7
M  V30 7 1 7 8
M  V30 8 1 8 9
M  V30 9 1 9 10
M  V30 10 1 10 11
M  V30 11 2 10 12
M  V30 12 1 9 13
M  V30 13 1 13 14
M  V30 14 2 5 15
M  V30 15 1 15 16
M  V30 16 2 16 17
M  V30 17 1 17 18
M  V30 18 1 18 19
M  V30 19 2 19 20
M  V30 20 1 20 21
M  V30 21 2 21 22
M  V30 22 1 22 23
M  V30 23 1 22 24
M  V30 24 1 24 25
M  V30 25 1 25 26
M  V30 26 2 26 27
M  V30 27 1 27 28
M  V30 28 1 28 29
M  V30 29 2 29 30
M  V30 30 1 30 31
M  V30 31 2 31 32
M  V30 32 1 32 33
M  V30 33 2 24 34
M  V30 34 1 17 3
M  V30 35 1 34 19
M  V30 36 1 14 6
M  V30 37 2 33 25
M  V30 38 1 33 28
M  V30 39 1 1 35
M  V30 40 1 1 36
M  V30 41 1 1 37
M  V30 42 1 4 38
M  V30 43 1 7 39
M  V30 44 1 7 40
M  V30 45 1 8 41
M  V30 46 1 8 42
M  V30 47 1 11 43
M  V30 48 1 11 44
M  V30 49 1 11 45
M  V30 50 1 13 46
M  V30 51 1 13 47
M  V30 52 1 14 48
M  V30 53 1 14 49
M  V30 54 1 15 50
M  V30 55 1 16 51
M  V30 56 1 18 52
M  V30 57 1 21 53
M  V30 58 1 26 54
M  V30 59 1 29 55
M  V30 60 1 30 56
M  V30 61 1 31 57
M  V30 62 1 32 58
M  V30 END BOND
M  V30 END CTAB
M  END
>  <Dataset>  (9) 
ChEMBL_Kinases

>  <Ligand_Instance>  (9) 
nan

>  <PDB_ID>  (9) 
nan

>  <Standardized_SMILES>  (9) 
COc1cc(N2CCN(C(C)=O)CC2)ccc1Nc1ncc(Cl)c(-c2cnn3ccccc23)n1

>  <Name>  (9) 
nan

>  <Pocket>  (9) 
nan

>  <ATP_Site>  (9) 
nan

>  <Peripheral>  (9) 
nan

>  <Num_H_Atoms_ProtBoundConf>  (9) 
nan

>  <Num_Resolved_Atoms>  (9) 
nan

>  <Num_Not_Resolved_Atoms>  (9) 
nan

$$$$
CHEMBL3827053
     RDKit          3D

  0  0  0  0  0  0  0  0  0  0999 V3000
M  V30 BEGIN CTAB
M  V30 COUNTS 47 51 0 0 0
M  V30 BEGIN ATOM
M  V30 1 C -1.555500 -3.340471 6.306822 0
M  V30 2 N -0.542447 -2.366931 5.921709 0
M  V30 3 C -0.340487 -1.939236 4.663945 0
M  V30 4 C 0.698305 -1.003487 4.588929 0
M  V30 5 C 1.155527 -0.351296 3.366830 0
M  V30 6 C 1.678840 0.928141 3.358796 0
M  V30 7 C 2.074667 1.429388 2.126966 0
M  V30 8 C 1.960268 0.701375 0.948807 0
M  V30 9 C 2.394838 1.276948 -0.330901 0
M  V30 10 C 3.622271 1.903910 -0.298324 0
M  V30 11 N 4.016910 2.436419 -1.494468 0
M  V30 12 C 3.237473 2.330024 -2.579447 0
M  V30 13 C 2.012196 1.709040 -2.629969 0
M  V30 14 C 1.229481 1.613791 -3.760476 0
M  V30 15 C -0.012786 0.961748 -3.730345 0
M  V30 16 C -0.384427 0.429129 -2.488596 0
M  V30 17 C -1.676083 -0.232540 -2.550730 0
M  V30 18 O -2.504881 0.001257 -3.452209 0
M  V30 19 N -2.232323 -1.211776 -1.670595 0
M  V30 20 C -3.495906 -1.863087 -1.734203 0
M  V30 21 C -3.306135 -2.424414 -0.359948 0
M  V30 22 F -3.363499 -3.814264 -0.283964 0
M  V30 23 F -4.020224 -1.804616 0.641500 0
M  V30 24 C -1.887413 -1.932381 -0.476914 0
M  V30 25 N 0.376852 0.523722 -1.394240 0
M  V30 26 C 1.565132 1.147560 -1.425194 0
M  V30 27 C 1.435495 -0.578073 0.968152 0
M  V30 28 C 1.039879 -1.081836 2.194143 0
M  V30 29 C 1.097368 -0.916328 5.932592 0
M  V30 30 N 0.331453 -1.743892 6.682404 0
M  V30 31 H -2.312152 -3.461315 5.496442 0
M  V30 32 H -1.093278 -4.277214 6.642053 0
M  V30 33 H -2.099528 -2.888682 7.175716 0
M  V30 34 H -0.898857 -2.258213 3.779076 0
M  V30 35 H 1.751196 1.462751 4.289461 0
M  V30 36 H 2.483060 2.432199 2.132403 0
M  V30 37 H 4.214015 1.962590 0.602284 0
M  V30 38 H 3.581693 2.767789 -3.530112 0
M  V30 39 H 1.619247 2.064983 -4.674494 0
M  V30 40 H -0.577870 0.918386 -4.648519 0
M  V30 41 H -4.366936 -1.186836 -1.866287 0
M  V30 42 H -3.457201 -2.704362 -2.473078 0
M  V30 43 H -1.561238 -1.310702 0.384893 0
M  V30 44 H -1.169357 -2.748922 -0.717945 0
M  V30 45 H 1.328447 -1.175912 0.079770 0
M  V30 46 H 0.628523 -2.082849 2.202781 0
M  V30 47 H 1.915480 -0.245783 6.206079 0
M  V30 END ATOM
M  V30 BEGIN BOND
M  V30 1 1 1 2
M  V30 2 1 2 3
M  V30 3 2 3 4
M  V30 4 1 4 5
M  V30 5 2 5 6
M  V30 6 1 6 7
M  V30 7 2 7 8
M  V30 8 1 8 9
M  V30 9 2 9 10
M  V30 10 1 10 11
M  V30 11 2 11 12
M  V30 12 1 12 13
M  V30 13 2 13 14
M  V30 14 1 14 15
M  V30 15 2 15 16
M  V30 16 1 16 17
M  V30 17 2 17 18
M  V30 18 1 17 19
M  V30 19 1 19 20
M  V30 20 1 20 21
M  V30 21 1 21 22
M  V30 22 1 21 23
M  V30 23 1 21 24
M  V30 24 1 16 25
M  V30 25 2 25 26
M  V30 26 1 8 27
M  V30 27 2 27 28
M  V30 28 1 4 29
M  V30 29 2 29 30
M  V30 30 1 30 2
M  V30 31 1 28 5
M  V30 32 1 26 9
M  V30 33 1 26 13
M  V30 34 1 24 19
M  V30 35 1 1 31
M  V30 36 1 1 32
M  V30 37 1 1 33
M  V30 38 1 3 34
M  V30 39 1 6 35
M  V30 40 1 7 36
M  V30 41 1 10 37
M  V30 42 1 12 38
M  V30 43 1 14 39
M  V30 44 1 15 40
M  V30 45 1 20 41
M  V30 46 1 20 42
M  V30 47 1 24 43
M  V30 48 1 24 44
M  V30 49 1 27 45
M  V30 50 1 28 46
M  V30 51 1 29 47
M  V30 END BOND
M  V30 END CTAB
M  END
>  <Dataset>  (10) 
ChEMBL_Kinases

>  <Ligand_Instance>  (10) 
nan

>  <PDB_ID>  (10) 
nan

>  <Standardized_SMILES>  (10) 
Cn1cc(-c2ccc(-c3cncc4ccc(C(=O)N5CC(F)(F)C5)nc34)cc2)cn1

>  <Name>  (10) 
nan

>  <Pocket>  (10) 
nan

>  <ATP_Site>  (10) 
nan

>  <Peripheral>  (10) 
nan

>  <Num_H_Atoms_ProtBoundConf>  (10) 
nan

>  <Num_Resolved_Atoms>  (10) 
nan

>  <Num_Not_Resolved_Atoms>  (10) 
nan

$$$$
CHEMBL3827023
     RDKit          3D

  0  0  0  0  0  0  0  0  0  0999 V3000
M  V30 BEGIN CTAB
M  V30 COUNTS 56 60 0 0 0
M  V30 BEGIN ATOM
M  V30 1 C 3.780005 -0.043489 4.453011 0
M  V30 2 O 3.335833 -1.323847 4.272755 0
M  V30 3 C 2.739628 -1.594815 3.063120 0
M  V30 4 C 2.305601 -3.051754 3.027636 0
M  V30 5 C 3.458013 -1.214829 1.831123 0
M  V30 6 N 2.467764 -0.206085 1.560327 0
M  V30 7 C 2.574579 0.789867 0.541008 0
M  V30 8 O 3.619024 0.771505 -0.164723 0
M  V30 9 C 1.647570 1.852826 0.173284 0
M  V30 10 C 1.900715 3.208238 0.165463 0
M  V30 11 C 0.894338 4.047319 -0.214851 0
M  V30 12 C -0.316751 3.513742 -0.570372 0
M  V30 13 C -1.377081 4.298637 -0.964127 0
M  V30 14 N -1.151122 5.700142 -0.983319 0
M  V30 15 N -2.573354 3.851594 -1.320456 0
M  V30 16 C -2.816676 2.515701 -1.310772 0
M  V30 17 C -1.821336 1.631274 -0.931361 0
M  V30 18 C -2.050296 0.189415 -0.910207 0
M  V30 19 C -2.682501 -0.550329 -1.909361 0
M  V30 20 C -2.822130 -1.912275 -1.739888 0
M  V30 21 C -2.364785 -2.579378 -0.625823 0
M  V30 22 C -2.554611 -4.026489 -0.527655 0
M  V30 23 C -2.742361 -4.837353 0.585211 0
M  V30 24 N -2.868649 -6.115914 0.136510 0
M  V30 25 N -2.765759 -6.111774 -1.194203 0
M  V30 26 C -2.846036 -7.285094 -2.068859 0
M  V30 27 C -2.573104 -4.859663 -1.650358 0
M  V30 28 C -1.739627 -1.828872 0.356367 0
M  V30 29 C -1.575104 -0.459472 0.233089 0
M  V30 30 C -0.577924 2.142276 -0.564056 0
M  V30 31 N 0.442037 1.323155 -0.180892 0
M  V30 32 C 1.639268 -0.718604 2.618131 0
M  V30 33 H 4.540555 0.236255 3.695585 0
M  V30 34 H 3.013368 0.727017 4.452623 0
M  V30 35 H 4.257757 0.018422 5.474230 0
M  V30 36 H 2.428652 -3.461643 1.993453 0
M  V30 37 H 1.220105 -3.108234 3.298881 0
M  V30 38 H 2.889192 -3.643480 3.749519 0
M  V30 39 H 3.466075 -2.019766 1.058547 0
M  V30 40 H 4.485202 -0.807264 1.945624 0
M  V30 41 H 2.891762 3.501657 0.465298 0
M  V30 42 H 1.075414 5.112742 -0.226347 0
M  V30 43 H -0.532806 6.345080 -0.445007 0
M  V30 44 H -1.414135 6.589537 -1.427454 0
M  V30 45 H -3.778438 2.093644 -1.592459 0
M  V30 46 H -3.023986 0.018053 -2.764972 0
M  V30 47 H -3.324027 -2.443059 -2.550405 0
M  V30 48 H -2.770578 -4.448237 1.589821 0
M  V30 49 H -2.963834 -8.200283 -1.485336 0
M  V30 50 H -3.651544 -7.072068 -2.795039 0
M  V30 51 H -1.889933 -7.264039 -2.663815 0
M  V30 52 H -2.453347 -4.531251 -2.670226 0
M  V30 53 H -1.386489 -2.391816 1.231549 0
M  V30 54 H -1.071533 -0.017351 1.075160 0
M  V30 55 H 1.310066 0.085127 3.304427 0
M  V30 56 H 0.720844 -1.240561 2.223437 0
M  V30 END ATOM
M  V30 BEGIN BOND
M  V30 1 1 1 2
M  V30 2 1 2 3
M  V30 3 1 3 4
M  V30 4 1 3 5
M  V30 5 1 5 6
M  V30 6 1 6 7
M  V30 7 2 7 8
M  V30 8 1 7 9
M  V30 9 2 9 10
M  V30 10 1 10 11
M  V30 11 2 11 12
M  V30 12 1 12 13
M  V30 13 1 13 14
M  V30 14 2 13 15
M  V30 15 1 15 16
M  V30 16 2 16 17
M  V30 17 1 17 18
M  V30 18 2 18 19
M  V30 19 1 19 20
M  V30 20 2 20 21
M  V30 21 1 21 22
M  V30 22 1 22 23
M  V30 23 2 23 24
M  V30 24 1 24 25
M  V30 25 1 25 26
M  V30 26 1 25 27
M  V30 27 1 21 28
M  V30 28 2 28 29
M  V30 29 1 17 30
M  V30 30 2 30 31
M  V30 31 1 6 32
M  V30 32 1 32 3
M  V30 33 1 31 9
M  V30 34 1 30 12
M  V30 35 1 29 18
M  V30 36 2 27 22
M  V30 37 1 1 33
M  V30 38 1 1 34
M  V30 39 1 1 35
M  V30 40 1 4 36
M  V30 41 1 4 37
M  V30 42 1 4 38
M  V30 43 1 5 39
M  V30 44 1 5 40
M  V30 45 1 10 41
M  V30 46 1 11 42
M  V30 47 1 14 43
M  V30 48 1 14 44
M  V30 49 1 16 45
M  V30 50 1 19 46
M  V30 51 1 20 47
M  V30 52 1 23 48
M  V30 53 1 26 49
M  V30 54 1 26 50
M  V30 55 1 26 51
M  V30 56 1 27 52
M  V30 57 1 28 53
M  V30 58 1 29 54
M  V30 59 1 32 55
M  V30 60 1 32 56
M  V30 END BOND
M  V30 END CTAB
M  END
>  <Dataset>  (11) 
ChEMBL_Kinases

>  <Ligand_Instance>  (11) 
nan

>  <PDB_ID>  (11) 
nan

>  <Standardized_SMILES>  (11) 
COC1(C)CN(C(=O)c2ccc3c(N)ncc(-c4ccc(-c5cnn(C)c5)cc4)c3n2)C1

>  <Name>  (11) 
nan

>  <Pocket>  (11) 
nan

>  <ATP_Site>  (11) 
nan

>  <Peripheral>  (11) 
nan

>  <Num_H_Atoms_ProtBoundConf>  (11) 
nan

>  <Num_Resolved_Atoms>  (11) 
nan

>  <Num_Not_Resolved_Atoms>  (11) 
nan

$$$$
CHEMBL382667
     RDKit          3D

  0  0  0  0  0  0  0  0  0  0999 V3000
M  V30 BEGIN CTAB
M  V30 COUNTS 67 71 0 0 0
M  V30 BEGIN ATOM
M  V30 1 C 2.311805 -2.008758 3.068880 0
M  V30 2 O 0.990130 -2.297181 3.336604 0
M  V30 3 C 0.106826 -2.959335 2.516241 0
M  V30 4 C 0.680569 -3.346528 1.305128 0
M  V30 5 C -0.084693 -4.021821 0.378824 0
M  V30 6 C 0.344712 -4.467614 -0.852098 0
M  V30 7 N 1.715041 -4.192051 -1.203289 0
M  V30 8 C 1.904126 -2.987713 -1.953599 0
M  V30 9 C 0.825755 -2.197137 -2.294506 0
M  V30 10 N 0.956870 -1.058962 -3.004128 0
M  V30 11 C 2.153048 -0.640566 -3.414252 0
M  V30 12 N 2.262577 0.567984 -4.167182 0
M  V30 13 C 3.448269 1.129251 -4.663884 0
M  V30 14 O 4.490256 0.451531 -4.380970 0
M  V30 15 C 3.540425 2.349104 -5.425417 0
M  V30 16 C 2.469514 3.134430 -5.773313 0
M  V30 17 C 2.549886 4.303292 -6.501871 0
M  V30 18 C 3.826891 4.683299 -6.896089 0
M  V30 19 F 3.952151 5.840674 -7.622926 0
M  V30 20 C 4.968652 3.955422 -6.592615 0
M  V30 21 Cl 6.561845 4.462031 -7.103919 0
M  V30 22 C 4.774954 2.790374 -5.852086 0
M  V30 23 N 3.232434 -1.376371 -3.106480 0
M  V30 24 C 3.131773 -2.533179 -2.389325 0
M  V30 25 N -0.448030 -5.126067 -1.715948 0
M  V30 26 C -1.749112 -5.380969 -1.386061 0
M  V30 27 N -2.192109 -4.952993 -0.184042 0
M  V30 28 C -1.402586 -4.303709 0.662863 0
M  V30 29 C -1.941091 -3.908673 1.867295 0
M  V30 30 C -1.230654 -3.232056 2.832389 0
M  V30 31 O -1.528060 -2.743906 4.068379 0
M  V30 32 C -2.732667 -2.789974 4.730062 0
M  V30 33 C -3.902054 -2.107716 4.147369 0
M  V30 34 C -3.855805 -0.648135 3.919111 0
M  V30 35 N -3.703148 0.224550 5.033830 0
M  V30 36 C -2.422038 0.178550 5.634179 0
M  V30 37 C -1.900822 1.580217 5.973648 0
M  V30 38 O -2.970127 2.239232 6.607901 0
M  V30 39 C -3.820147 2.636596 5.582075 0
M  V30 40 C -4.117668 1.550166 4.611208 0
M  V30 41 H 2.844674 -2.886487 2.700587 0
M  V30 42 H 2.833694 -1.712571 4.025152 0
M  V30 43 H 2.357382 -1.144083 2.357410 0
M  V30 44 H 1.706596 -3.152761 1.029595 0
M  V30 45 H 2.526737 -4.776171 -0.960736 0
M  V30 46 H -0.188080 -2.463324 -2.000610 0
M  V30 47 H 1.412595 1.113779 -4.393141 0
M  V30 48 H 1.475830 2.841235 -5.466986 0
M  V30 49 H 1.672775 4.895355 -6.756264 0
M  V30 50 H 5.680054 2.234015 -5.624486 0
M  V30 51 H 4.005426 -3.123702 -2.143527 0
M  V30 52 H -2.442513 -5.899964 -2.021586 0
M  V30 53 H -2.942026 -4.107101 2.137913 0
M  V30 54 H -3.037521 -3.900538 4.791670 0
M  V30 55 H -2.638037 -2.522824 5.803719 0
M  V30 56 H -4.315805 -2.574060 3.207748 0
M  V30 57 H -4.750919 -2.266331 4.906894 0
M  V30 58 H -2.962498 -0.460798 3.260996 0
M  V30 59 H -4.709686 -0.288284 3.278950 0
M  V30 60 H -2.470895 -0.356373 6.607392 0
M  V30 61 H -1.682268 -0.225774 4.920772 0
M  V30 62 H -1.695722 2.122346 5.029730 0
M  V30 63 H -1.006753 1.529188 6.608005 0
M  V30 64 H -4.736464 3.128207 5.980089 0
M  V30 65 H -3.250458 3.428944 5.017595 0
M  V30 66 H -5.212192 1.541892 4.419896 0
M  V30 67 H -3.660861 1.730681 3.596011 0
M  V30 END ATOM
M  V30 BEGIN BOND
M  V30 1 1 1 2
M  V30 2 1 2 3
M  V30 3 2 3 4
M  V30 4 1 4 5
M  V30 5 2 5 6
M  V30 6 1 6 7
M  V30 7 1 7 8
M  V30 8 2 8 9
M  V30 9 1 9 10
M  V30 10 2 10 11
M  V30 11 1 11 12
M  V30 12 1 12 13
M  V30 13 2 13 14
M  V30 14 1 13 15
M  V30 15 2 15 16
M  V30 16 1 16 17
M  V30 17 2 17 18
M  V30 18 1 18 19
M  V30 19 1 18 20
M  V30 20 1 20 21
M  V30 21 2 20 22
M  V30 22 1 11 23
M  V30 23 2 23 24
M  V30 24 1 6 25
M  V30 25 2 25 26
M  V30 26 1 26 27
M  V30 27 2 27 28
M  V30 28 1 28 29
M  V30 29 2 29 30
M  V30 30 1 30 31
M  V30 31 1 31 32
M  V30 32 1 32 33
M  V30 33 1 33 34
M  V30 34 1 34 35
M  V30 35 1 35 36
M  V30 36 1 36 37
M  V30 37 1 37 38
M  V30 38 1 38 39
M  V30 39 1 39 40
M  V30 40 1 30 3
M  V30 41 1 40 35
M  V30 42 1 28 5
M  V30 43 1 24 8
M  V30 44 1 22 15
M  V30 45 1 1 41
M  V30 46 1 1 42
M  V30 47 1 1 43
M  V30 48 1 4 44
M  V30 49 1 7 45
M  V30 50 1 9 46
M  V30 51 1 12 47
M  V30 52 1 16 48
M  V30 53 1 17 49
M  V30 54 1 22 50
M  V30 55 1 24 51
M  V30 56 1 26 52
M  V30 57 1 29 53
M  V30 58 1 32 54
M  V30 59 1 32 55
M  V30 60 1 33 56
M  V30 61 1 33 57
M  V30 62 1 34 58
M  V30 63 1 34 59
M  V30 64 1 36 60
M  V30 65 1 36 61
M  V30 66 1 37 62
M  V30 67 1 37 63
M  V30 68 1 39 64
M  V30 69 1 39 65
M  V30 70 1 40 66
M  V30 71 1 40 67
M  V30 END BOND
M  V30 END CTAB
M  END
>  <Dataset>  (12) 
ChEMBL_Kinases

>  <Ligand_Instance>  (12) 
nan

>  <PDB_ID>  (12) 
nan

>  <Standardized_SMILES>  (12) 
COc1cc2c(Nc3cnc(NC(=O)c4ccc(F)c(Cl)c4)nc3)ncnc2cc1OCCCN1CCOCC1

>  <Name>  (12) 
nan

>  <Pocket>  (12) 
nan

>  <ATP_Site>  (12) 
nan

>  <Peripheral>  (12) 
nan

>  <Num_H_Atoms_ProtBoundConf>  (12) 
nan

>  <Num_Resolved_Atoms>  (12) 
nan

>  <Num_Not_Resolved_Atoms>  (12) 
nan

$$$$
CHEMBL382653
     RDKit          3D

  0  0  0  0  0  0  0  0  0  0999 V3000
M  V30 BEGIN CTAB
M  V30 COUNTS 49 51 0 0 0
M  V30 BEGIN ATOM
M  V30 1 C -1.872817 -3.429633 1.249490 0
M  V30 2 C -2.142772 -2.456089 2.357887 0
M  V30 3 C -3.529947 -2.800654 2.926533 0
M  V30 4 C -2.064931 -1.025625 1.959678 0
M  V30 5 C -0.730395 -0.655344 1.411804 0
M  V30 6 C -0.529832 0.613241 0.942705 0
M  V30 7 C 0.797788 0.657760 0.500227 0
M  V30 8 C 1.446471 1.824436 -0.077052 0
M  V30 9 C 2.479802 2.562564 0.458059 0
M  V30 10 C 3.046440 3.657431 -0.151038 0
M  V30 11 N 2.541055 4.024584 -1.364742 0
M  V30 12 C 1.535887 3.319365 -1.901525 0
M  V30 13 C 0.931763 2.204596 -1.321057 0
M  V30 14 C 1.366915 -0.580191 0.711110 0
M  V30 15 C 2.715581 -1.054406 0.425996 0
M  V30 16 C 2.663324 -2.056991 -0.550611 0
M  V30 17 C 3.825920 -2.685507 -1.005254 0
M  V30 18 C 5.019510 -2.273049 -0.449077 0
M  V30 19 F 6.183253 -2.860873 -0.864795 0
M  V30 20 C 5.101317 -1.287623 0.514832 0
M  V30 21 C 3.936773 -0.685534 0.943760 0
M  V30 22 N 0.412515 -1.378995 1.273630 0
M  V30 23 N -3.170243 -0.615153 1.183226 0
M  V30 24 C -3.398312 -1.142838 -0.091685 0
M  V30 25 C -4.231054 0.063017 1.839071 0
M  V30 26 H -1.084084 -4.176904 1.597495 0
M  V30 27 H -1.484926 -2.964125 0.317246 0
M  V30 28 H -2.788653 -4.032227 1.076425 0
M  V30 29 H -1.447105 -2.708930 3.197022 0
M  V30 30 H -3.628408 -3.913847 3.009603 0
M  V30 31 H -3.717548 -2.270113 3.878317 0
M  V30 32 H -4.339274 -2.507279 2.227067 0
M  V30 33 H -2.076192 -0.457004 2.967605 0
M  V30 34 H -1.201870 1.473230 0.885039 0
M  V30 35 H 2.839402 2.232688 1.418123 0
M  V30 36 H 3.858813 4.149687 0.384189 0
M  V30 37 H 1.260249 3.748186 -2.861804 0
M  V30 38 H 0.126259 1.750762 -1.897296 0
M  V30 39 H 1.776488 -2.454626 -1.051945 0
M  V30 40 H 3.837250 -3.461217 -1.754963 0
M  V30 41 H 6.012980 -0.936287 0.974572 0
M  V30 42 H 3.838963 0.086275 1.679964 0
M  V30 43 H 0.492510 -2.369659 1.563634 0
M  V30 44 H -2.470698 -1.091825 -0.707740 0
M  V30 45 H -4.242926 -0.621584 -0.618113 0
M  V30 46 H -3.709011 -2.202894 -0.063677 0
M  V30 47 H -5.210515 -0.376277 1.558973 0
M  V30 48 H -4.111728 -0.099950 2.940111 0
M  V30 49 H -4.271086 1.157980 1.604581 0
M  V30 END ATOM
M  V30 BEGIN BOND
M  V30 1 1 1 2
M  V30 2 1 2 3
M  V30 3 1 2 4
M  V30 4 1 4 5
M  V30 5 2 5 6
M  V30 6 1 6 7
M  V30 7 1 7 8
M  V30 8 2 8 9
M  V30 9 1 9 10
M  V30 10 2 10 11
M  V30 11 1 11 12
M  V30 12 2 12 13
M  V30 13 2 7 14
M  V30 14 1 14 15
M  V30 15 2 15 16
M  V30 16 1 16 17
M  V30 17 2 17 18
M  V30 18 1 18 19
M  V30 19 1 18 20
M  V30 20 2 20 21
M  V30 21 1 14 22
M  V30 22 1 4 23
M  V30 23 1 23 24
M  V30 24 1 23 25
M  V30 25 1 22 5
M  V30 26 1 13 8
M  V30 27 1 21 15
M  V30 28 1 1 26
M  V30 29 1 1 27
M  V30 30 1 1 28
M  V30 31 1 2 29
M  V30 32 1 3 30
M  V30 33 1 3 31
M  V30 34 1 3 32
M  V30 35 1 4 33
M  V30 36 1 6 34
M  V30 37 1 9 35
M  V30 38 1 10 36
M  V30 39 1 12 37
M  V30 40 1 13 38
M  V30 41 1 16 39
M  V30 42 1 17 40
M  V30 43 1 20 41
M  V30 44 1 21 42
M  V30 45 1 22 43
M  V30 46 1 24 44
M  V30 47 1 24 45
M  V30 48 1 24 46
M  V30 49 1 25 47
M  V30 50 1 25 48
M  V30 51 1 25 49
M  V30 END BOND
M  V30 END CTAB
M  END
>  <Dataset>  (13) 
ChEMBL_Kinases

>  <Ligand_Instance>  (13) 
nan

>  <PDB_ID>  (13) 
nan

>  <Standardized_SMILES>  (13) 
CC(C)C(c1cc(-c2ccncc2)c(-c2ccc(F)cc2)[nH]1)N(C)C

>  <Name>  (13) 
nan

>  <Pocket>  (13) 
nan

>  <ATP_Site>  (13) 
nan

>  <Peripheral>  (13) 
nan

>  <Num_H_Atoms_ProtBoundConf>  (13) 
nan

>  <Num_Resolved_Atoms>  (13) 
nan

>  <Num_Not_Resolved_Atoms>  (13) 
nan

$$$$
CHEMBL495052
     RDKit          3D

  0  0  0  0  0  0  0  0  0  0999 V3000
M  V30 BEGIN CTAB
M  V30 COUNTS 35 40 0 0 0
M  V30 BEGIN ATOM
M  V30 1 O 3.627177 -1.448613 2.272623 0
M  V30 2 C 2.397174 -1.599820 2.241868 0
M  V30 3 N 1.831001 -2.521113 3.170954 0
M  V30 4 C 0.421695 -2.534686 2.958869 0
M  V30 5 O -0.271564 -3.281836 3.674615 0
M  V30 6 C 0.147893 -1.613356 1.894378 0
M  V30 7 C 1.319863 -1.045095 1.453902 0
M  V30 8 C 1.290404 -0.144943 0.452247 0
M  V30 9 C 2.269557 0.566579 -0.177955 0
M  V30 10 C 3.619954 0.721976 -0.132426 0
M  V30 11 C 4.397324 1.542854 -0.916249 0
M  V30 12 C 3.742017 2.315527 -1.877573 0
M  V30 13 C 2.378010 2.213558 -1.984466 0
M  V30 14 C 1.674272 1.348109 -1.139418 0
M  V30 15 N 0.350835 1.172446 -1.158155 0
M  V30 16 C 0.133913 0.252211 -0.173972 0
M  V30 17 C -1.053327 -0.309807 0.257125 0
M  V30 18 N -2.322643 -0.089657 -0.191266 0
M  V30 19 C -3.089944 -0.887089 0.568217 0
M  V30 20 C -4.481260 -1.017023 0.487878 0
M  V30 21 C -5.131666 -1.880475 1.339321 0
M  V30 22 N -4.374320 -2.579216 2.235237 0
M  V30 23 C -3.044435 -2.405552 2.257243 0
M  V30 24 C -2.308105 -1.581616 1.463411 0
M  V30 25 C -1.002651 -1.224510 1.278318 0
M  V30 26 H 2.357704 -3.102246 3.899433 0
M  V30 27 H 4.170762 0.158830 0.580009 0
M  V30 28 H 5.471927 1.608859 -0.816162 0
M  V30 29 H 4.284816 2.978945 -2.524812 0
M  V30 30 H 1.898688 2.821720 -2.735229 0
M  V30 31 H -0.364165 1.619048 -1.767980 0
M  V30 32 H -2.625892 0.550551 -0.949169 0
M  V30 33 H -5.068797 -0.465543 -0.217579 0
M  V30 34 H -6.202183 -2.025020 1.326870 0
M  V30 35 H -2.549873 -2.985454 2.979184 0
M  V30 END ATOM
M  V30 BEGIN BOND
M  V30 1 2 1 2
M  V30 2 1 2 3
M  V30 3 1 3 4
M  V30 4 2 4 5
M  V30 5 1 4 6
M  V30 6 2 6 7
M  V30 7 1 7 8
M  V30 8 1 8 9
M  V30 9 2 9 10
M  V30 10 1 10 11
M  V30 11 2 11 12
M  V30 12 1 12 13
M  V30 13 2 13 14
M  V30 14 1 14 15
M  V30 15 1 15 16
M  V30 16 1 16 17
M  V30 17 1 17 18
M  V30 18 1 18 19
M  V30 19 2 19 20
M  V30 20 1 20 21
M  V30 21 2 21 22
M  V30 22 1 22 23
M  V30 23 2 23 24
M  V30 24 1 24 25
M  V30 25 1 7 2
M  V30 26 2 16 8
M  V30 27 2 25 17
M  V30 28 1 25 6
M  V30 29 1 14 9
M  V30 30 1 24 19
M  V30 31 1 3 26
M  V30 32 1 10 27
M  V30 33 1 11 28
M  V30 34 1 12 29
M  V30 35 1 13 30
M  V30 36 1 15 31
M  V30 37 1 18 32
M  V30 38 1 20 33
M  V30 39 1 21 34
M  V30 40 1 23 35
M  V30 END BOND
M  V30 END CTAB
M  END
>  <Dataset>  (14) 
ChEMBL_Kinases

>  <Ligand_Instance>  (14) 
nan

>  <PDB_ID>  (14) 
nan

>  <Standardized_SMILES>  (14) 
O=C1NC(=O)c2c1c1c3ccccc3[nH]c1c1[nH]c3ccncc3c21

>  <Name>  (14) 
nan

>  <Pocket>  (14) 
nan

>  <ATP_Site>  (14) 
nan

>  <Peripheral>  (14) 
nan

>  <Num_H_Atoms_ProtBoundConf>  (14) 
nan

>  <Num_Resolved_Atoms>  (14) 
nan

>  <Num_Not_Resolved_Atoms>  (14) 
nan

$$$$
CHEMBL495068
     RDKit          3D

  0  0  0  0  0  0  0  0  0  0999 V3000
M  V30 BEGIN CTAB
M  V30 COUNTS 53 56 0 0 0
M  V30 BEGIN ATOM
M  V30 1 C 2.410104 -0.704460 4.539095 0
M  V30 2 O 2.672438 -0.852008 3.157888 0
M  V30 3 C 3.590137 0.007273 2.577250 0
M  V30 4 C 4.236859 0.983332 3.308856 0
M  V30 5 C 5.160664 1.850989 2.732127 0
M  V30 6 C 5.464357 1.754903 1.368311 0
M  V30 7 C 4.799572 0.770523 0.675279 0
M  V30 8 C 3.883187 -0.100393 1.214662 0
M  V30 9 C 3.165172 -1.170278 0.475522 0
M  V30 10 N 1.773866 -0.814447 0.229594 0
M  V30 11 C 1.419722 0.316108 -0.551041 0
M  V30 12 N 2.376610 1.079562 -1.073346 0
M  V30 13 C 2.085233 2.150892 -1.810706 0
M  V30 14 N 0.809846 2.500358 -2.054467 0
M  V30 15 C -0.214109 1.782816 -1.564041 0
M  V30 16 C -1.526126 2.130054 -1.809176 0
M  V30 17 C -2.562397 1.369692 -1.292123 0
M  V30 18 C -2.254178 0.243780 -0.517086 0
M  V30 19 C -3.406313 -0.498795 -0.015977 0
M  V30 20 C -4.549898 0.222595 0.265484 0
M  V30 21 C -5.619848 -0.532283 0.738855 0
M  V30 22 C -5.502240 -1.897935 0.899696 0
M  V30 23 C -4.314242 -2.575660 0.596855 0
M  V30 24 N -4.279506 -3.971516 0.790997 0
M  V30 25 S -3.634688 -5.125245 -0.292701 0
M  V30 26 C -1.913712 -4.909708 -0.590720 0
M  V30 27 O -3.855862 -6.503957 0.256560 0
M  V30 28 O -4.354040 -5.058681 -1.617624 0
M  V30 29 C -3.226317 -1.841106 0.120267 0
M  V30 30 C -0.925660 -0.060599 -0.301467 0
M  V30 31 C 0.115969 0.681137 -0.805735 0
M  V30 32 H 1.562794 -1.375263 4.809941 0
M  V30 33 H 2.159693 0.317928 4.839807 0
M  V30 34 H 3.297013 -1.034088 5.133451 0
M  V30 35 H 4.043726 1.103587 4.359250 0
M  V30 36 H 5.668794 2.618739 3.308289 0
M  V30 37 H 6.176350 2.414124 0.893553 0
M  V30 38 H 5.029584 0.682576 -0.377120 0
M  V30 39 H 3.702832 -1.370074 -0.479573 0
M  V30 40 H 3.284356 -2.084523 1.073579 0
M  V30 41 H 1.107630 -1.473265 0.684059 0
M  V30 42 H 2.825758 2.806212 -2.259327 0
M  V30 43 H -1.655436 3.015087 -2.417851 0
M  V30 44 H -3.566054 1.717772 -1.535883 0
M  V30 45 H -4.640038 1.275738 0.140652 0
M  V30 46 H -6.569050 -0.051739 0.989224 0
M  V30 47 H -6.356120 -2.468966 1.273130 0
M  V30 48 H -4.707262 -4.282084 1.714695 0
M  V30 49 H -1.469290 -5.907761 -0.788426 0
M  V30 50 H -1.367860 -4.552411 0.330395 0
M  V30 51 H -1.676350 -4.299252 -1.468523 0
M  V30 52 H -2.323965 -2.353015 -0.109911 0
M  V30 53 H -0.765639 -0.940249 0.303106 0
M  V30 END ATOM
M  V30 BEGIN BOND
M  V30 1 1 1 2
M  V30 2 1 2 3
M  V30 3 2 3 4
M  V30 4 1 4 5
M  V30 5 2 5 6
M  V30 6 1 6 7
M  V30 7 2 7 8
M  V30 8 1 8 9
M  V30 9 1 9 10
M  V30 10 1 10 11
M  V30 11 2 11 12
M  V30 12 1 12 13
M  V30 13 2 13 14
M  V30 14 1 14 15
M  V30 15 2 15 16
M  V30 16 1 16 17
M  V30 17 2 17 18
M  V30 18 1 18 19
M  V30 19 2 19 20
M  V30 20 1 20 21
M  V30 21 2 21 22
M  V30 22 1 22 23
M  V30 23 1 23 24
M  V30 24 1 24 25
M  V30 25 1 25 26
M  V30 26 2 25 27
M  V30 27 2 25 28
M  V30 28 2 23 29
M  V30 29 1 18 30
M  V30 30 2 30 31
M  V30 31 1 8 3
M  V30 32 1 31 11
M  V30 33 1 31 15
M  V30 34 1 29 19
M  V30 35 1 1 32
M  V30 36 1 1 33
M  V30 37 1 1 34
M  V30 38 1 4 35
M  V30 39 1 5 36
M  V30 40 1 6 37
M  V30 41 1 7 38
M  V30 42 1 9 39
M  V30 43 1 9 40
M  V30 44 1 10 41
M  V30 45 1 13 42
M  V30 46 1 16 43
M  V30 47 1 17 44
M  V30 48 1 20 45
M  V30 49 1 21 46
M  V30 50 1 22 47
M  V30 51 1 24 48
M  V30 52 1 26 49
M  V30 53 1 26 50
M  V30 54 1 26 51
M  V30 55 1 29 52
M  V30 56 1 30 53
M  V30 END BOND
M  V30 END CTAB
M  END
>  <Dataset>  (15) 
ChEMBL_Kinases

>  <Ligand_Instance>  (15) 
nan

>  <PDB_ID>  (15) 
nan

>  <Standardized_SMILES>  (15) 
COc1ccccc1CNc1ncnc2ccc(-c3cccc(NS(C)(=O)=O)c3)cc12

>  <Name>  (15) 
nan

>  <Pocket>  (15) 
nan

>  <ATP_Site>  (15) 
nan

>  <Peripheral>  (15) 
nan

>  <Num_H_Atoms_ProtBoundConf>  (15) 
nan

>  <Num_Resolved_Atoms>  (15) 
nan

>  <Num_Not_Resolved_Atoms>  (15) 
nan

$$$$
CHEMBL495084
     RDKit          3D

  0  0  0  0  0  0  0  0  0  0999 V3000
M  V30 BEGIN CTAB
M  V30 COUNTS 53 58 0 0 0
M  V30 BEGIN ATOM
M  V30 1 C 5.111008 -1.938228 2.245256 0
M  V30 2 C 4.766258 -0.780090 3.082719 0
M  V30 3 C 5.274469 -0.829593 4.386180 0
M  V30 4 C 5.059463 0.151752 5.303245 0
M  V30 5 C 4.305358 1.240054 4.920235 0
M  V30 6 C 3.796202 1.319231 3.659410 0
M  V30 7 C 4.003927 0.338216 2.724221 0
M  V30 8 C 3.551183 0.248168 1.341940 0
M  V30 9 N 4.508369 0.087295 0.405362 0
M  V30 10 N 4.252577 -0.012990 -0.888809 0
M  V30 11 C 2.994220 0.038828 -1.376824 0
M  V30 12 C 1.962064 0.202891 -0.464859 0
M  V30 13 C 0.641969 0.262899 -0.868831 0
M  V30 14 C -0.345275 0.424123 0.097210 0
M  V30 15 C -1.728251 0.479121 -0.391185 0
M  V30 16 C -2.413309 1.616979 -0.763430 0
M  V30 17 C -1.660089 2.902757 -0.651575 0
M  V30 18 C -3.717062 1.557865 -1.210817 0
M  V30 19 C -4.385265 0.339095 -1.300797 0
M  V30 20 C -3.652454 -0.772411 -0.915018 0
M  V30 21 C -4.110752 -2.093263 -0.919486 0
M  V30 22 N -5.328002 -2.723528 -1.269828 0
M  V30 23 C -5.685865 -4.108559 -1.229552 0
M  V30 24 C -4.939942 -5.140028 -2.023543 0
M  V30 25 C -4.910162 -5.125866 -0.519689 0
M  V30 26 N -3.050773 -2.787168 -0.468458 0
M  V30 27 O -2.050847 -2.019984 -0.210193 0
M  V30 28 C -2.354454 -0.768889 -0.462963 0
M  V30 29 C -0.040875 0.525050 1.442087 0
M  V30 30 C 1.278086 0.464914 1.843496 0
M  V30 31 C 2.252588 0.305257 0.880648 0
M  V30 32 H 6.161098 -1.932624 1.891611 0
M  V30 33 H 5.006305 -2.875414 2.858733 0
M  V30 34 H 4.385627 -2.078666 1.404242 0
M  V30 35 H 5.881087 -1.676000 4.739453 0
M  V30 36 H 5.454246 0.114401 6.319454 0
M  V30 37 H 4.077198 2.071886 5.572262 0
M  V30 38 H 3.213335 2.133937 3.306723 0
M  V30 39 H 2.790874 -0.044847 -2.451694 0
M  V30 40 H 0.401633 0.183373 -1.929768 0
M  V30 41 H -0.595566 2.812488 -0.933526 0
M  V30 42 H -1.816103 3.414783 0.315035 0
M  V30 43 H -2.118711 3.565250 -1.433967 0
M  V30 44 H -4.215491 2.489468 -1.493595 0
M  V30 45 H -5.399676 0.274263 -1.647122 0
M  V30 46 H -6.019224 -1.995478 -1.598961 0
M  V30 47 H -6.803956 -4.271130 -1.206676 0
M  V30 48 H -3.965698 -4.906708 -2.503136 0
M  V30 49 H -5.506645 -5.952346 -2.537592 0
M  V30 50 H -3.942891 -4.933572 -0.016726 0
M  V30 51 H -5.450297 -6.002367 -0.052640 0
M  V30 52 H -0.838664 0.650506 2.174852 0
M  V30 53 H 1.503221 0.540917 2.894489 0
M  V30 END ATOM
M  V30 BEGIN BOND
M  V30 1 1 1 2
M  V30 2 2 2 3
M  V30 3 1 3 4
M  V30 4 2 4 5
M  V30 5 1 5 6
M  V30 6 2 6 7
M  V30 7 1 7 8
M  V30 8 2 8 9
M  V30 9 1 9 10
M  V30 10 2 10 11
M  V30 11 1 11 12
M  V30 12 2 12 13
M  V30 13 1 13 14
M  V30 14 1 14 15
M  V30 15 2 15 16
M  V30 16 1 16 17
M  V30 17 1 16 18
M  V30 18 2 18 19
M  V30 19 1 19 20
M  V30 20 1 20 21
M  V30 21 1 21 22
M  V30 22 1 22 23
M  V30 23 1 23 24
M  V30 24 1 24 25
M  V30 25 2 21 26
M  V30 26 1 26 27
M  V30 27 1 27 28
M  V30 28 2 14 29
M  V30 29 1 29 30
M  V30 30 2 30 31
M  V30 31 1 7 2
M  V30 32 1 31 8
M  V30 33 1 31 12
M  V30 34 1 28 15
M  V30 35 2 28 20
M  V30 36 1 25 23
M  V30 37 1 1 32
M  V30 38 1 1 33
M  V30 39 1 1 34
M  V30 40 1 3 35
M  V30 41 1 4 36
M  V30 42 1 5 37
M  V30 43 1 6 38
M  V30 44 1 11 39
M  V30 45 1 13 40
M  V30 46 1 17 41
M  V30 47 1 17 42
M  V30 48 1 17 43
M  V30 49 1 18 44
M  V30 50 1 19 45
M  V30 51 1 22 46
M  V30 52 1 23 47
M  V30 53 1 24 48
M  V30 54 1 24 49
M  V30 55 1 25 50
M  V30 56 1 25 51
M  V30 57 1 29 52
M  V30 58 1 30 53
M  V30 END BOND
M  V30 END CTAB
M  END
>  <Dataset>  (16) 
ChEMBL_Kinases

>  <Ligand_Instance>  (16) 
nan

>  <PDB_ID>  (16) 
nan

>  <Standardized_SMILES>  (16) 
Cc1ccccc1-c1nncc2cc(-c3c(C)ccc4c(NC5CC5)noc34)ccc12

>  <Name>  (16) 
nan

>  <Pocket>  (16) 
nan

>  <ATP_Site>  (16) 
nan

>  <Peripheral>  (16) 
nan

>  <Num_H_Atoms_ProtBoundConf>  (16) 
nan

>  <Num_Resolved_Atoms>  (16) 
nan

>  <Num_Not_Resolved_Atoms>  (16) 
nan

$$$$
CHEMBL382565
     RDKit          3D

  0  0  0  0  0  0  0  0  0  0999 V3000
M  V30 BEGIN CTAB
M  V30 COUNTS 25 26 0 0 0
M  V30 BEGIN ATOM
M  V30 1 N 1.736860 -3.049130 3.265446 0
M  V30 2 C 1.459702 -1.713782 3.670538 0
M  V30 3 O 1.699082 -1.411320 4.865817 0
M  V30 4 C 0.917884 -0.682384 2.786450 0
M  V30 5 C 0.636298 -0.933805 1.491044 0
M  V30 6 C 0.124140 0.122556 0.741746 0
M  V30 7 C -0.280465 0.148729 -0.708344 0
M  V30 8 C -0.167845 -0.972137 -1.486755 0
M  V30 9 C -0.571145 -0.816131 -2.794305 0
M  V30 10 C -1.048720 0.391798 -3.256562 0
M  V30 11 C -1.150664 1.503104 -2.449316 0
M  V30 12 C -0.751032 1.377786 -1.122583 0
M  V30 13 S 0.046167 1.505094 1.924591 0
M  V30 14 C 0.683815 0.596652 3.289276 0
M  V30 15 N 0.867466 1.159887 4.558015 0
M  V30 16 H 2.655049 -3.475459 3.522769 0
M  V30 17 H 2.646116 -3.528434 3.497411 0
M  V30 18 H 0.763439 -1.866874 0.964937 0
M  V30 19 H 0.222239 -1.853647 -0.997597 0
M  V30 20 H -0.482040 -1.707876 -3.415378 0
M  V30 21 H -1.351643 0.441243 -4.310583 0
M  V30 22 H -1.530285 2.415989 -2.866955 0
M  V30 23 H -0.820208 2.235314 -0.464995 0
M  V30 24 H 0.107765 0.957965 5.263092 0
M  V30 25 H 1.673472 1.750226 4.862205 0
M  V30 END ATOM
M  V30 BEGIN BOND
M  V30 1 1 1 2
M  V30 2 2 2 3
M  V30 3 1 2 4
M  V30 4 1 4 5
M  V30 5 2 5 6
M  V30 6 1 6 7
M  V30 7 2 7 8
M  V30 8 1 8 9
M  V30 9 2 9 10
M  V30 10 1 10 11
M  V30 11 2 11 12
M  V30 12 1 6 13
M  V30 13 1 13 14
M  V30 14 1 14 15
M  V30 15 2 14 4
M  V30 16 1 12 7
M  V30 17 1 1 16
M  V30 18 1 1 17
M  V30 19 1 5 18
M  V30 20 1 8 19
M  V30 21 1 9 20
M  V30 22 1 10 21
M  V30 23 1 11 22
M  V30 24 1 12 23
M  V30 25 1 15 24
M  V30 26 1 15 25
M  V30 END BOND
M  V30 END CTAB
M  END
>  <Dataset>  (17) 
ChEMBL_Kinases

>  <Ligand_Instance>  (17) 
nan

>  <PDB_ID>  (17) 
nan

>  <Standardized_SMILES>  (17) 
NC(=O)c1cc(-c2ccccc2)sc1N

>  <Name>  (17) 
nan

>  <Pocket>  (17) 
nan

>  <ATP_Site>  (17) 
nan

>  <Peripheral>  (17) 
nan

>  <Num_H_Atoms_ProtBoundConf>  (17) 
nan

>  <Num_Resolved_Atoms>  (17) 
nan

>  <Num_Not_Resolved_Atoms>  (17) 
nan

$$$$
CHEMBL382466
     RDKit          3D

  0  0  0  0  0  0  0  0  0  0999 V3000
M  V30 BEGIN CTAB
M  V30 COUNTS 40 43 0 0 0
M  V30 BEGIN ATOM
M  V30 1 F 5.345374 -4.632991 1.239546 0
M  V30 2 C 4.201366 -4.503567 0.475244 0
M  V30 3 F 3.276788 -5.453770 0.829569 0
M  V30 4 F 4.571510 -4.645826 -0.863822 0
M  V30 5 C 3.688281 -3.121724 0.627063 0
M  V30 6 C 4.431278 -2.155044 1.311575 0
M  V30 7 C 3.936763 -0.879969 1.440675 0
M  V30 8 C 2.713940 -0.578608 0.890769 0
M  V30 9 C 1.941468 -1.493200 0.206699 0
M  V30 10 C 0.640509 -1.211685 -0.390564 0
M  V30 11 C 0.021034 0.011380 -0.343208 0
M  V30 12 C -1.216735 0.274601 -0.912768 0
M  V30 13 C -1.763932 1.642681 -0.783614 0
M  V30 14 C -2.118057 2.683022 -1.628121 0
M  V30 15 N -2.558230 3.672018 -0.839585 0
M  V30 16 N -2.507021 3.331730 0.428554 0
M  V30 17 C -2.018349 2.073044 0.523978 0
M  V30 18 C -1.841835 1.405026 1.831561 0
M  V30 19 C -1.028977 1.789501 2.881502 0
M  V30 20 C -1.030856 1.000166 4.013568 0
M  V30 21 C -1.815530 -0.125863 4.086170 0
M  V30 22 C -2.625132 -0.484550 3.005386 0
M  V30 23 N -2.594094 0.311852 1.920680 0
M  V30 24 C -1.881126 -0.749441 -1.573539 0
M  V30 25 C -1.238443 -1.965890 -1.606731 0
M  V30 26 N -0.054125 -2.176276 -1.049114 0
M  V30 27 C 2.454761 -2.767381 0.087723 0
M  V30 28 H 5.382601 -2.378256 1.743007 0
M  V30 29 H 4.476865 -0.097020 1.962576 0
M  V30 30 H 2.334553 0.423294 0.996824 0
M  V30 31 H 0.518730 0.816168 0.162971 0
M  V30 32 H -1.978253 2.501185 -2.679070 0
M  V30 33 H -2.879762 4.562014 -1.276798 0
M  V30 34 H -0.469806 2.693787 2.683343 0
M  V30 35 H -0.378960 1.344166 4.803757 0
M  V30 36 H -1.790485 -0.728400 5.002239 0
M  V30 37 H -3.243535 -1.381629 3.076246 0
M  V30 38 H -2.845127 -0.528844 -2.012350 0
M  V30 39 H -1.745819 -2.779744 -2.121320 0
M  V30 40 H 1.891844 -3.544405 -0.444794 0
M  V30 END ATOM
M  V30 BEGIN BOND
M  V30 1 1 1 2
M  V30 2 1 2 3
M  V30 3 1 2 4
M  V30 4 1 2 5
M  V30 5 2 5 6
M  V30 6 1 6 7
M  V30 7 2 7 8
M  V30 8 1 8 9
M  V30 9 1 9 10
M  V30 10 2 10 11
M  V30 11 1 11 12
M  V30 12 1 12 13
M  V30 13 2 13 14
M  V30 14 1 14 15
M  V30 15 1 15 16
M  V30 16 2 16 17
M  V30 17 1 17 18
M  V30 18 2 18 19
M  V30 19 1 19 20
M  V30 20 2 20 21
M  V30 21 1 21 22
M  V30 22 2 22 23
M  V30 23 2 12 24
M  V30 24 1 24 25
M  V30 25 2 25 26
M  V30 26 2 9 27
M  V30 27 1 27 5
M  V30 28 1 26 10
M  V30 29 1 17 13
M  V30 30 1 23 18
M  V30 31 1 6 28
M  V30 32 1 7 29
M  V30 33 1 8 30
M  V30 34 1 11 31
M  V30 35 1 14 32
M  V30 36 1 15 33
M  V30 37 1 19 34
M  V30 38 1 20 35
M  V30 39 1 21 36
M  V30 40 1 22 37
M  V30 41 1 24 38
M  V30 42 1 25 39
M  V30 43 1 27 40
M  V30 END BOND
M  V30 END CTAB
M  END
>  <Dataset>  (18) 
ChEMBL_Kinases

>  <Ligand_Instance>  (18) 
nan

>  <PDB_ID>  (18) 
nan

>  <Standardized_SMILES>  (18) 
FC(F)(F)c1cccc(-c2cc(-c3c[nH]nc3-c3ccccn3)ccn2)c1

>  <Name>  (18) 
nan

>  <Pocket>  (18) 
nan

>  <ATP_Site>  (18) 
nan

>  <Peripheral>  (18) 
nan

>  <Num_H_Atoms_ProtBoundConf>  (18) 
nan

>  <Num_Resolved_Atoms>  (18) 
nan

>  <Num_Not_Resolved_Atoms>  (18) 
nan

$$$$
CHEMBL382437
     RDKit          3D

  0  0  0  0  0  0  0  0  0  0999 V3000
M  V30 BEGIN CTAB
M  V30 COUNTS 51 55 0 0 0
M  V30 BEGIN ATOM
M  V30 1 C -0.063741 -6.274947 0.632680 0
M  V30 2 C 0.786254 -5.149706 1.095860 0
M  V30 3 C 1.971663 -5.495725 1.706263 0
M  V30 4 C 2.774898 -4.473026 2.143116 0
M  V30 5 C 2.391856 -3.166095 1.967650 0
M  V30 6 N 3.134645 -2.144948 2.378451 0
M  V30 7 C 2.805488 -0.885294 2.235233 0
M  V30 8 O 3.769435 -0.020815 2.758018 0
M  V30 9 C 1.616389 -0.468686 1.623945 0
M  V30 10 C 1.444055 0.964522 1.577260 0
M  V30 11 N 2.319096 1.865999 2.051394 0
M  V30 12 C 1.939208 3.119449 1.897535 0
M  V30 13 C 2.608467 4.264537 2.274585 0
M  V30 14 C 1.948274 5.461187 1.976081 0
M  V30 15 C 0.701695 5.482878 1.341765 0
M  V30 16 C 0.096722 4.269661 0.995402 0
M  V30 17 C 0.720662 3.079705 1.275686 0
M  V30 18 N 0.499687 1.782481 1.122173 0
M  V30 19 C 0.787000 -1.462431 1.167999 0
M  V30 20 N -0.421160 -1.120825 0.547773 0
M  V30 21 C -1.628435 -0.773966 -0.071755 0
M  V30 22 C -1.461557 -0.111702 -1.456070 0
M  V30 23 C -2.705320 -0.375095 -2.295166 0
M  V30 24 C -3.896281 -0.131518 -1.394726 0
M  V30 25 N -3.973663 -1.191256 -0.406025 0
M  V30 26 C -2.684550 -1.836400 -0.257375 0
M  V30 27 C 1.231172 -2.773145 1.370575 0
M  V30 28 C 0.448755 -3.824492 0.944433 0
M  V30 29 H -0.680706 -6.580762 1.511249 0
M  V30 30 H -0.787520 -5.949578 -0.152158 0
M  V30 31 H 0.516518 -7.122085 0.221646 0
M  V30 32 H 2.342521 -6.488072 1.880700 0
M  V30 33 H 3.735426 -4.612524 2.641018 0
M  V30 34 H 4.395129 0.522540 2.198048 0
M  V30 35 H 3.566306 4.239532 2.761791 0
M  V30 36 H 2.400493 6.419778 2.236730 0
M  V30 37 H 0.193622 6.399229 1.111885 0
M  V30 38 H -0.874470 4.213312 0.498742 0
M  V30 39 H -0.381439 1.517576 0.667423 0
M  V30 40 H -0.779039 -1.989656 0.187881 0
M  V30 41 H -2.178234 0.034448 0.557744 0
M  V30 42 H -0.567881 -0.542577 -1.939552 0
M  V30 43 H -1.368452 0.971552 -1.401045 0
M  V30 44 H -2.729076 0.399398 -3.093126 0
M  V30 45 H -2.710171 -1.342604 -2.796990 0
M  V30 46 H -3.709355 0.805316 -0.844854 0
M  V30 47 H -4.848628 -0.030530 -1.949042 0
M  V30 48 H -4.703068 -1.867405 -0.755345 0
M  V30 49 H -2.780276 -2.497197 0.626776 0
M  V30 50 H -2.464400 -2.514792 -1.105586 0
M  V30 51 H -0.500309 -3.721951 0.457965 0
M  V30 END ATOM
M  V30 BEGIN BOND
M  V30 1 1 1 2
M  V30 2 2 2 3
M  V30 3 1 3 4
M  V30 4 2 4 5
M  V30 5 1 5 6
M  V30 6 2 6 7
M  V30 7 1 7 8
M  V30 8 1 7 9
M  V30 9 1 9 10
M  V30 10 2 10 11
M  V30 11 1 11 12
M  V30 12 2 12 13
M  V30 13 1 13 14
M  V30 14 2 14 15
M  V30 15 1 15 16
M  V30 16 2 16 17
M  V30 17 1 17 18
M  V30 18 2 9 19
M  V30 19 1 19 20
M  V30 20 1 20 21
M  V30 21 1 21 22
M  V30 22 1 22 23
M  V30 23 1 23 24
M  V30 24 1 24 25
M  V30 25 1 25 26
M  V30 26 1 19 27
M  V30 27 2 27 28
M  V30 28 1 28 2
M  V30 29 1 27 5
M  V30 30 1 18 10
M  V30 31 1 26 21
M  V30 32 1 17 12
M  V30 33 1 1 29
M  V30 34 1 1 30
M  V30 35 1 1 31
M  V30 36 1 3 32
M  V30 37 1 4 33
M  V30 38 1 8 34
M  V30 39 1 13 35
M  V30 40 1 14 36
M  V30 41 1 15 37
M  V30 42 1 16 38
M  V30 43 1 18 39
M  V30 44 1 20 40
M  V30 45 1 21 41
M  V30 46 1 22 42
M  V30 47 1 22 43
M  V30 48 1 23 44
M  V30 49 1 23 45
M  V30 50 1 24 46
M  V30 51 1 24 47
M  V30 52 1 25 48
M  V30 53 1 26 49
M  V30 54 1 26 50
M  V30 55 1 28 51
M  V30 END BOND
M  V30 END CTAB
M  END
>  <Dataset>  (19) 
ChEMBL_Kinases

>  <Ligand_Instance>  (19) 
nan

>  <PDB_ID>  (19) 
nan

>  <Standardized_SMILES>  (19) 
Cc1ccc2nc(O)c(-c3nc4ccccc4[nH]3)c(NC3CCCNC3)c2c1

>  <Name>  (19) 
nan

>  <Pocket>  (19) 
nan

>  <ATP_Site>  (19) 
nan

>  <Peripheral>  (19) 
nan

>  <Num_H_Atoms_ProtBoundConf>  (19) 
nan

>  <Num_Resolved_Atoms>  (19) 
nan

>  <Num_Not_Resolved_Atoms>  (19) 
nan

$$$$
CHEMBL3827118
     RDKit          3D

  0  0  0  0  0  0  0  0  0  0999 V3000
M  V30 BEGIN CTAB
M  V30 COUNTS 51 55 0 0 0
M  V30 BEGIN ATOM
M  V30 1 C 3.723965 -4.085410 -2.348445 0
M  V30 2 O 4.462040 -3.398047 -1.388608 0
M  V30 3 C 3.584381 -2.654398 -0.628053 0
M  V30 4 C 4.072642 -1.245588 -0.297948 0
M  V30 5 N 3.421585 -1.421608 0.987964 0
M  V30 6 C 2.720131 -0.736025 2.015931 0
M  V30 7 O 2.251434 -1.202946 3.085024 0
M  V30 8 C 2.426350 0.697289 1.972204 0
M  V30 9 C 3.440676 1.622976 2.175274 0
M  V30 10 C 2.999500 2.931469 2.106699 0
M  V30 11 C 1.699802 3.265270 1.863239 0
M  V30 12 C 1.253750 4.568152 1.797781 0
M  V30 13 N -0.029661 4.931300 1.562591 0
M  V30 14 C -0.961682 3.970393 1.373869 0
M  V30 15 C -0.510916 2.668914 1.439813 0
M  V30 16 C -1.486840 1.595863 1.230820 0
M  V30 17 C -1.153500 0.598281 0.349172 0
M  V30 18 C -2.003109 -0.455853 0.092721 0
M  V30 19 C -3.237862 -0.502522 0.753875 0
M  V30 20 C -4.240919 -1.577260 0.571073 0
M  V30 21 C -5.617625 -1.593441 0.632629 0
M  V30 22 N -5.948269 -2.869621 0.376831 0
M  V30 23 N -4.867843 -3.599416 0.170383 0
M  V30 24 C -4.826020 -5.037806 -0.135602 0
M  V30 25 C -3.730417 -2.844781 0.277440 0
M  V30 26 C -3.491049 0.526972 1.612595 0
M  V30 27 C -2.704215 1.614991 1.928017 0
M  V30 28 C 0.759692 2.254684 1.672732 0
M  V30 29 N 1.132412 0.967241 1.728893 0
M  V30 30 C 3.778905 -2.823008 0.885106 0
M  V30 31 H 4.363875 -4.720374 -3.017087 0
M  V30 32 H 3.068893 -4.797877 -1.794945 0
M  V30 33 H 3.088669 -3.403648 -2.949629 0
M  V30 34 H 2.520422 -2.696275 -0.854892 0
M  V30 35 H 3.679398 -0.441947 -0.919885 0
M  V30 36 H 5.179832 -1.235145 -0.133588 0
M  V30 37 H 4.450765 1.295740 2.364534 0
M  V30 38 H 3.755902 3.712218 2.258550 0
M  V30 39 H 2.017726 5.324511 1.953128 0
M  V30 40 H -2.012454 4.183708 1.178991 0
M  V30 41 H -0.204387 0.588490 -0.194431 0
M  V30 42 H -1.788197 -1.260812 -0.589795 0
M  V30 43 H -6.179482 -0.697401 0.850376 0
M  V30 44 H -4.956679 -5.193398 -1.228887 0
M  V30 45 H -3.819600 -5.446441 0.120066 0
M  V30 46 H -5.545636 -5.603341 0.454078 0
M  V30 47 H -2.734334 -3.218948 0.151021 0
M  V30 48 H -4.460847 0.493774 2.132754 0
M  V30 49 H -2.966384 2.387815 2.614578 0
M  V30 50 H 4.834576 -3.033326 1.153741 0
M  V30 51 H 3.038307 -3.530096 1.311959 0
M  V30 END ATOM
M  V30 BEGIN BOND
M  V30 1 1 1 2
M  V30 2 1 2 3
M  V30 3 1 3 4
M  V30 4 1 4 5
M  V30 5 1 5 6
M  V30 6 2 6 7
M  V30 7 1 6 8
M  V30 8 2 8 9
M  V30 9 1 9 10
M  V30 10 2 10 11
M  V30 11 1 11 12
M  V30 12 2 12 13
M  V30 13 1 13 14
M  V30 14 2 14 15
M  V30 15 1 15 16
M  V30 16 2 16 17
M  V30 17 1 17 18
M  V30 18 2 18 19
M  V30 19 1 19 20
M  V30 20 1 20 21
M  V30 21 2 21 22
M  V30 22 1 22 23
M  V30 23 1 23 24
M  V30 24 1 23 25
M  V30 25 1 19 26
M  V30 26 2 26 27
M  V30 27 1 15 28
M  V30 28 2 28 29
M  V30 29 1 5 30
M  V30 30 1 30 3
M  V30 31 1 29 8
M  V30 32 1 28 11
M  V30 33 1 27 16
M  V30 34 2 25 20
M  V30 35 1 1 31
M  V30 36 1 1 32
M  V30 37 1 1 33
M  V30 38 1 3 34
M  V30 39 1 4 35
M  V30 40 1 4 36
M  V30 41 1 9 37
M  V30 42 1 10 38
M  V30 43 1 12 39
M  V30 44 1 14 40
M  V30 45 1 17 41
M  V30 46 1 18 42
M  V30 47 1 21 43
M  V30 48 1 24 44
M  V30 49 1 24 45
M  V30 50 1 24 46
M  V30 51 1 25 47
M  V30 52 1 26 48
M  V30 53 1 27 49
M  V30 54 1 30 50
M  V30 55 1 30 51
M  V30 END BOND
M  V30 END CTAB
M  END
>  <Dataset>  (20) 
ChEMBL_Kinases

>  <Ligand_Instance>  (20) 
nan

>  <PDB_ID>  (20) 
nan

>  <Standardized_SMILES>  (20) 
COC1CN(C(=O)c2ccc3cncc(-c4ccc(-c5cnn(C)c5)cc4)c3n2)C1

>  <Name>  (20) 
nan

>  <Pocket>  (20) 
nan

>  <ATP_Site>  (20) 
nan

>  <Peripheral>  (20) 
nan

>  <Num_H_Atoms_ProtBoundConf>  (20) 
nan

>  <Num_Resolved_Atoms>  (20) 
nan

>  <Num_Not_Resolved_Atoms>  (20) 
nan

$$$$
CHEMBL3827901
     RDKit          3D

  0  0  0  0  0  0  0  0  0  0999 V3000
M  V30 BEGIN CTAB
M  V30 COUNTS 42 44 0 0 0
M  V30 BEGIN ATOM
M  V30 1 C 1.658346 -2.920496 -1.695613 0
M  V30 2 C 2.643599 -1.998106 -1.081195 0
M  V30 3 N 3.686081 -2.516840 -0.407776 0
M  V30 4 C 4.438930 -1.496200 0.062546 0
M  V30 5 C 5.603376 -1.435957 0.808962 0
M  V30 6 C 6.063714 -0.164881 1.092251 0
M  V30 7 C 5.449618 0.995868 0.686529 0
M  V30 8 C 4.285495 0.922511 -0.059874 0
M  V30 9 C 3.798077 -0.329459 -0.360452 0
M  V30 10 N 2.700042 -0.648838 -1.060094 0
M  V30 11 C 1.661523 0.162807 -1.717328 0
M  V30 12 C 0.540264 0.418632 -0.772507 0
M  V30 13 O -0.250273 -0.577111 -0.650478 0
M  V30 14 N 0.228381 1.567231 -0.010904 0
M  V30 15 N -0.895907 1.461488 0.770979 0
M  V30 16 C -2.075828 1.382869 1.485440 0
M  V30 17 O -2.973105 1.734376 0.628667 0
M  V30 18 C -2.451593 1.013738 2.872295 0
M  V30 19 C -3.264987 -0.247521 2.718646 0
M  V30 20 C -4.612711 -0.468012 2.605241 0
M  V30 21 C -5.105953 -1.742522 2.458103 0
M  V30 22 C -4.269709 -2.835898 2.420106 0
M  V30 23 Cl -4.962815 -4.431828 2.226978 0
M  V30 24 C -2.900815 -2.683738 2.529728 0
M  V30 25 C -2.458642 -1.384955 2.675274 0
M  V30 26 H 0.918436 -2.399947 -2.348908 0
M  V30 27 H 2.173536 -3.691541 -2.292064 0
M  V30 28 H 1.116829 -3.420907 -0.847065 0
M  V30 29 H 6.069440 -2.359207 1.118845 0
M  V30 30 H 6.987587 -0.216460 1.686464 0
M  V30 31 H 5.919236 1.923911 0.975341 0
M  V30 32 H 3.792333 1.823924 -0.386887 0
M  V30 33 H 2.092329 1.111294 -2.115365 0
M  V30 34 H 1.278269 -0.407512 -2.572568 0
M  V30 35 H 0.846090 2.388574 -0.115107 0
M  V30 36 H -0.233443 1.174811 1.587729 0
M  V30 37 H -3.057228 1.841380 3.314555 0
M  V30 38 H -1.599824 0.846870 3.522106 0
M  V30 39 H -5.162180 0.489316 2.649393 0
M  V30 40 H -6.197821 -1.792177 2.375497 0
M  V30 41 H -2.252055 -3.542675 2.499780 0
M  V30 42 H -1.361749 -1.339356 2.754447 0
M  V30 END ATOM
M  V30 BEGIN BOND
M  V30 1 1 1 2
M  V30 2 2 2 3
M  V30 3 1 3 4
M  V30 4 2 4 5
M  V30 5 1 5 6
M  V30 6 2 6 7
M  V30 7 1 7 8
M  V30 8 2 8 9
M  V30 9 1 9 10
M  V30 10 1 10 11
M  V30 11 1 11 12
M  V30 12 2 12 13
M  V30 13 1 12 14
M  V30 14 1 14 15
M  V30 15 1 15 16
M  V30 16 2 16 17
M  V30 17 1 16 18
M  V30 18 1 18 19
M  V30 19 2 19 20
M  V30 20 1 20 21
M  V30 21 2 21 22
M  V30 22 1 22 23
M  V30 23 1 22 24
M  V30 24 2 24 25
M  V30 25 1 10 2
M  V30 26 1 25 19
M  V30 27 1 9 4
M  V30 28 1 1 26
M  V30 29 1 1 27
M  V30 30 1 1 28
M  V30 31 1 5 29
M  V30 32 1 6 30
M  V30 33 1 7 31
M  V30 34 1 8 32
M  V30 35 1 11 33
M  V30 36 1 11 34
M  V30 37 1 14 35
M  V30 38 1 15 36
M  V30 39 1 18 37
M  V30 40 1 18 38
M  V30 41 1 20 39
M  V30 42 1 21 40
M  V30 43 1 24 41
M  V30 44 1 25 42
M  V30 END BOND
M  V30 END CTAB
M  END
>  <Dataset>  (21) 
ChEMBL_Kinases

>  <Ligand_Instance>  (21) 
nan

>  <PDB_ID>  (21) 
nan

>  <Standardized_SMILES>  (21) 
Cc1nc2ccccc2n1CC(=O)NNC(=O)Cc1ccc(Cl)cc1

>  <Name>  (21) 
nan

>  <Pocket>  (21) 
nan

>  <ATP_Site>  (21) 
nan

>  <Peripheral>  (21) 
nan

>  <Num_H_Atoms_ProtBoundConf>  (21) 
nan

>  <Num_Resolved_Atoms>  (21) 
nan

>  <Num_Not_Resolved_Atoms>  (21) 
nan

$$$$
CHEMBL3827895
     RDKit          3D

  0  0  0  0  0  0  0  0  0  0999 V3000
M  V30 BEGIN CTAB
M  V30 COUNTS 48 51 0 0 0
M  V30 BEGIN ATOM
M  V30 1 C 4.138547 -2.309047 1.329274 0
M  V30 2 C 3.789940 -0.903378 1.747595 0
M  V30 3 N 3.407979 -0.516405 2.998857 0
M  V30 4 C 3.182885 0.828128 2.966379 0
M  V30 5 C 2.786555 1.767214 3.896655 0
M  V30 6 C 2.649386 3.094326 3.528358 0
M  V30 7 C 2.917141 3.447348 2.218527 0
M  V30 8 C 3.317279 2.518811 1.266143 0
M  V30 9 C 3.443468 1.212690 1.665200 0
M  V30 10 N 3.813110 0.159118 0.922745 0
M  V30 11 C 4.181754 0.080525 -0.488880 0
M  V30 12 C 2.945387 -0.178289 -1.307290 0
M  V30 13 O 2.938280 -0.311880 -2.544820 0
M  V30 14 N 1.687653 -0.281957 -0.653519 0
M  V30 15 N 0.457056 -0.522166 -1.303362 0
M  V30 16 C -0.756017 -0.592764 -0.531692 0
M  V30 17 O -0.664930 -0.433195 0.716295 0
M  V30 18 C -1.946988 -0.853353 -1.392269 0
M  V30 19 C -3.184022 -0.916555 -0.610054 0
M  V30 20 C -4.052192 0.180426 -0.656901 0
M  V30 21 C -5.254181 0.285040 0.014357 0
M  V30 22 C -5.636199 -0.767260 0.793234 0
M  V30 23 C -4.795918 -1.881403 0.865918 0
M  V30 24 C -5.216891 -2.934003 1.669498 0
M  V30 25 C -4.390049 -4.045471 1.749351 0
M  V30 26 C -3.181128 -4.107688 1.051057 0
M  V30 27 C -2.775105 -3.057065 0.257898 0
M  V30 28 C -3.591662 -1.948237 0.173138 0
M  V30 29 H 4.114119 -2.989889 2.197937 0
M  V30 30 H 5.176176 -2.350951 0.936158 0
M  V30 31 H 3.434891 -2.689316 0.579744 0
M  V30 32 H 2.608022 1.351014 4.888091 0
M  V30 33 H 2.335665 3.787201 4.299846 0
M  V30 34 H 2.784973 4.496927 2.018763 0
M  V30 35 H 3.506530 2.861830 0.273912 0
M  V30 36 H 4.888032 -0.756347 -0.615227 0
M  V30 37 H 4.601553 1.070090 -0.795562 0
M  V30 38 H 1.688479 -0.168104 0.400763 0
M  V30 39 H 0.536315 -0.635268 -2.351541 0
M  V30 40 H -1.987546 -0.036912 -2.134475 0
M  V30 41 H -1.696783 -1.777780 -1.946579 0
M  V30 42 H -3.763395 1.038599 -1.277733 0
M  V30 43 H -5.846041 1.181773 -0.094592 0
M  V30 44 H -6.573422 -0.709748 1.327973 0
M  V30 45 H -6.154970 -2.883752 2.210999 0
M  V30 46 H -4.705982 -4.885268 2.378337 0
M  V30 47 H -2.572935 -4.989208 1.142691 0
M  V30 48 H -1.840792 -3.095613 -0.286473 0
M  V30 END ATOM
M  V30 BEGIN BOND
M  V30 1 1 1 2
M  V30 2 2 2 3
M  V30 3 1 3 4
M  V30 4 2 4 5
M  V30 5 1 5 6
M  V30 6 2 6 7
M  V30 7 1 7 8
M  V30 8 2 8 9
M  V30 9 1 9 10
M  V30 10 1 10 11
M  V30 11 1 11 12
M  V30 12 2 12 13
M  V30 13 1 12 14
M  V30 14 1 14 15
M  V30 15 1 15 16
M  V30 16 2 16 17
M  V30 17 1 16 18
M  V30 18 1 18 19
M  V30 19 2 19 20
M  V30 20 1 20 21
M  V30 21 2 21 22
M  V30 22 1 22 23
M  V30 23 2 23 24
M  V30 24 1 24 25
M  V30 25 2 25 26
M  V30 26 1 26 27
M  V30 27 2 27 28
M  V30 28 1 10 2
M  V30 29 1 28 19
M  V30 30 1 9 4
M  V30 31 1 28 23
M  V30 32 1 1 29
M  V30 33 1 1 30
M  V30 34 1 1 31
M  V30 35 1 5 32
M  V30 36 1 6 33
M  V30 37 1 7 34
M  V30 38 1 8 35
M  V30 39 1 11 36
M  V30 40 1 11 37
M  V30 41 1 14 38
M  V30 42 1 15 39
M  V30 43 1 18 40
M  V30 44 1 18 41
M  V30 45 1 20 42
M  V30 46 1 21 43
M  V30 47 1 22 44
M  V30 48 1 24 45
M  V30 49 1 25 46
M  V30 50 1 26 47
M  V30 51 1 27 48
M  V30 END BOND
M  V30 END CTAB
M  END
>  <Dataset>  (22) 
ChEMBL_Kinases

>  <Ligand_Instance>  (22) 
nan

>  <PDB_ID>  (22) 
nan

>  <Standardized_SMILES>  (22) 
Cc1nc2ccccc2n1CC(=O)NNC(=O)Cc1cccc2ccccc12

>  <Name>  (22) 
nan

>  <Pocket>  (22) 
nan

>  <ATP_Site>  (22) 
nan

>  <Peripheral>  (22) 
nan

>  <Num_H_Atoms_ProtBoundConf>  (22) 
nan

>  <Num_Resolved_Atoms>  (22) 
nan

>  <Num_Not_Resolved_Atoms>  (22) 
nan

$$$$
CHEMBL3827874
     RDKit          3D

  0  0  0  0  0  0  0  0  0  0999 V3000
M  V30 BEGIN CTAB
M  V30 COUNTS 53 57 0 0 0
M  V30 BEGIN ATOM
M  V30 1 C -1.949038 -5.150688 5.046977 0
M  V30 2 N -0.729768 -4.891900 4.302267 0
M  V30 3 C -0.358524 -3.716593 3.760620 0
M  V30 4 C 0.857166 -3.789251 3.107338 0
M  V30 5 C 1.468841 -2.642829 2.440770 0
M  V30 6 C 2.242689 -2.809705 1.313033 0
M  V30 7 C 2.790107 -1.691469 0.706600 0
M  V30 8 C 2.576864 -0.446020 1.203612 0
M  V30 9 C 3.007859 0.834612 0.644737 0
M  V30 10 C 4.106862 1.616265 0.920826 0
M  V30 11 N 4.287593 2.774672 0.225314 0
M  V30 12 C 3.402964 3.162455 -0.729487 0
M  V30 13 N 3.692814 4.388765 -1.396979 0
M  V30 14 C 2.258812 2.449674 -1.091288 0
M  V30 15 C 1.371280 2.856055 -2.056081 0
M  V30 16 C 0.262265 2.081612 -2.335213 0
M  V30 17 C 0.018145 0.895750 -1.659742 0
M  V30 18 C -1.080475 -0.014957 -1.788848 0
M  V30 19 O -0.482591 -1.051984 -2.289342 0
M  V30 20 N -2.491493 -0.063937 -1.533464 0
M  V30 21 C -3.675617 0.657197 -1.075901 0
M  V30 22 C -4.253025 -0.639188 -0.612644 0
M  V30 23 C -5.731868 -0.735641 -0.925846 0
M  V30 24 F -3.955033 -0.917817 0.693962 0
M  V30 25 C -3.351100 -1.253792 -1.660150 0
M  V30 26 C 0.986073 0.575009 -0.698397 0
M  V30 27 C 2.132390 1.276346 -0.341017 0
M  V30 28 C 1.796686 -0.236381 2.351990 0
M  V30 29 C 1.249171 -1.379963 2.953718 0
M  V30 30 C 1.220520 -5.101571 3.283377 0
M  V30 31 N 0.236385 -5.719358 4.005240 0
M  V30 32 H -2.393558 -6.104415 4.695127 0
M  V30 33 H -2.677629 -4.334714 4.754176 0
M  V30 34 H -1.828735 -5.077785 6.122747 0
M  V30 35 H -0.982787 -2.818260 3.851105 0
M  V30 36 H 2.442316 -3.779000 0.880182 0
M  V30 37 H 3.404488 -1.724131 -0.177760 0
M  V30 38 H 4.712010 1.196954 1.687914 0
M  V30 39 H 4.091557 4.755644 -2.282955 0
M  V30 40 H 3.426148 5.245343 -0.822422 0
M  V30 41 H 1.563875 3.775983 -2.575363 0
M  V30 42 H -0.468233 2.348665 -3.076241 0
M  V30 43 H -3.444895 1.416282 -0.311211 0
M  V30 44 H -4.237241 1.138700 -1.930882 0
M  V30 45 H -6.144102 -1.730971 -0.645623 0
M  V30 46 H -5.950874 -0.619356 -1.993979 0
M  V30 47 H -6.274498 0.023015 -0.355014 0
M  V30 48 H -3.849683 -1.366998 -2.638513 0
M  V30 49 H -2.843947 -2.198418 -1.287417 0
M  V30 50 H 0.799423 -0.351317 -0.163446 0
M  V30 51 H 1.569457 0.691521 2.824290 0
M  V30 52 H 0.625024 -1.302474 3.855663 0
M  V30 53 H 2.140995 -5.513620 2.891246 0
M  V30 END ATOM
M  V30 BEGIN BOND
M  V30 1 1 1 2
M  V30 2 1 2 3
M  V30 3 2 3 4
M  V30 4 1 4 5
M  V30 5 2 5 6
M  V30 6 1 6 7
M  V30 7 2 7 8
M  V30 8 1 8 9
M  V30 9 2 9 10
M  V30 10 1 10 11
M  V30 11 2 11 12
M  V30 12 1 12 13
M  V30 13 1 12 14
M  V30 14 2 14 15
M  V30 15 1 15 16
M  V30 16 2 16 17
M  V30 17 1 17 18
M  V30 18 2 18 19
M  V30 19 1 18 20
M  V30 20 1 20 21
M  V30 21 1 21 22
M  V30 22 1 22 23
M  V30 23 1 22 24
M  V30 24 1 22 25
M  V30 25 1 17 26
M  V30 26 2 26 27
M  V30 27 1 8 28
M  V30 28 2 28 29
M  V30 29 1 4 30
M  V30 30 2 30 31
M  V30 31 1 31 2
M  V30 32 1 29 5
M  V30 33 1 27 9
M  V30 34 1 27 14
M  V30 35 1 25 20
M  V30 36 1 1 32
M  V30 37 1 1 33
M  V30 38 1 1 34
M  V30 39 1 3 35
M  V30 40 1 6 36
M  V30 41 1 7 37
M  V30 42 1 10 38
M  V30 43 1 13 39
M  V30 44 1 13 40
M  V30 45 1 15 41
M  V30 46 1 16 42
M  V30 47 1 21 43
M  V30 48 1 21 44
M  V30 49 1 23 45
M  V30 50 1 23 46
M  V30 51 1 23 47
M  V30 52 1 25 48
M  V30 53 1 25 49
M  V30 54 1 26 50
M  V30 55 1 28 51
M  V30 56 1 29 52
M  V30 57 1 30 53
M  V30 END BOND
M  V30 END CTAB
M  END
>  <Dataset>  (23) 
ChEMBL_Kinases

>  <Ligand_Instance>  (23) 
nan

>  <PDB_ID>  (23) 
nan

>  <Standardized_SMILES>  (23) 
Cn1cc(-c2ccc(-c3cnc(N)c4ccc(C(=O)N5CC(C)(F)C5)cc34)cc2)cn1

>  <Name>  (23) 
nan

>  <Pocket>  (23) 
nan

>  <ATP_Site>  (23) 
nan

>  <Peripheral>  (23) 
nan

>  <Num_H_Atoms_ProtBoundConf>  (23) 
nan

>  <Num_Resolved_Atoms>  (23) 
nan

>  <Num_Not_Resolved_Atoms>  (23) 
nan

$$$$
CHEMBL3827844
     RDKit          3D

  0  0  0  0  0  0  0  0  0  0999 V3000
M  V30 BEGIN CTAB
M  V30 COUNTS 42 45 0 0 0
M  V30 BEGIN ATOM
M  V30 1 C -0.617485 -7.286939 1.616830 0
M  V30 2 O 0.717634 -7.114594 1.176942 0
M  V30 3 C 1.167108 -5.877918 0.733220 0
M  V30 4 C 0.367032 -4.755609 0.689448 0
M  V30 5 C 0.914323 -3.576966 0.231215 0
M  V30 6 C 2.212398 -3.423665 -0.192912 0
M  V30 7 N 2.816179 -2.239119 -0.668911 0
M  V30 8 C 2.357435 -0.923690 -0.854968 0
M  V30 9 N 2.756236 0.121228 -1.235019 0
M  V30 10 N 2.063832 1.201580 -1.291399 0
M  V30 11 C 0.942611 1.350288 -0.986620 0
M  V30 12 C -0.086038 2.422947 -0.938805 0
M  V30 13 N -0.083493 3.134304 0.337528 0
M  V30 14 C 0.592443 4.224085 0.731072 0
M  V30 15 C 1.520663 4.894967 -0.217054 0
M  V30 16 N 0.262068 4.507831 2.010575 0
M  V30 17 C -0.623010 3.609021 2.447492 0
M  V30 18 C -1.327753 3.346939 3.613283 0
M  V30 19 C -2.206811 2.307025 3.781934 0
M  V30 20 C -2.415330 1.445697 2.713805 0
M  V30 21 C -1.725290 1.692355 1.554371 0
M  V30 22 C -0.838559 2.745265 1.391303 0
M  V30 23 S 0.581614 -0.386202 -0.446970 0
M  V30 24 C 2.983283 -4.554027 -0.138450 0
M  V30 25 C 2.474335 -5.749900 0.312711 0
M  V30 26 H -0.943917 -8.328646 1.596334 0
M  V30 27 H -1.304869 -6.749218 0.904437 0
M  V30 28 H -0.728566 -6.814445 2.611216 0
M  V30 29 H -0.663643 -4.814903 1.010565 0
M  V30 30 H 0.257613 -2.746570 0.217892 0
M  V30 31 H 3.815382 -2.277745 -0.962564 0
M  V30 32 H -1.078859 1.951753 -1.116991 0
M  V30 33 H 0.165392 3.104631 -1.746302 0
M  V30 34 H 2.232231 5.550859 0.330255 0
M  V30 35 H 0.950590 5.484253 -0.978316 0
M  V30 36 H 2.126833 4.165518 -0.794032 0
M  V30 37 H -1.151504 4.032706 4.439817 0
M  V30 38 H -2.740402 2.128195 4.699886 0
M  V30 39 H -3.103878 0.612166 2.811627 0
M  V30 40 H -1.914658 0.995566 0.738253 0
M  V30 41 H 4.034652 -4.559126 -0.449560 0
M  V30 42 H 3.107068 -6.642444 0.348574 0
M  V30 END ATOM
M  V30 BEGIN BOND
M  V30 1 1 1 2
M  V30 2 1 2 3
M  V30 3 2 3 4
M  V30 4 1 4 5
M  V30 5 2 5 6
M  V30 6 1 6 7
M  V30 7 1 7 8
M  V30 8 2 8 9
M  V30 9 1 9 10
M  V30 10 2 10 11
M  V30 11 1 11 12
M  V30 12 1 12 13
M  V30 13 1 13 14
M  V30 14 1 14 15
M  V30 15 2 14 16
M  V30 16 1 16 17
M  V30 17 2 17 18
M  V30 18 1 18 19
M  V30 19 2 19 20
M  V30 20 1 20 21
M  V30 21 2 21 22
M  V30 22 1 11 23
M  V30 23 1 6 24
M  V30 24 2 24 25
M  V30 25 1 25 3
M  V30 26 1 23 8
M  V30 27 1 22 13
M  V30 28 1 22 17
M  V30 29 1 1 26
M  V30 30 1 1 27
M  V30 31 1 1 28
M  V30 32 1 4 29
M  V30 33 1 5 30
M  V30 34 1 7 31
M  V30 35 1 12 32
M  V30 36 1 12 33
M  V30 37 1 15 34
M  V30 38 1 15 35
M  V30 39 1 15 36
M  V30 40 1 18 37
M  V30 41 1 19 38
M  V30 42 1 20 39
M  V30 43 1 21 40
M  V30 44 1 24 41
M  V30 45 1 25 42
M  V30 END BOND
M  V30 END CTAB
M  END
>  <Dataset>  (24) 
ChEMBL_Kinases

>  <Ligand_Instance>  (24) 
nan

>  <PDB_ID>  (24) 
nan

>  <Standardized_SMILES>  (24) 
COc1ccc(Nc2nnc(Cn3c(C)nc4ccccc43)s2)cc1

>  <Name>  (24) 
nan

>  <Pocket>  (24) 
nan

>  <ATP_Site>  (24) 
nan

>  <Peripheral>  (24) 
nan

>  <Num_H_Atoms_ProtBoundConf>  (24) 
nan

>  <Num_Resolved_Atoms>  (24) 
nan

>  <Num_Not_Resolved_Atoms>  (24) 
nan

$$$$
CHEMBL382784
     RDKit          3D

  0  0  0  0  0  0  0  0  0  0999 V3000
M  V30 BEGIN CTAB
M  V30 COUNTS 63 64 0 0 0
M  V30 BEGIN ATOM
M  V30 1 C 3.121152 -3.927779 1.984011 0
M  V30 2 C 1.667269 -3.363987 2.078946 0
M  V30 3 C 1.842430 -1.986199 2.587401 0
M  V30 4 C 1.051252 -3.578042 0.750314 0
M  V30 5 C -0.319017 -3.206210 0.458973 0
M  V30 6 C -0.705950 -1.722543 0.602214 0
M  V30 7 C 0.030535 -0.810676 -0.232780 0
M  V30 8 C 0.618360 0.353081 0.106251 0
M  V30 9 C 1.387308 1.314823 -0.720469 0
M  V30 10 C 1.813391 2.338192 0.304558 0
M  V30 11 C 3.235978 2.788569 0.040971 0
M  V30 12 O 3.678474 3.669154 0.994844 0
M  V30 13 C 0.853070 3.512942 0.206101 0
M  V30 14 O -0.470490 3.010895 0.351821 0
M  V30 15 C -1.575526 3.846876 0.308260 0
M  V30 16 O -1.358098 5.072834 0.134784 0
M  V30 17 C -2.960001 3.419601 0.446702 0
M  V30 18 C -3.931480 4.396050 0.380944 0
M  V30 19 C -5.286400 4.067673 0.504020 0
M  V30 20 C -5.643844 2.732004 0.695177 0
M  V30 21 C -4.680084 1.730785 0.764514 0
M  V30 22 C -3.360964 2.114594 0.636553 0
M  V30 23 O 1.696661 1.690882 1.554262 0
M  V30 24 C 0.526735 0.911105 1.472667 0
M  V30 25 O -0.443244 0.635166 2.225712 0
M  V30 26 C -0.755773 -3.630009 -0.914685 0
M  V30 27 C -0.789675 -5.027377 -1.317828 0
M  V30 28 C 0.407970 -5.877868 -1.360538 0
M  V30 29 C -1.891594 -5.804519 -0.556516 0
M  V30 30 H 3.810208 -3.109381 1.677072 0
M  V30 31 H 3.454119 -4.287692 2.961118 0
M  V30 32 H 3.157974 -4.690648 1.179009 0
M  V30 33 H 1.199957 -3.979001 2.875143 0
M  V30 34 H 2.681525 -1.967682 3.364615 0
M  V30 35 H 1.018262 -1.495656 3.071769 0
M  V30 36 H 2.251228 -1.317900 1.794348 0
M  V30 37 H 1.730099 -3.081568 -0.016106 0
M  V30 38 H 1.256970 -4.673366 0.530080 0
M  V30 39 H -1.068627 -3.791443 1.128487 0
M  V30 40 H -1.782243 -1.654765 0.208908 0
M  V30 41 H -0.844810 -1.555763 1.648279 0
M  V30 42 H 0.141003 -1.071635 -1.293605 0
M  V30 43 H 2.321883 0.870684 -1.119990 0
M  V30 44 H 0.771926 1.783565 -1.511624 0
M  V30 45 H 3.881774 1.900054 -0.088617 0
M  V30 46 H 3.204034 3.275813 -0.976382 0
M  V30 47 H 2.994948 4.059396 1.578949 0
M  V30 48 H 0.887250 3.937356 -0.817862 0
M  V30 49 H 1.044200 4.278345 0.991126 0
M  V30 50 H -3.718274 5.456411 0.233394 0
M  V30 51 H -6.030932 4.848933 0.449537 0
M  V30 52 H -6.707248 2.472281 0.792034 0
M  V30 53 H -4.965621 0.694156 0.913362 0
M  V30 54 H -2.602951 1.345122 0.688131 0
M  V30 55 H -1.814975 -3.221859 -1.075563 0
M  V30 56 H -0.185737 -2.999910 -1.686826 0
M  V30 57 H -1.216038 -5.031333 -2.383418 0
M  V30 58 H 0.530265 -6.592485 -0.495895 0
M  V30 59 H 1.341338 -5.382951 -1.669118 0
M  V30 60 H 0.249798 -6.628567 -2.218573 0
M  V30 61 H -1.857025 -6.833416 -0.969962 0
M  V30 62 H -1.673581 -5.849762 0.520936 0
M  V30 63 H -2.874609 -5.307922 -0.749647 0
M  V30 END ATOM
M  V30 BEGIN BOND
M  V30 1 1 1 2
M  V30 2 1 2 3
M  V30 3 1 2 4
M  V30 4 1 4 5
M  V30 5 1 5 6
M  V30 6 1 6 7
M  V30 7 2 7 8
M  V30 8 1 8 9
M  V30 9 1 9 10
M  V30 10 1 10 11
M  V30 11 1 11 12
M  V30 12 1 10 13
M  V30 13 1 13 14
M  V30 14 1 14 15
M  V30 15 2 15 16
M  V30 16 1 15 17
M  V30 17 2 17 18
M  V30 18 1 18 19
M  V30 19 2 19 20
M  V30 20 1 20 21
M  V30 21 2 21 22
M  V30 22 1 10 23
M  V30 23 1 23 24
M  V30 24 2 24 25
M  V30 25 1 5 26
M  V30 26 1 26 27
M  V30 27 1 27 28
M  V30 28 1 27 29
M  V30 29 1 24 8
M  V30 30 1 22 17
M  V30 31 1 1 30
M  V30 32 1 1 31
M  V30 33 1 1 32
M  V30 34 1 2 33
M  V30 35 1 3 34
M  V30 36 1 3 35
M  V30 37 1 3 36
M  V30 38 1 4 37
M  V30 39 1 4 38
M  V30 40 1 5 39
M  V30 41 1 6 40
M  V30 42 1 6 41
M  V30 43 1 7 42
M  V30 44 1 9 43
M  V30 45 1 9 44
M  V30 46 1 11 45
M  V30 47 1 11 46
M  V30 48 1 12 47
M  V30 49 1 13 48
M  V30 50 1 13 49
M  V30 51 1 18 50
M  V30 52 1 19 51
M  V30 53 1 20 52
M  V30 54 1 21 53
M  V30 55 1 22 54
M  V30 56 1 26 55
M  V30 57 1 26 56
M  V30 58 1 27 57
M  V30 59 1 28 58
M  V30 60 1 28 59
M  V30 61 1 28 60
M  V30 62 1 29 61
M  V30 63 1 29 62
M  V30 64 1 29 63
M  V30 END BOND
M  V30 END CTAB
M  END
>  <Dataset>  (25) 
ChEMBL_Kinases

>  <Ligand_Instance>  (25) 
nan

>  <PDB_ID>  (25) 
nan

>  <Standardized_SMILES>  (25) 
CC(C)CC(C/C=C1/CC(CO)(COC(=O)c2ccccc2)OC1=O)CC(C)C

>  <Name>  (25) 
nan

>  <Pocket>  (25) 
nan

>  <ATP_Site>  (25) 
nan

>  <Peripheral>  (25) 
nan

>  <Num_H_Atoms_ProtBoundConf>  (25) 
nan

>  <Num_Resolved_Atoms>  (25) 
nan

>  <Num_Not_Resolved_Atoms>  (25) 
nan

$$$$
CHEMBL3827799
     RDKit          3D

  0  0  0  0  0  0  0  0  0  0999 V3000
M  V30 BEGIN CTAB
M  V30 COUNTS 47 51 0 0 0
M  V30 BEGIN ATOM
M  V30 1 C -3.308586 -5.451365 2.604527 0
M  V30 2 N -2.049177 -5.213110 1.894643 0
M  V30 3 C -1.689095 -3.995871 1.392114 0
M  V30 4 C -0.461766 -4.096932 0.770366 0
M  V30 5 C 0.298509 -3.022242 0.115115 0
M  V30 6 C 1.662217 -3.068127 0.074579 0
M  V30 7 C 2.402611 -2.038087 -0.529770 0
M  V30 8 C 1.709861 -0.973626 -1.085252 0
M  V30 9 C 2.381586 0.173025 -1.747345 0
M  V30 10 C 3.258073 0.280395 -2.805184 0
M  V30 11 N 3.694443 1.506673 -3.189839 0
M  V30 12 C 3.265141 2.591711 -2.531150 0
M  V30 13 C 2.394589 2.615031 -1.463036 0
M  V30 14 C 2.030591 3.811792 -0.853340 0
M  V30 15 C 1.177261 3.733365 0.198875 0
M  V30 16 C 0.725781 2.495226 0.595542 0
M  V30 17 C -0.161645 2.107491 1.650108 0
M  V30 18 O -0.681342 0.943632 1.789742 0
M  V30 19 N -0.967827 2.105802 2.788348 0
M  V30 20 C -1.730221 1.014935 3.327177 0
M  V30 21 C -1.463365 1.638105 4.697619 0
M  V30 22 C -1.466295 2.909886 3.882917 0
M  V30 23 N 1.144100 1.422927 -0.066490 0
M  V30 24 C 1.974110 1.360050 -1.104436 0
M  V30 25 C 0.308646 -0.928111 -1.043743 0
M  V30 26 C -0.413181 -1.959488 -0.438652 0
M  V30 27 C -0.104304 -5.420865 0.920838 0
M  V30 28 N -1.078228 -6.076357 1.604058 0
M  V30 29 H -4.170117 -4.993070 2.109608 0
M  V30 30 H -3.212380 -5.102168 3.643219 0
M  V30 31 H -3.471965 -6.560362 2.648979 0
M  V30 32 H -2.304670 -3.083772 1.483403 0
M  V30 33 H 2.258020 -3.887117 0.499360 0
M  V30 34 H 3.487233 -1.985978 -0.613312 0
M  V30 35 H 3.462907 -0.719476 -3.178762 0
M  V30 36 H 3.692321 3.522612 -2.942864 0
M  V30 37 H 2.409666 4.757954 -1.198401 0
M  V30 38 H 0.798638 4.547503 0.781184 0
M  V30 39 H -1.328487 -0.012154 3.236058 0
M  V30 40 H -2.835659 1.071602 3.134115 0
M  V30 41 H -2.316077 1.524656 5.393089 0
M  V30 42 H -0.471397 1.439658 5.097682 0
M  V30 43 H -2.515902 3.237815 3.649208 0
M  V30 44 H -0.816695 3.712026 4.265794 0
M  V30 45 H -0.255022 -0.095235 -1.473342 0
M  V30 46 H -1.505236 -1.934380 -0.399043 0
M  V30 47 H 0.832422 -5.850252 0.537288 0
M  V30 END ATOM
M  V30 BEGIN BOND
M  V30 1 1 1 2
M  V30 2 1 2 3
M  V30 3 2 3 4
M  V30 4 1 4 5
M  V30 5 2 5 6
M  V30 6 1 6 7
M  V30 7 2 7 8
M  V30 8 1 8 9
M  V30 9 2 9 10
M  V30 10 1 10 11
M  V30 11 2 11 12
M  V30 12 1 12 13
M  V30 13 2 13 14
M  V30 14 1 14 15
M  V30 15 2 15 16
M  V30 16 1 16 17
M  V30 17 2 17 18
M  V30 18 1 17 19
M  V30 19 1 19 20
M  V30 20 1 20 21
M  V30 21 1 21 22
M  V30 22 1 16 23
M  V30 23 2 23 24
M  V30 24 1 8 25
M  V30 25 2 25 26
M  V30 26 1 4 27
M  V30 27 2 27 28
M  V30 28 1 28 2
M  V30 29 1 26 5
M  V30 30 1 24 9
M  V30 31 1 24 13
M  V30 32 1 22 19
M  V30 33 1 1 29
M  V30 34 1 1 30
M  V30 35 1 1 31
M  V30 36 1 3 32
M  V30 37 1 6 33
M  V30 38 1 7 34
M  V30 39 1 10 35
M  V30 40 1 12 36
M  V30 41 1 14 37
M  V30 42 1 15 38
M  V30 43 1 20 39
M  V30 44 1 20 40
M  V30 45 1 21 41
M  V30 46 1 21 42
M  V30 47 1 22 43
M  V30 48 1 22 44
M  V30 49 1 25 45
M  V30 50 1 26 46
M  V30 51 1 27 47
M  V30 END BOND
M  V30 END CTAB
M  END
>  <Dataset>  (26) 
ChEMBL_Kinases

>  <Ligand_Instance>  (26) 
nan

>  <PDB_ID>  (26) 
nan

>  <Standardized_SMILES>  (26) 
Cn1cc(-c2ccc(-c3cncc4ccc(C(=O)N5CCC5)nc34)cc2)cn1

>  <Name>  (26) 
nan

>  <Pocket>  (26) 
nan

>  <ATP_Site>  (26) 
nan

>  <Peripheral>  (26) 
nan

>  <Num_H_Atoms_ProtBoundConf>  (26) 
nan

>  <Num_Resolved_Atoms>  (26) 
nan

>  <Num_Not_Resolved_Atoms>  (26) 
nan

$$$$
CHEMBL3702228
     RDKit          3D

  0  0  0  0  0  0  0  0  0  0999 V3000
M  V30 BEGIN CTAB
M  V30 COUNTS 62 66 0 0 0
M  V30 BEGIN ATOM
M  V30 1 C -0.735874 1.347735 1.693125 0
M  V30 2 C -0.458458 2.545473 2.561010 0
M  V30 3 C 0.953317 3.067420 2.396783 0 CFG=2
M  V30 4 C 1.184426 3.469578 0.979359 0
M  V30 5 N 1.839082 2.021910 2.860814 0
M  V30 6 C 2.222269 1.728013 4.116113 0
M  V30 7 C 1.870838 2.346887 5.296789 0
M  V30 8 N 2.409715 1.831717 6.428535 0
M  V30 9 C 3.240871 0.776196 6.402520 0
M  V30 10 C 3.606407 0.139081 5.221358 0
M  V30 11 C 3.077873 0.633988 4.042129 0
M  V30 12 C 3.213459 0.260849 2.720388 0
M  V30 13 C 3.944534 -0.760305 2.156186 0
M  V30 14 N 3.895611 -0.916893 0.801215 0
M  V30 15 C 3.122730 -0.050242 0.079141 0
M  V30 16 N 2.840912 0.017584 -1.328904 0
M  V30 17 C 1.563783 -0.567846 -1.687238 0
M  V30 18 C 1.110983 -0.597712 -3.010480 0
M  V30 19 C -0.134842 -1.167732 -3.234825 0
M  V30 20 C -0.948873 -1.698550 -2.270942 0
M  V30 21 N -2.205949 -2.287318 -2.423713 0
M  V30 22 C -2.810201 -2.719528 -3.689165 0
M  V30 23 C -3.747246 -3.864286 -3.421944 0
M  V30 24 N -3.299827 -4.687147 -2.329589 0
M  V30 25 C -3.298609 -4.015539 -1.058652 0
M  V30 26 C -4.589521 -4.271594 -0.304670 0
M  V30 27 C -2.182434 -4.568194 -0.201930 0
M  V30 28 C -3.109431 -2.537457 -1.319775 0
M  V30 29 C -0.451385 -1.643110 -0.985144 0
M  V30 30 N 0.746890 -1.097416 -0.750158 0
M  V30 31 N 2.421289 0.938307 0.665190 0
M  V30 32 C 2.425158 1.150991 2.013026 0
M  V30 33 H -1.750180 0.975158 2.019602 0
M  V30 34 H -0.035681 0.502181 1.933267 0
M  V30 35 H -0.764633 1.581920 0.627694 0
M  V30 36 H -0.649310 2.239975 3.608914 0
M  V30 37 H -1.207717 3.315955 2.325958 0
M  V30 38 H 1.064366 3.965010 3.034708 0
M  V30 39 H 0.551455 4.390004 0.814163 0
M  V30 40 H 0.861307 2.756535 0.218524 0
M  V30 41 H 2.215135 3.816537 0.804854 0
M  V30 42 H 1.189801 3.207762 5.286021 0
M  V30 43 H 3.636166 0.416464 7.365754 0
M  V30 44 H 4.276359 -0.707347 5.244739 0
M  V30 45 H 4.557678 -1.455051 2.678334 0
M  V30 46 H 3.392378 0.410418 -2.118218 0
M  V30 47 H 1.715714 -0.195151 -3.785640 0
M  V30 48 H -0.518760 -1.206486 -4.256242 0
M  V30 49 H -3.381937 -1.848155 -4.121086 0
M  V30 50 H -2.022573 -2.952958 -4.448793 0
M  V30 51 H -4.753014 -3.456462 -3.179528 0
M  V30 52 H -3.788653 -4.497384 -4.325692 0
M  V30 53 H -3.780819 -5.599766 -2.317617 0
M  V30 54 H -5.121493 -5.149946 -0.721148 0
M  V30 55 H -5.278318 -3.410089 -0.351677 0
M  V30 56 H -4.392806 -4.532104 0.769033 0
M  V30 57 H -1.203960 -4.597948 -0.700991 0
M  V30 58 H -2.067208 -3.941302 0.729870 0
M  V30 59 H -2.427313 -5.578709 0.181089 0
M  V30 60 H -4.123625 -2.139253 -1.599997 0
M  V30 61 H -2.838696 -1.970745 -0.390437 0
M  V30 62 H -0.872340 -1.986162 -0.058300 0
M  V30 END ATOM
M  V30 BEGIN BOND
M  V30 1 1 1 2
M  V30 2 1 2 3
M  V30 3 1 3 4
M  V30 4 1 3 5
M  V30 5 1 5 6
M  V30 6 2 6 7
M  V30 7 1 7 8
M  V30 8 2 8 9
M  V30 9 1 9 10
M  V30 10 2 10 11
M  V30 11 1 11 12
M  V30 12 2 12 13
M  V30 13 1 13 14
M  V30 14 2 14 15
M  V30 15 1 15 16
M  V30 16 1 16 17
M  V30 17 2 17 18
M  V30 18 1 18 19
M  V30 19 2 19 20
M  V30 20 1 20 21
M  V30 21 1 21 22
M  V30 22 1 22 23
M  V30 23 1 23 24
M  V30 24 1 24 25
M  V30 25 1 25 26
M  V30 26 1 25 27
M  V30 27 1 25 28
M  V30 28 1 20 29
M  V30 29 2 29 30
M  V30 30 1 15 31
M  V30 31 2 31 32
M  V30 32 1 32 5
M  V30 33 1 11 6
M  V30 34 1 32 12
M  V30 35 1 30 17
M  V30 36 1 28 21
M  V30 37 1 1 33
M  V30 38 1 1 34
M  V30 39 1 1 35
M  V30 40 1 2 36
M  V30 41 1 2 37
M  V30 42 1 3 38 CFG=1
M  V30 43 1 4 39
M  V30 44 1 4 40
M  V30 45 1 4 41
M  V30 46 1 7 42
M  V30 47 1 9 43
M  V30 48 1 10 44
M  V30 49 1 13 45
M  V30 50 1 16 46
M  V30 51 1 18 47
M  V30 52 1 19 48
M  V30 53 1 22 49
M  V30 54 1 22 50
M  V30 55 1 23 51
M  V30 56 1 23 52
M  V30 57 1 24 53
M  V30 58 1 26 54
M  V30 59 1 26 55
M  V30 60 1 26 56
M  V30 61 1 27 57
M  V30 62 1 27 58
M  V30 63 1 27 59
M  V30 64 1 28 60
M  V30 65 1 28 61
M  V30 66 1 29 62
M  V30 END BOND
M  V30 END CTAB
M  END
>  <Dataset>  (27) 
ChEMBL_Kinases

>  <Ligand_Instance>  (27) 
nan

>  <PDB_ID>  (27) 
nan

>  <Standardized_SMILES>  (27) 
CC[C@H](C)n1c2cnccc2c2cnc(Nc3ccc(N4CCNC(C)(C)C4)cn3)nc21

>  <Name>  (27) 
nan

>  <Pocket>  (27) 
nan

>  <ATP_Site>  (27) 
nan

>  <Peripheral>  (27) 
nan

>  <Num_H_Atoms_ProtBoundConf>  (27) 
nan

>  <Num_Resolved_Atoms>  (27) 
nan

>  <Num_Not_Resolved_Atoms>  (27) 
nan

$$$$
CHEMBL3827790
     RDKit          3D

  0  0  0  0  0  0  0  0  0  0999 V3000
M  V30 BEGIN CTAB
M  V30 COUNTS 49 53 0 0 0
M  V30 BEGIN ATOM
M  V30 1 C -2.032774 -7.695069 -0.979666 0
M  V30 2 N -1.157616 -6.682777 -0.405333 0
M  V30 3 C -0.915369 -5.464310 -0.916384 0
M  V30 4 C -0.026103 -4.811149 -0.065222 0
M  V30 5 C 0.541421 -3.469279 -0.182587 0
M  V30 6 C 0.825343 -2.813567 0.998990 0
M  V30 7 C 1.362631 -1.545199 0.992656 0
M  V30 8 C 1.643803 -0.865395 -0.168642 0
M  V30 9 C 2.189174 0.460663 -0.370285 0
M  V30 10 C 3.303719 0.507584 -1.210816 0
M  V30 11 N 3.937449 1.663018 -1.475133 0
M  V30 12 C 3.530951 2.839967 -0.942790 0
M  V30 13 C 2.437961 2.848550 -0.109096 0
M  V30 14 C 1.946475 3.989051 0.473321 0
M  V30 15 C 0.845769 4.017117 1.308106 0
M  V30 16 C 0.245995 2.785659 1.531029 0
M  V30 17 N -0.914252 2.713565 2.389410 0
M  V30 18 C -1.397283 2.535095 3.715913 0
M  V30 19 C -2.367707 1.415472 3.784248 0
M  V30 20 C -3.076782 1.282569 2.446736 0
M  V30 21 S -2.553306 2.883173 1.804645 0
M  V30 22 O -3.290316 3.969929 2.484891 0
M  V30 23 O -2.610097 2.927703 0.312045 0
M  V30 24 C 0.680051 1.589697 0.982022 0
M  V30 25 C 1.788027 1.666917 0.162343 0
M  V30 26 C 1.351471 -1.541362 -1.358471 0
M  V30 27 C 0.805786 -2.830287 -1.377350 0
M  V30 28 C 0.232942 -5.712077 0.961658 0
M  V30 29 N -0.472779 -6.833052 0.716422 0
M  V30 30 H -3.098968 -7.484122 -0.787820 0
M  V30 31 H -1.879077 -7.840030 -2.058167 0
M  V30 32 H -1.810714 -8.690804 -0.509010 0
M  V30 33 H -1.325097 -5.041092 -1.825778 0
M  V30 34 H 0.636978 -3.270328 1.969619 0
M  V30 35 H 1.601500 -1.019706 1.893370 0
M  V30 36 H 3.783771 -0.327644 -1.735103 0
M  V30 37 H 3.992184 3.803545 -1.111005 0
M  V30 38 H 2.428159 4.951856 0.289029 0
M  V30 39 H 0.445491 4.908730 1.775589 0
M  V30 40 H -0.565241 2.298789 4.438157 0
M  V30 41 H -1.891125 3.452033 4.136280 0
M  V30 42 H -3.161967 1.563103 4.545624 0
M  V30 43 H -1.824398 0.447393 3.951583 0
M  V30 44 H -4.152744 1.199334 2.545777 0
M  V30 45 H -2.582011 0.505056 1.831568 0
M  V30 46 H 0.168191 0.686724 1.189645 0
M  V30 47 H 1.517630 -1.137408 -2.341773 0
M  V30 48 H 0.581957 -3.348408 -2.283544 0
M  V30 49 H 0.873799 -5.596677 1.828898 0
M  V30 END ATOM
M  V30 BEGIN BOND
M  V30 1 1 1 2
M  V30 2 1 2 3
M  V30 3 2 3 4
M  V30 4 1 4 5
M  V30 5 2 5 6
M  V30 6 1 6 7
M  V30 7 2 7 8
M  V30 8 1 8 9
M  V30 9 2 9 10
M  V30 10 1 10 11
M  V30 11 2 11 12
M  V30 12 1 12 13
M  V30 13 2 13 14
M  V30 14 1 14 15
M  V30 15 2 15 16
M  V30 16 1 16 17
M  V30 17 1 17 18
M  V30 18 1 18 19
M  V30 19 1 19 20
M  V30 20 1 20 21
M  V30 21 2 21 22
M  V30 22 2 21 23
M  V30 23 1 16 24
M  V30 24 2 24 25
M  V30 25 1 8 26
M  V30 26 2 26 27
M  V30 27 1 4 28
M  V30 28 2 28 29
M  V30 29 1 29 2
M  V30 30 1 27 5
M  V30 31 1 25 9
M  V30 32 1 25 13
M  V30 33 1 21 17
M  V30 34 1 1 30
M  V30 35 1 1 31
M  V30 36 1 1 32
M  V30 37 1 3 33
M  V30 38 1 6 34
M  V30 39 1 7 35
M  V30 40 1 10 36
M  V30 41 1 12 37
M  V30 42 1 14 38
M  V30 43 1 15 39
M  V30 44 1 18 40
M  V30 45 1 18 41
M  V30 46 1 19 42
M  V30 47 1 19 43
M  V30 48 1 20 44
M  V30 49 1 20 45
M  V30 50 1 24 46
M  V30 51 1 26 47
M  V30 52 1 27 48
M  V30 53 1 28 49
M  V30 END BOND
M  V30 END CTAB
M  END
>  <Dataset>  (28) 
ChEMBL_Kinases

>  <Ligand_Instance>  (28) 
nan

>  <PDB_ID>  (28) 
nan

>  <Standardized_SMILES>  (28) 
Cn1cc(-c2ccc(-c3cncc4ccc(N5CCCS5(=O)=O)cc34)cc2)cn1

>  <Name>  (28) 
nan

>  <Pocket>  (28) 
nan

>  <ATP_Site>  (28) 
nan

>  <Peripheral>  (28) 
nan

>  <Num_H_Atoms_ProtBoundConf>  (28) 
nan

>  <Num_Resolved_Atoms>  (28) 
nan

>  <Num_Not_Resolved_Atoms>  (28) 
nan

$$$$
CHEMBL3827774
     RDKit          3D

  0  0  0  0  0  0  0  0  0  0999 V3000
M  V30 BEGIN CTAB
M  V30 COUNTS 39 42 0 0 0
M  V30 BEGIN ATOM
M  V30 1 C 1.081283 -4.608059 2.138681 0
M  V30 2 N 1.022953 -3.494432 1.225658 0
M  V30 3 C 1.508235 -3.639656 -0.101155 0
M  V30 4 O 1.967093 -4.774266 -0.379956 0
M  V30 5 C 1.440065 -2.500574 -1.009310 0
M  V30 6 C 1.899329 -2.595599 -2.306525 0
M  V30 7 C 1.856912 -1.546249 -3.204843 0
M  V30 8 C 1.321195 -0.359503 -2.744368 0
M  V30 9 C 1.209942 0.777721 -3.520267 0
M  V30 10 N 0.688807 1.936940 -3.076988 0
M  V30 11 C 0.241351 2.009013 -1.793065 0
M  V30 12 C 0.311669 0.920182 -0.940604 0
M  V30 13 C -0.172123 1.009657 0.436259 0
M  V30 14 C -1.392299 1.617239 0.673574 0
M  V30 15 C -1.834880 1.693548 1.980021 0
M  V30 16 C -1.090007 1.181701 3.028975 0
M  V30 17 C 0.143573 0.566130 2.800187 0
M  V30 18 C 0.620242 0.171920 4.036031 0
M  V30 19 N -0.295005 0.540535 4.952047 0
M  V30 20 N -1.321609 1.143455 4.374789 0
M  V30 21 C -2.527136 1.698833 4.989524 0
M  V30 22 C 0.585196 0.492274 1.477209 0
M  V30 23 C 0.860708 -0.265237 -1.442713 0
M  V30 24 N 0.928461 -1.319848 -0.615948 0
M  V30 25 H 1.054473 -4.300083 3.198378 0
M  V30 26 H 0.155549 -5.214614 1.971498 0
M  V30 27 H 1.983419 -5.232626 2.019583 0
M  V30 28 H 0.615583 -2.617097 1.600302 0
M  V30 29 H 2.325592 -3.521730 -2.690661 0
M  V30 30 H 2.212209 -1.600961 -4.226795 0
M  V30 31 H 1.559512 0.745917 -4.547289 0
M  V30 32 H -0.184955 2.951886 -1.425160 0
M  V30 33 H -2.004057 2.029385 -0.118215 0
M  V30 34 H -2.805320 2.176749 2.168951 0
M  V30 35 H 1.567610 -0.336233 4.160215 0
M  V30 36 H -2.368765 1.846443 6.058494 0
M  V30 37 H -2.703375 2.705016 4.511653 0
M  V30 38 H -3.407919 1.054349 4.769464 0
M  V30 39 H 1.533454 0.017068 1.318482 0
M  V30 END ATOM
M  V30 BEGIN BOND
M  V30 1 1 1 2
M  V30 2 1 2 3
M  V30 3 2 3 4
M  V30 4 1 3 5
M  V30 5 2 5 6
M  V30 6 1 6 7
M  V30 7 2 7 8
M  V30 8 1 8 9
M  V30 9 2 9 10
M  V30 10 1 10 11
M  V30 11 2 11 12
M  V30 12 1 12 13
M  V30 13 2 13 14
M  V30 14 1 14 15
M  V30 15 2 15 16
M  V30 16 1 16 17
M  V30 17 1 17 18
M  V30 18 2 18 19
M  V30 19 1 19 20
M  V30 20 1 20 21
M  V30 21 2 17 22
M  V30 22 1 12 23
M  V30 23 2 23 24
M  V30 24 1 24 5
M  V30 25 1 23 8
M  V30 26 1 22 13
M  V30 27 1 20 16
M  V30 28 1 1 25
M  V30 29 1 1 26
M  V30 30 1 1 27
M  V30 31 1 2 28
M  V30 32 1 6 29
M  V30 33 1 7 30
M  V30 34 1 9 31
M  V30 35 1 11 32
M  V30 36 1 14 33
M  V30 37 1 15 34
M  V30 38 1 18 35
M  V30 39 1 21 36
M  V30 40 1 21 37
M  V30 41 1 21 38
M  V30 42 1 22 39
M  V30 END BOND
M  V30 END CTAB
M  END
>  <Dataset>  (29) 
ChEMBL_Kinases

>  <Ligand_Instance>  (29) 
nan

>  <PDB_ID>  (29) 
nan

>  <Standardized_SMILES>  (29) 
CNC(=O)c1ccc2cncc(-c3ccc4c(cnn4C)c3)c2n1

>  <Name>  (29) 
nan

>  <Pocket>  (29) 
nan

>  <ATP_Site>  (29) 
nan

>  <Peripheral>  (29) 
nan

>  <Num_H_Atoms_ProtBoundConf>  (29) 
nan

>  <Num_Resolved_Atoms>  (29) 
nan

>  <Num_Not_Resolved_Atoms>  (29) 
nan

$$$$
CHEMBL3827758
     RDKit          3D

  0  0  0  0  0  0  0  0  0  0999 V3000
M  V30 BEGIN CTAB
M  V30 COUNTS 54 58 0 0 0
M  V30 BEGIN ATOM
M  V30 1 C 1.668880 -2.507676 4.334271 0
M  V30 2 O 2.120340 -2.347365 3.036504 0
M  V30 3 C 3.491754 -2.590462 2.993676 0
M  V30 4 C 3.944001 -3.272694 1.710554 0
M  V30 5 N 3.562559 -2.010228 1.056729 0
M  V30 6 C 2.956040 -1.651446 -0.162012 0
M  V30 7 O 2.658234 -2.638521 -0.910890 0
M  V30 8 C 2.767984 -0.205198 -0.361344 0
M  V30 9 C 3.740791 0.754567 -0.549689 0
M  V30 10 C 3.379033 2.078490 -0.718793 0
M  V30 11 C 2.054417 2.406707 -0.694126 0
M  V30 12 C 1.685835 3.735550 -0.873826 0
M  V30 13 N 2.711825 4.690987 -1.066771 0
M  V30 14 N 0.375389 4.095802 -0.864348 0
M  V30 15 C -0.604420 3.191975 -0.681527 0
M  V30 16 C -0.327054 1.846950 -0.494235 0
M  V30 17 C -1.365295 0.854255 -0.263765 0
M  V30 18 C -2.367542 0.696070 -1.168539 0
M  V30 19 C -3.407324 -0.190948 -1.081342 0
M  V30 20 C -3.475625 -1.019679 0.017248 0
M  V30 21 C -4.434606 -2.055069 0.354084 0
M  V30 22 C -5.011672 -2.623228 1.471757 0
M  V30 23 N -5.834163 -3.588940 1.065443 0
M  V30 24 N -5.814790 -3.671122 -0.273109 0
M  V30 25 C -6.609186 -4.637240 -0.978818 0
M  V30 26 C -4.962814 -2.737112 -0.720389 0
M  V30 27 C -2.488215 -0.907634 0.973890 0
M  V30 28 C -1.454608 0.003623 0.846162 0
M  V30 29 C 1.014247 1.523379 -0.512761 0
M  V30 30 C 1.436804 0.201029 -0.348028 0
M  V30 31 C 4.119261 -1.383323 2.267977 0
M  V30 32 H 1.839775 -3.526061 4.740786 0
M  V30 33 H 0.561255 -2.307784 4.321322 0
M  V30 34 H 2.214197 -1.713736 4.929073 0
M  V30 35 H 3.996034 -2.864353 3.913925 0
M  V30 36 H 5.031277 -3.388247 1.656105 0
M  V30 37 H 3.312280 -4.129103 1.398407 0
M  V30 38 H 4.753501 0.367772 -0.550525 0
M  V30 39 H 4.162361 2.805890 -0.862217 0
M  V30 40 H 3.535462 4.597520 -1.689691 0
M  V30 41 H 2.662606 5.586217 -0.546255 0
M  V30 42 H -1.669845 3.449341 -0.668676 0
M  V30 43 H -2.358217 1.332853 -2.060851 0
M  V30 44 H -4.221427 -0.344287 -1.776634 0
M  V30 45 H -4.693516 -2.189665 2.429423 0
M  V30 46 H -6.549935 -5.653600 -0.520045 0
M  V30 47 H -7.669345 -4.344487 -1.024713 0
M  V30 48 H -6.186532 -4.735158 -2.012582 0
M  V30 49 H -4.833347 -2.674128 -1.801748 0
M  V30 50 H -2.417789 -1.491338 1.887769 0
M  V30 51 H -0.666578 0.108080 1.608818 0
M  V30 52 H 0.654170 -0.543594 -0.214556 0
M  V30 53 H 3.690238 -0.415879 2.540614 0
M  V30 54 H 5.214255 -1.491204 2.306969 0
M  V30 END ATOM
M  V30 BEGIN BOND
M  V30 1 1 1 2
M  V30 2 1 2 3
M  V30 3 1 3 4
M  V30 4 1 4 5
M  V30 5 1 5 6
M  V30 6 2 6 7
M  V30 7 1 6 8
M  V30 8 2 8 9
M  V30 9 1 9 10
M  V30 10 2 10 11
M  V30 11 1 11 12
M  V30 12 1 12 13
M  V30 13 2 12 14
M  V30 14 1 14 15
M  V30 15 2 15 16
M  V30 16 1 16 17
M  V30 17 2 17 18
M  V30 18 1 18 19
M  V30 19 2 19 20
M  V30 20 1 20 21
M  V30 21 1 21 22
M  V30 22 2 22 23
M  V30 23 1 23 24
M  V30 24 1 24 25
M  V30 25 1 24 26
M  V30 26 1 20 27
M  V30 27 2 27 28
M  V30 28 1 16 29
M  V30 29 2 29 30
M  V30 30 1 5 31
M  V30 31 1 31 3
M  V30 32 1 30 8
M  V30 33 1 29 11
M  V30 34 1 28 17
M  V30 35 2 26 21
M  V30 36 1 1 32
M  V30 37 1 1 33
M  V30 38 1 1 34
M  V30 39 1 3 35
M  V30 40 1 4 36
M  V30 41 1 4 37
M  V30 42 1 9 38
M  V30 43 1 10 39
M  V30 44 1 13 40
M  V30 45 1 13 41
M  V30 46 1 15 42
M  V30 47 1 18 43
M  V30 48 1 19 44
M  V30 49 1 22 45
M  V30 50 1 25 46
M  V30 51 1 25 47
M  V30 52 1 25 48
M  V30 53 1 26 49
M  V30 54 1 27 50
M  V30 55 1 28 51
M  V30 56 1 30 52
M  V30 57 1 31 53
M  V30 58 1 31 54
M  V30 END BOND
M  V30 END CTAB
M  END
>  <Dataset>  (30) 
ChEMBL_Kinases

>  <Ligand_Instance>  (30) 
nan

>  <PDB_ID>  (30) 
nan

>  <Standardized_SMILES>  (30) 
COC1CN(C(=O)c2ccc3c(N)ncc(-c4ccc(-c5cnn(C)c5)cc4)c3c2)C1

>  <Name>  (30) 
nan

>  <Pocket>  (30) 
nan

>  <ATP_Site>  (30) 
nan

>  <Peripheral>  (30) 
nan

>  <Num_H_Atoms_ProtBoundConf>  (30) 
nan

>  <Num_Resolved_Atoms>  (30) 
nan

>  <Num_Not_Resolved_Atoms>  (30) 
nan

$$$$
CHEMBL3827605
     RDKit          3D

  0  0  0  0  0  0  0  0  0  0999 V3000
M  V30 BEGIN CTAB
M  V30 COUNTS 48 52 0 0 0
M  V30 BEGIN ATOM
M  V30 1 C -2.251421 -7.298820 -1.013261 0
M  V30 2 N -1.080639 -6.424421 -1.024422 0
M  V30 3 C -1.019599 -5.137022 -0.713753 0
M  V30 4 C 0.290743 -4.664347 -0.853016 0
M  V30 5 C 0.709444 -3.296792 -0.592834 0
M  V30 6 C 1.953517 -2.925015 -0.132453 0
M  V30 7 C 2.248842 -1.574914 0.083878 0
M  V30 8 C 1.317050 -0.567988 -0.151830 0
M  V30 9 C 1.830833 0.763137 0.122483 0
M  V30 10 C 3.032728 1.077823 -0.522871 0
M  V30 11 N 3.659654 2.268512 -0.418281 0
M  V30 12 C 3.085671 3.223361 0.364986 0
M  V30 13 N 3.612820 4.546998 0.590964 0
M  V30 14 C 1.907020 2.994038 1.032625 0
M  V30 15 C 1.280185 3.912069 1.842841 0
M  V30 16 C 0.096845 3.578325 2.477242 0
M  V30 17 C -0.518573 2.350685 2.350938 0
M  V30 18 N -1.734128 2.010796 3.006237 0
M  V30 19 C -2.399387 0.724436 2.888344 0
M  V30 20 C -3.817508 1.120776 3.242118 0
M  V30 21 O -3.587633 2.057559 4.278959 0
M  V30 22 C -2.507141 2.831587 3.874026 0
M  V30 23 O -2.304782 4.018067 4.236325 0
M  V30 24 C 0.118766 1.437587 1.535686 0
M  V30 25 C 1.298078 1.765756 0.900492 0
M  V30 26 C 0.078866 -0.960525 -0.612469 0
M  V30 27 C -0.215609 -2.287661 -0.826303 0
M  V30 28 C 0.988658 -5.794674 -1.273648 0
M  V30 29 N 0.129482 -6.831937 -1.364634 0
M  V30 30 H -2.190054 -8.002086 -0.139637 0
M  V30 31 H -3.181822 -6.715262 -0.843198 0
M  V30 32 H -2.351061 -7.830929 -1.983485 0
M  V30 33 H -1.848745 -4.501375 -0.391316 0
M  V30 34 H 2.680671 -3.704268 0.052012 0
M  V30 35 H 3.268494 -1.407893 0.449543 0
M  V30 36 H 3.568187 0.384528 -1.168740 0
M  V30 37 H 3.137591 5.089091 -0.165181 0
M  V30 38 H 3.187010 5.171510 -0.130736 0
M  V30 39 H 1.742845 4.888196 1.960969 0
M  V30 40 H -0.325376 4.341088 3.085423 0
M  V30 41 H -2.330509 0.286466 1.873953 0
M  V30 42 H -2.049240 0.031312 3.677726 0
M  V30 43 H -4.421069 0.259024 3.580937 0
M  V30 44 H -4.239083 1.600885 2.331003 0
M  V30 45 H -0.347271 0.479845 1.438816 0
M  V30 46 H -0.608222 -0.169087 -0.793235 0
M  V30 47 H -1.216447 -2.524672 -1.191339 0
M  V30 48 H 2.065345 -5.760981 -1.477159 0
M  V30 END ATOM
M  V30 BEGIN BOND
M  V30 1 1 1 2
M  V30 2 1 2 3
M  V30 3 2 3 4
M  V30 4 1 4 5
M  V30 5 2 5 6
M  V30 6 1 6 7
M  V30 7 2 7 8
M  V30 8 1 8 9
M  V30 9 2 9 10
M  V30 10 1 10 11
M  V30 11 2 11 12
M  V30 12 1 12 13
M  V30 13 1 12 14
M  V30 14 2 14 15
M  V30 15 1 15 16
M  V30 16 2 16 17
M  V30 17 1 17 18
M  V30 18 1 18 19
M  V30 19 1 19 20
M  V30 20 1 20 21
M  V30 21 1 21 22
M  V30 22 2 22 23
M  V30 23 1 17 24
M  V30 24 2 24 25
M  V30 25 1 8 26
M  V30 26 2 26 27
M  V30 27 1 4 28
M  V30 28 2 28 29
M  V30 29 1 29 2
M  V30 30 1 27 5
M  V30 31 1 25 9
M  V30 32 1 25 14
M  V30 33 1 22 18
M  V30 34 1 1 30
M  V30 35 1 1 31
M  V30 36 1 1 32
M  V30 37 1 3 33
M  V30 38 1 6 34
M  V30 39 1 7 35
M  V30 40 1 10 36
M  V30 41 1 13 37
M  V30 42 1 13 38
M  V30 43 1 15 39
M  V30 44 1 16 40
M  V30 45 1 19 41
M  V30 46 1 19 42
M  V30 47 1 20 43
M  V30 48 1 20 44
M  V30 49 1 24 45
M  V30 50 1 26 46
M  V30 51 1 27 47
M  V30 52 1 28 48
M  V30 END BOND
M  V30 END CTAB
M  END
>  <Dataset>  (31) 
ChEMBL_Kinases

>  <Ligand_Instance>  (31) 
nan

>  <PDB_ID>  (31) 
nan

>  <Standardized_SMILES>  (31) 
Cn1cc(-c2ccc(-c3cnc(N)c4ccc(N5CCOC5=O)cc34)cc2)cn1

>  <Name>  (31) 
nan

>  <Pocket>  (31) 
nan

>  <ATP_Site>  (31) 
nan

>  <Peripheral>  (31) 
nan

>  <Num_H_Atoms_ProtBoundConf>  (31) 
nan

>  <Num_Resolved_Atoms>  (31) 
nan

>  <Num_Not_Resolved_Atoms>  (31) 
nan

$$$$
CHEMBL3827727
     RDKit          3D

  0  0  0  0  0  0  0  0  0  0999 V3000
M  V30 BEGIN CTAB
M  V30 COUNTS 40 43 0 0 0
M  V30 BEGIN ATOM
M  V30 1 C 3.905484 -1.241853 2.162038 0
M  V30 2 C 3.999363 -1.037458 0.672664 0
M  V30 3 N 4.765132 -1.819994 -0.113149 0
M  V30 4 C 4.660443 -1.406674 -1.401617 0
M  V30 5 C 5.195159 -1.805442 -2.635768 0
M  V30 6 C 4.838610 -1.111174 -3.797386 0
M  V30 7 C 3.958022 -0.026236 -3.741722 0
M  V30 8 C 3.425366 0.379818 -2.540846 0
M  V30 9 C 3.783905 -0.313565 -1.402587 0
M  V30 10 N 3.406233 -0.119076 -0.142542 0
M  V30 11 C 2.514708 0.872226 0.458961 0
M  V30 12 C 1.098194 0.353103 0.445676 0
M  V30 13 N 0.112483 0.616795 -0.488375 0
M  V30 14 N -1.003709 0.043859 -0.271130 0
M  V30 15 C -1.340960 -0.670017 0.585371 0
M  V30 16 N -2.651763 -1.242729 0.706442 0
M  V30 17 C -3.518192 -0.826895 1.753340 0
M  V30 18 C -3.030131 0.039195 2.708544 0
M  V30 19 C -3.868508 0.436723 3.745575 0
M  V30 20 C -5.188680 -0.039452 3.813841 0
M  V30 21 N -6.039058 0.367683 4.876831 0 CHG=1 VAL=4
M  V30 22 O -5.615807 1.151612 5.762075 0
M  V30 23 O -7.330008 -0.146480 4.868192 0 CHG=-1 VAL=1
M  V30 24 C -5.656720 -0.913134 2.835665 0
M  V30 25 C -4.809269 -1.311403 1.791589 0
M  V30 26 S 0.260004 -0.777073 1.631444 0
M  V30 27 H 3.420405 -2.245371 2.333581 0
M  V30 28 H 4.896810 -1.244159 2.623581 0
M  V30 29 H 3.250515 -0.496739 2.627638 0
M  V30 30 H 5.872047 -2.650219 -2.634577 0
M  V30 31 H 5.318860 -1.521553 -4.686417 0
M  V30 32 H 3.741908 0.444690 -4.702290 0
M  V30 33 H 2.753118 1.210701 -2.514072 0
M  V30 34 H 2.787316 1.121331 1.497431 0
M  V30 35 H 2.487982 1.757192 -0.189137 0
M  V30 36 H -2.863166 -1.952217 -0.023602 0
M  V30 37 H -2.015549 0.447767 2.714966 0
M  V30 38 H -3.486076 1.124227 4.509463 0
M  V30 39 H -6.686102 -1.306120 2.853431 0
M  V30 40 H -5.144890 -1.990332 1.012707 0
M  V30 END ATOM
M  V30 BEGIN BOND
M  V30 1 1 1 2
M  V30 2 2 2 3
M  V30 3 1 3 4
M  V30 4 2 4 5
M  V30 5 1 5 6
M  V30 6 2 6 7
M  V30 7 1 7 8
M  V30 8 2 8 9
M  V30 9 1 9 10
M  V30 10 1 10 11
M  V30 11 1 11 12
M  V30 12 2 12 13
M  V30 13 1 13 14
M  V30 14 2 14 15
M  V30 15 1 15 16
M  V30 16 1 16 17
M  V30 17 2 17 18
M  V30 18 1 18 19
M  V30 19 2 19 20
M  V30 20 1 20 21
M  V30 21 2 21 22
M  V30 22 1 21 23
M  V30 23 1 20 24
M  V30 24 2 24 25
M  V30 25 1 15 26
M  V30 26 1 10 2
M  V30 27 1 26 12
M  V30 28 1 9 4
M  V30 29 1 25 17
M  V30 30 1 1 27
M  V30 31 1 1 28
M  V30 32 1 1 29
M  V30 33 1 5 30
M  V30 34 1 6 31
M  V30 35 1 7 32
M  V30 36 1 8 33
M  V30 37 1 11 34
M  V30 38 1 11 35
M  V30 39 1 16 36
M  V30 40 1 18 37
M  V30 41 1 19 38
M  V30 42 1 24 39
M  V30 43 1 25 40
M  V30 END BOND
M  V30 END CTAB
M  END
>  <Dataset>  (32) 
ChEMBL_Kinases

>  <Ligand_Instance>  (32) 
nan

>  <PDB_ID>  (32) 
nan

>  <Standardized_SMILES>  (32) 
Cc1nc2ccccc2n1Cc1nnc(Nc2ccc([N+](=O)[O-])cc2)s1

>  <Name>  (32) 
nan

>  <Pocket>  (32) 
nan

>  <ATP_Site>  (32) 
nan

>  <Peripheral>  (32) 
nan

>  <Num_H_Atoms_ProtBoundConf>  (32) 
nan

>  <Num_Resolved_Atoms>  (32) 
nan

>  <Num_Not_Resolved_Atoms>  (32) 
nan

$$$$
CHEMBL3827726
     RDKit          3D

  0  0  0  0  0  0  0  0  0  0999 V3000
M  V30 BEGIN CTAB
M  V30 COUNTS 43 46 0 0 0
M  V30 BEGIN ATOM
M  V30 1 C 4.706686 -1.431207 1.286932 0
M  V30 2 C 3.931079 -1.073289 0.069931 0
M  V30 3 N 3.926024 -1.957088 -0.941778 0
M  V30 4 C 3.169486 -1.446446 -1.948755 0
M  V30 5 C 2.765742 -1.821853 -3.221580 0
M  V30 6 C 1.960256 -0.988830 -3.966437 0
M  V30 7 C 1.535069 0.223013 -3.484675 0
M  V30 8 C 1.924728 0.622727 -2.213876 0
M  V30 9 C 2.731204 -0.225673 -1.484923 0
M  V30 10 N 3.183524 0.025193 -0.252626 0
M  V30 11 C 3.068817 1.095887 0.720449 0
M  V30 12 C 1.889345 0.859547 1.608588 0
M  V30 13 O 1.851199 -0.120617 0.796242 0
M  V30 14 N 1.253916 1.454060 2.711101 0
M  V30 15 N 0.158986 0.667130 3.040989 0
M  V30 16 C -1.030923 1.097394 2.358319 0
M  V30 17 O -0.748629 2.098042 1.626056 0
M  V30 18 C -2.295445 0.403196 2.566083 0
M  V30 19 C -3.401934 1.200621 2.864315 0
M  V30 20 N -4.442739 0.337905 3.008961 0
M  V30 21 C -4.002326 -0.916367 2.811636 0
M  V30 22 C -4.590170 -2.187586 2.826777 0
M  V30 23 C -3.871543 -3.341814 2.579288 0
M  V30 24 C -2.513809 -3.238857 2.304672 0
M  V30 25 C -1.859635 -2.022305 2.270817 0
M  V30 26 C -2.651254 -0.933841 2.528007 0
M  V30 27 H 4.307047 -2.360269 1.747600 0
M  V30 28 H 5.784322 -1.586840 0.990919 0
M  V30 29 H 4.683266 -0.656916 2.054102 0
M  V30 30 H 3.150380 -2.793733 -3.517888 0
M  V30 31 H 1.743095 -1.445243 -4.939266 0
M  V30 32 H 0.908770 0.798544 -4.147769 0
M  V30 33 H 1.574416 1.595185 -1.846237 0
M  V30 34 H 4.000648 1.237583 1.271660 0
M  V30 35 H 2.861271 2.068319 0.184171 0
M  V30 36 H 1.833199 2.299045 2.905068 0
M  V30 37 H 0.173377 -0.141127 3.700131 0
M  V30 38 H -3.539949 2.257072 2.982602 0
M  V30 39 H -5.442346 0.575061 3.237467 0
M  V30 40 H -5.666082 -2.262526 3.045511 0
M  V30 41 H -4.338765 -4.316072 2.594966 0
M  V30 42 H -1.898667 -4.129038 2.100161 0
M  V30 43 H -0.806667 -1.897371 2.061081 0
M  V30 END ATOM
M  V30 BEGIN BOND
M  V30 1 1 1 2
M  V30 2 2 2 3
M  V30 3 1 3 4
M  V30 4 2 4 5
M  V30 5 1 5 6
M  V30 6 2 6 7
M  V30 7 1 7 8
M  V30 8 2 8 9
M  V30 9 1 9 10
M  V30 10 1 10 11
M  V30 11 1 11 12
M  V30 12 2 12 13
M  V30 13 1 12 14
M  V30 14 1 14 15
M  V30 15 1 15 16
M  V30 16 2 16 17
M  V30 17 1 16 18
M  V30 18 2 18 19
M  V30 19 1 19 20
M  V30 20 1 20 21
M  V30 21 2 21 22
M  V30 22 1 22 23
M  V30 23 2 23 24
M  V30 24 1 24 25
M  V30 25 2 25 26
M  V30 26 1 10 2
M  V30 27 1 26 18
M  V30 28 1 9 4
M  V30 29 1 26 21
M  V30 30 1 1 27
M  V30 31 1 1 28
M  V30 32 1 1 29
M  V30 33 1 5 30
M  V30 34 1 6 31
M  V30 35 1 7 32
M  V30 36 1 8 33
M  V30 37 1 11 34
M  V30 38 1 11 35
M  V30 39 1 14 36
M  V30 40 1 15 37
M  V30 41 1 19 38
M  V30 42 1 20 39
M  V30 43 1 22 40
M  V30 44 1 23 41
M  V30 45 1 24 42
M  V30 46 1 25 43
M  V30 END BOND
M  V30 END CTAB
M  END
>  <Dataset>  (33) 
ChEMBL_Kinases

>  <Ligand_Instance>  (33) 
nan

>  <PDB_ID>  (33) 
nan

>  <Standardized_SMILES>  (33) 
Cc1nc2ccccc2n1CC(=O)NNC(=O)c1c[nH]c2ccccc12

>  <Name>  (33) 
nan

>  <Pocket>  (33) 
nan

>  <ATP_Site>  (33) 
nan

>  <Peripheral>  (33) 
nan

>  <Num_H_Atoms_ProtBoundConf>  (33) 
nan

>  <Num_Resolved_Atoms>  (33) 
nan

>  <Num_Not_Resolved_Atoms>  (33) 
nan

$$$$
CHEMBL3827724
     RDKit          3D

  0  0  0  0  0  0  0  0  0  0999 V3000
M  V30 BEGIN CTAB
M  V30 COUNTS 51 53 0 0 0
M  V30 BEGIN ATOM
M  V30 1 C 6.997485 -5.362304 1.488323 0
M  V30 2 O 7.166636 -3.982405 1.538526 0
M  V30 3 C 6.133701 -3.072676 1.739908 0
M  V30 4 C 4.840684 -3.496304 1.907070 0
M  V30 5 C 3.748201 -2.682414 2.109423 0
M  V30 6 C 3.988360 -1.299844 2.146542 0
M  V30 7 C 2.910771 -0.326765 2.354358 0
M  V30 8 O 2.894375 0.929268 2.438974 0
M  V30 9 C 1.560647 -0.897908 2.496805 0
M  V30 10 C 0.466080 0.062323 2.766482 0
M  V30 11 C 0.229837 1.119599 1.800748 0
M  V30 12 O 0.731728 1.649602 0.780057 0
M  V30 13 N -0.957581 1.790880 2.083502 0
M  V30 14 N -1.393895 2.886167 1.267776 0
M  V30 15 C -2.182662 2.271328 0.287327 0
M  V30 16 O -2.263906 0.981062 0.417704 0
M  V30 17 C -3.044904 2.344771 -0.922523 0
M  V30 18 N -3.505442 1.041410 -1.323219 0
M  V30 19 C -2.889608 0.184815 -2.189904 0
M  V30 20 C -1.595056 0.438106 -2.891578 0
M  V30 21 N -3.590215 -0.961221 -2.349714 0
M  V30 22 C -4.699576 -0.879943 -1.577664 0
M  V30 23 C -5.784904 -1.707921 -1.304919 0
M  V30 24 C -6.800249 -1.347646 -0.436155 0
M  V30 25 C -6.709027 -0.110621 0.172329 0
M  V30 26 C -5.618740 0.697506 -0.114748 0
M  V30 27 C -4.603428 0.351316 -0.976433 0
M  V30 28 C 5.311570 -0.887770 1.974445 0
M  V30 29 C 6.392302 -1.721206 1.773466 0
M  V30 30 H 6.541611 -5.761102 2.439128 0
M  V30 31 H 6.383463 -5.674890 0.613264 0
M  V30 32 H 8.033073 -5.815503 1.447892 0
M  V30 33 H 4.560354 -4.567883 1.890122 0
M  V30 34 H 2.733621 -3.039261 2.244187 0
M  V30 35 H 1.581355 -1.584454 3.408356 0
M  V30 36 H 1.357495 -1.608022 1.669330 0
M  V30 37 H -0.489527 -0.459311 3.024330 0
M  V30 38 H 0.741344 0.589850 3.736396 0
M  V30 39 H -1.711294 1.688199 2.833164 0
M  V30 40 H -1.507652 3.889035 0.916141 0
M  V30 41 H -3.886080 3.020827 -0.690736 0
M  V30 42 H -2.515896 2.823140 -1.779710 0
M  V30 43 H -1.754008 0.907666 -3.863632 0
M  V30 44 H -0.939417 1.143414 -2.299020 0
M  V30 45 H -1.057119 -0.542009 -3.014392 0
M  V30 46 H -5.730911 -2.660280 -1.859093 0
M  V30 47 H -7.529925 -2.126975 -0.368377 0
M  V30 48 H -7.531066 0.094990 0.839361 0
M  V30 49 H -5.650690 1.650044 0.424320 0
M  V30 50 H 5.508020 0.184743 2.000119 0
M  V30 51 H 7.377766 -1.290130 1.656601 0
M  V30 END ATOM
M  V30 BEGIN BOND
M  V30 1 1 1 2
M  V30 2 1 2 3
M  V30 3 2 3 4
M  V30 4 1 4 5
M  V30 5 2 5 6
M  V30 6 1 6 7
M  V30 7 2 7 8
M  V30 8 1 7 9
M  V30 9 1 9 10
M  V30 10 1 10 11
M  V30 11 2 11 12
M  V30 12 1 11 13
M  V30 13 1 13 14
M  V30 14 1 14 15
M  V30 15 2 15 16
M  V30 16 1 15 17
M  V30 17 1 17 18
M  V30 18 1 18 19
M  V30 19 1 19 20
M  V30 20 2 19 21
M  V30 21 1 21 22
M  V30 22 2 22 23
M  V30 23 1 23 24
M  V30 24 2 24 25
M  V30 25 1 25 26
M  V30 26 2 26 27
M  V30 27 1 6 28
M  V30 28 2 28 29
M  V30 29 1 29 3
M  V30 30 1 27 18
M  V30 31 1 27 22
M  V30 32 1 1 30
M  V30 33 1 1 31
M  V30 34 1 1 32
M  V30 35 1 4 33
M  V30 36 1 5 34
M  V30 37 1 9 35
M  V30 38 1 9 36
M  V30 39 1 10 37
M  V30 40 1 10 38
M  V30 41 1 13 39
M  V30 42 1 14 40
M  V30 43 1 17 41
M  V30 44 1 17 42
M  V30 45 1 20 43
M  V30 46 1 20 44
M  V30 47 1 20 45
M  V30 48 1 23 46
M  V30 49 1 24 47
M  V30 50 1 25 48
M  V30 51 1 26 49
M  V30 52 1 28 50
M  V30 53 1 29 51
M  V30 END BOND
M  V30 END CTAB
M  END
>  <Dataset>  (34) 
ChEMBL_Kinases

>  <Ligand_Instance>  (34) 
nan

>  <PDB_ID>  (34) 
nan

>  <Standardized_SMILES>  (34) 
COc1ccc(C(=O)CCC(=O)NNC(=O)Cn2c(C)nc3ccccc32)cc1

>  <Name>  (34) 
nan

>  <Pocket>  (34) 
nan

>  <ATP_Site>  (34) 
nan

>  <Peripheral>  (34) 
nan

>  <Num_H_Atoms_ProtBoundConf>  (34) 
nan

>  <Num_Resolved_Atoms>  (34) 
nan

>  <Num_Not_Resolved_Atoms>  (34) 
nan

$$$$
CHEMBL3827702
     RDKit          3D

  0  0  0  0  0  0  0  0  0  0999 V3000
M  V30 BEGIN CTAB
M  V30 COUNTS 38 41 0 0 0
M  V30 BEGIN ATOM
M  V30 1 C -0.486596 -2.831448 -2.964628 0
M  V30 2 C 0.626553 -2.767512 -1.990334 0
M  V30 3 N 1.101503 -3.809629 -1.280003 0
M  V30 4 C 2.114511 -3.378285 -0.496379 0
M  V30 5 C 2.956491 -3.984543 0.420943 0
M  V30 6 C 3.924791 -3.218254 1.072194 0
M  V30 7 C 4.063017 -1.862286 0.821271 0
M  V30 8 C 3.203047 -1.291019 -0.102397 0
M  V30 9 C 2.225328 -2.027776 -0.770066 0
M  V30 10 N 1.305223 -1.642618 -1.695832 0
M  V30 11 C 1.169132 -0.291484 -2.190130 0
M  V30 12 C 0.200656 0.490419 -1.337372 0
M  V30 13 N -0.907423 0.746038 -1.248972 0
M  V30 14 N -1.567987 1.462941 -0.412464 0
M  V30 15 C -0.861288 2.038934 0.556988 0
M  V30 16 N -1.423165 2.904912 1.620685 0
M  V30 17 C -1.848895 2.219074 2.789401 0
M  V30 18 C -1.736718 0.848527 2.881144 0
M  V30 19 C -2.140255 0.133349 4.005018 0
M  V30 20 C -2.674235 0.831466 5.068386 0
M  V30 21 Cl -3.201145 -0.030468 6.516386 0
M  V30 22 C -2.782787 2.216714 4.964632 0
M  V30 23 C -2.382099 2.923048 3.850082 0
M  V30 24 S 0.899653 1.442696 0.152855 0
M  V30 25 H -1.319843 -3.408122 -2.506552 0
M  V30 26 H -0.807056 -1.830300 -3.279330 0
M  V30 27 H -0.177127 -3.428017 -3.872376 0
M  V30 28 H 2.864565 -5.038420 0.629861 0
M  V30 29 H 4.592189 -3.675352 1.792675 0
M  V30 30 H 4.823837 -1.269370 1.335917 0
M  V30 31 H 3.358409 -0.223256 -0.258838 0
M  V30 32 H 0.760676 -0.242107 -3.199301 0
M  V30 33 H 2.180625 0.205476 -2.121413 0
M  V30 34 H -1.505915 3.939157 1.534701 0
M  V30 35 H -1.325649 0.252241 2.076563 0
M  V30 36 H -2.066130 -0.941261 4.108124 0
M  V30 37 H -3.208840 2.720764 5.826816 0
M  V30 38 H -2.472335 3.994638 3.783930 0
M  V30 END ATOM
M  V30 BEGIN BOND
M  V30 1 1 1 2
M  V30 2 2 2 3
M  V30 3 1 3 4
M  V30 4 2 4 5
M  V30 5 1 5 6
M  V30 6 2 6 7
M  V30 7 1 7 8
M  V30 8 2 8 9
M  V30 9 1 9 10
M  V30 10 1 10 11
M  V30 11 1 11 12
M  V30 12 2 12 13
M  V30 13 1 13 14
M  V30 14 2 14 15
M  V30 15 1 15 16
M  V30 16 1 16 17
M  V30 17 2 17 18
M  V30 18 1 18 19
M  V30 19 2 19 20
M  V30 20 1 20 21
M  V30 21 1 20 22
M  V30 22 2 22 23
M  V30 23 1 15 24
M  V30 24 1 10 2
M  V30 25 1 24 12
M  V30 26 1 9 4
M  V30 27 1 23 17
M  V30 28 1 1 25
M  V30 29 1 1 26
M  V30 30 1 1 27
M  V30 31 1 5 28
M  V30 32 1 6 29
M  V30 33 1 7 30
M  V30 34 1 8 31
M  V30 35 1 11 32
M  V30 36 1 11 33
M  V30 37 1 16 34
M  V30 38 1 18 35
M  V30 39 1 19 36
M  V30 40 1 22 37
M  V30 41 1 23 38
M  V30 END BOND
M  V30 END CTAB
M  END
>  <Dataset>  (35) 
ChEMBL_Kinases

>  <Ligand_Instance>  (35) 
nan

>  <PDB_ID>  (35) 
nan

>  <Standardized_SMILES>  (35) 
Cc1nc2ccccc2n1Cc1nnc(Nc2ccc(Cl)cc2)s1

>  <Name>  (35) 
nan

>  <Pocket>  (35) 
nan

>  <ATP_Site>  (35) 
nan

>  <Peripheral>  (35) 
nan

>  <Num_H_Atoms_ProtBoundConf>  (35) 
nan

>  <Num_Resolved_Atoms>  (35) 
nan

>  <Num_Not_Resolved_Atoms>  (35) 
nan

$$$$
CHEMBL3827699
     RDKit          3D

  0  0  0  0  0  0  0  0  0  0999 V3000
M  V30 BEGIN CTAB
M  V30 COUNTS 44 47 0 0 0
M  V30 BEGIN ATOM
M  V30 1 C -2.662817 -5.151859 -0.675426 0
M  V30 2 C -2.396663 -3.825340 -1.270296 0
M  V30 3 O -3.341945 -3.012292 -1.363559 0
M  V30 4 N -1.051988 -3.551588 -1.708770 0
M  V30 5 C -0.572121 -2.346135 -2.307748 0
M  V30 6 C -0.614728 -2.212319 -3.700634 0
M  V30 7 C -0.154592 -1.051613 -4.301308 0
M  V30 8 C 0.356844 0.003601 -3.555635 0
M  V30 9 C 0.834125 1.176793 -4.100631 0
M  V30 10 N 1.320664 2.147742 -3.290493 0
M  V30 11 C 1.348015 1.987613 -1.935052 0
M  V30 12 C 0.875687 0.816390 -1.328039 0
M  V30 13 C 0.946490 0.808410 0.105608 0
M  V30 14 C -0.043643 0.548560 1.037499 0
M  V30 15 C 0.269393 0.583632 2.379730 0
M  V30 16 C 1.522110 0.864598 2.880282 0
M  V30 17 C 1.727321 0.870984 4.324435 0
M  V30 18 C 2.919150 0.525358 4.964362 0
M  V30 19 N 2.679661 0.666524 6.295869 0
M  V30 20 N 1.433448 1.070459 6.492575 0
M  V30 21 C 0.806028 1.332134 7.785825 0
M  V30 22 C 0.814410 1.207354 5.292831 0
M  V30 23 C 2.527327 1.128205 1.961779 0
M  V30 24 C 2.207678 1.091605 0.607761 0
M  V30 25 C 0.390266 -0.146443 -2.185613 0
M  V30 26 C -0.060937 -1.287609 -1.586716 0
M  V30 27 H -1.774206 -5.818607 -0.725607 0
M  V30 28 H -3.478026 -5.698351 -1.196650 0
M  V30 29 H -2.974957 -5.098443 0.391963 0
M  V30 30 H -0.303666 -4.280777 -1.600694 0
M  V30 31 H -1.015223 -3.035209 -4.302372 0
M  V30 32 H -0.187597 -0.949495 -5.373356 0
M  V30 33 H 0.789085 1.249218 -5.162966 0
M  V30 34 H 1.765437 2.848354 -1.412053 0
M  V30 35 H -1.016315 0.341357 0.629531 0
M  V30 36 H -0.560219 0.368893 3.040334 0
M  V30 37 H 3.856972 0.206483 4.511616 0
M  V30 38 H -0.050649 2.040708 7.668348 0
M  V30 39 H 1.552494 1.730758 8.521608 0
M  V30 40 H 0.374289 0.426415 8.242161 0
M  V30 41 H -0.216183 1.522642 5.072191 0
M  V30 42 H 3.520681 1.352674 2.322356 0
M  V30 43 H 3.077541 1.315667 -0.030056 0
M  V30 44 H -0.040755 -1.437870 -0.537404 0
M  V30 END ATOM
M  V30 BEGIN BOND
M  V30 1 1 1 2
M  V30 2 2 2 3
M  V30 3 1 2 4
M  V30 4 1 4 5
M  V30 5 2 5 6
M  V30 6 1 6 7
M  V30 7 2 7 8
M  V30 8 1 8 9
M  V30 9 2 9 10
M  V30 10 1 10 11
M  V30 11 2 11 12
M  V30 12 1 12 13
M  V30 13 2 13 14
M  V30 14 1 14 15
M  V30 15 2 15 16
M  V30 16 1 16 17
M  V30 17 1 17 18
M  V30 18 2 18 19
M  V30 19 1 19 20
M  V30 20 1 20 21
M  V30 21 1 20 22
M  V30 22 1 16 23
M  V30 23 2 23 24
M  V30 24 1 12 25
M  V30 25 2 25 26
M  V30 26 1 26 5
M  V30 27 1 25 8
M  V30 28 1 24 13
M  V30 29 2 22 17
M  V30 30 1 1 27
M  V30 31 1 1 28
M  V30 32 1 1 29
M  V30 33 1 4 30
M  V30 34 1 6 31
M  V30 35 1 7 32
M  V30 36 1 9 33
M  V30 37 1 11 34
M  V30 38 1 14 35
M  V30 39 1 15 36
M  V30 40 1 18 37
M  V30 41 1 21 38
M  V30 42 1 21 39
M  V30 43 1 21 40
M  V30 44 1 22 41
M  V30 45 1 23 42
M  V30 46 1 24 43
M  V30 47 1 26 44
M  V30 END BOND
M  V30 END CTAB
M  END
>  <Dataset>  (36) 
ChEMBL_Kinases

>  <Ligand_Instance>  (36) 
nan

>  <PDB_ID>  (36) 
nan

>  <Standardized_SMILES>  (36) 
CC(=O)Nc1ccc2cncc(-c3ccc(-c4cnn(C)c4)cc3)c2c1

>  <Name>  (36) 
nan

>  <Pocket>  (36) 
nan

>  <ATP_Site>  (36) 
nan

>  <Peripheral>  (36) 
nan

>  <Num_H_Atoms_ProtBoundConf>  (36) 
nan

>  <Num_Resolved_Atoms>  (36) 
nan

>  <Num_Not_Resolved_Atoms>  (36) 
nan

$$$$
CHEMBL3827683
     RDKit          3D

  0  0  0  0  0  0  0  0  0  0999 V3000
M  V30 BEGIN CTAB
M  V30 COUNTS 49 53 0 0 0
M  V30 BEGIN ATOM
M  V30 1 C -2.089628 -6.906139 1.255222 0
M  V30 2 N -0.989696 -6.273289 0.549029 0
M  V30 3 C -0.740372 -4.946264 0.508871 0
M  V30 4 C 0.398329 -4.690340 -0.262631 0
M  V30 5 C 0.911122 -3.342779 -0.485431 0
M  V30 6 C 2.250457 -3.062137 -0.664445 0
M  V30 7 C 2.692584 -1.779852 -0.872035 0
M  V30 8 C 1.808780 -0.703035 -0.911449 0
M  V30 9 C 2.094250 0.693437 -1.117758 0
M  V30 10 C 2.959626 1.093703 -2.127355 0
M  V30 11 N 3.253831 2.400749 -2.356207 0
M  V30 12 C 2.709944 3.370935 -1.602389 0
M  V30 13 C 1.850547 2.974785 -0.599585 0
M  V30 14 C 1.294094 3.972231 0.173681 0
M  V30 15 C 0.429749 3.623155 1.188524 0
M  V30 16 C 0.110113 2.312069 1.447861 0
M  V30 17 N -0.762035 1.821256 2.460551 0
M  V30 18 C -1.071170 0.420225 2.690263 0
M  V30 19 C -2.522268 0.228055 2.491382 0
M  V30 20 O -3.378258 1.201249 2.846218 0
M  V30 21 C -2.962122 2.371447 3.320027 0
M  V30 22 C -1.492011 2.610342 3.435993 0
M  V30 23 N 0.666526 1.358118 0.678877 0
M  V30 24 C 1.510656 1.657106 -0.316362 0
M  V30 25 C 0.447211 -0.965925 -0.732312 0
M  V30 26 C 0.014838 -2.278312 -0.521966 0
M  V30 27 C 0.814165 -5.943616 -0.680844 0
M  V30 28 N -0.042506 -6.846541 -0.172407 0
M  V30 29 H -1.757191 -7.817551 1.798021 0
M  V30 30 H -2.459423 -6.224564 2.069293 0
M  V30 31 H -2.932099 -7.181198 0.610482 0
M  V30 32 H -1.346075 -4.200455 1.008448 0
M  V30 33 H 2.963272 -3.868253 -0.640162 0
M  V30 34 H 3.721755 -1.495070 -1.018154 0
M  V30 35 H 3.431238 0.349152 -2.771652 0
M  V30 36 H 2.921344 4.430270 -1.755372 0
M  V30 37 H 1.474470 5.044500 0.059694 0
M  V30 38 H -0.027972 4.349715 1.814829 0
M  V30 39 H -0.799698 0.111161 3.725991 0
M  V30 40 H -0.493991 -0.193350 1.952850 0
M  V30 41 H -2.699817 -0.047545 1.427481 0
M  V30 42 H -2.804123 -0.710245 3.053821 0
M  V30 43 H -3.340070 3.178681 2.624477 0
M  V30 44 H -3.421264 2.606933 4.303916 0
M  V30 45 H -1.215115 3.678070 3.328707 0
M  V30 46 H -1.069156 2.321641 4.442758 0
M  V30 47 H -0.359448 -0.254142 -0.734813 0
M  V30 48 H -1.047831 -2.523892 -0.377190 0
M  V30 49 H 1.687340 -6.031940 -1.301150 0
M  V30 END ATOM
M  V30 BEGIN BOND
M  V30 1 1 1 2
M  V30 2 1 2 3
M  V30 3 2 3 4
M  V30 4 1 4 5
M  V30 5 2 5 6
M  V30 6 1 6 7
M  V30 7 2 7 8
M  V30 8 1 8 9
M  V30 9 2 9 10
M  V30 10 1 10 11
M  V30 11 2 11 12
M  V30 12 1 12 13
M  V30 13 2 13 14
M  V30 14 1 14 15
M  V30 15 2 15 16
M  V30 16 1 16 17
M  V30 17 1 17 18
M  V30 18 1 18 19
M  V30 19 1 19 20
M  V30 20 1 20 21
M  V30 21 1 21 22
M  V30 22 1 16 23
M  V30 23 2 23 24
M  V30 24 1 8 25
M  V30 25 2 25 26
M  V30 26 1 4 27
M  V30 27 2 27 28
M  V30 28 1 28 2
M  V30 29 1 26 5
M  V30 30 1 24 9
M  V30 31 1 24 13
M  V30 32 1 22 17
M  V30 33 1 1 29
M  V30 34 1 1 30
M  V30 35 1 1 31
M  V30 36 1 3 32
M  V30 37 1 6 33
M  V30 38 1 7 34
M  V30 39 1 10 35
M  V30 40 1 12 36
M  V30 41 1 14 37
M  V30 42 1 15 38
M  V30 43 1 18 39
M  V30 44 1 18 40
M  V30 45 1 19 41
M  V30 46 1 19 42
M  V30 47 1 21 43
M  V30 48 1 21 44
M  V30 49 1 22 45
M  V30 50 1 22 46
M  V30 51 1 25 47
M  V30 52 1 26 48
M  V30 53 1 27 49
M  V30 END BOND
M  V30 END CTAB
M  END
>  <Dataset>  (37) 
ChEMBL_Kinases

>  <Ligand_Instance>  (37) 
nan

>  <PDB_ID>  (37) 
nan

>  <Standardized_SMILES>  (37) 
Cn1cc(-c2ccc(-c3cncc4ccc(N5CCOCC5)nc34)cc2)cn1

>  <Name>  (37) 
nan

>  <Pocket>  (37) 
nan

>  <ATP_Site>  (37) 
nan

>  <Peripheral>  (37) 
nan

>  <Num_H_Atoms_ProtBoundConf>  (37) 
nan

>  <Num_Resolved_Atoms>  (37) 
nan

>  <Num_Not_Resolved_Atoms>  (37) 
nan

$$$$
CHEMBL3827678
     RDKit          3D

  0  0  0  0  0  0  0  0  0  0999 V3000
M  V30 BEGIN CTAB
M  V30 COUNTS 47 51 0 0 0
M  V30 BEGIN ATOM
M  V30 1 C -2.783423 -7.035319 1.905259 0
M  V30 2 N -1.451159 -6.490605 1.681399 0
M  V30 3 C -1.265525 -5.202242 1.329295 0
M  V30 4 C 0.102400 -4.947531 1.180110 0
M  V30 5 C 0.661732 -3.663988 0.806602 0
M  V30 6 C 1.893944 -3.197800 1.218676 0
M  V30 7 C 2.319935 -1.955398 0.795844 0
M  V30 8 C 1.571378 -1.116674 -0.040985 0
M  V30 9 C 2.222997 0.144273 -0.370923 0
M  V30 10 C 3.513511 -0.021408 -0.889718 0
M  V30 11 N 4.248550 1.063783 -1.271541 0
M  V30 12 C 3.771908 2.317194 -1.167065 0
M  V30 13 C 2.507166 2.505068 -0.659836 0
M  V30 14 C 1.907522 3.737842 -0.496409 0
M  V30 15 C 0.639653 3.913284 0.019848 0
M  V30 16 C -0.066785 2.789670 0.393436 0
M  V30 17 C -1.429185 2.905389 0.953783 0
M  V30 18 N -2.547617 2.333299 0.442321 0
M  V30 19 C -3.607050 2.662223 1.225831 0
M  V30 20 C -3.125167 3.463191 2.253593 0
M  V30 21 N -1.801750 3.586638 2.052882 0
M  V30 22 C -0.938636 4.359220 2.929639 0
M  V30 23 C 0.495556 1.534851 0.246933 0
M  V30 24 C 1.745755 1.431280 -0.267771 0
M  V30 25 C 0.359620 -1.603907 -0.431825 0
M  V30 26 C -0.082049 -2.844241 -0.018133 0
M  V30 27 C 0.696025 -6.179222 1.470657 0
M  V30 28 N -0.266091 -7.067830 1.763372 0
M  V30 29 H -3.158455 -6.611886 2.854093 0
M  V30 30 H -3.473515 -6.726971 1.094863 0
M  V30 31 H -2.688599 -8.119125 2.021481 0
M  V30 32 H -2.027608 -4.452594 1.176531 0
M  V30 33 H 2.493784 -3.820639 1.863466 0
M  V30 34 H 3.298865 -1.668589 1.166992 0
M  V30 35 H 4.017049 -0.969637 -1.027662 0
M  V30 36 H 4.347225 3.185291 -1.467619 0
M  V30 37 H 2.491532 4.617577 -0.801635 0
M  V30 38 H 0.187874 4.889261 0.139707 0
M  V30 39 H -4.623888 2.332906 1.038639 0
M  V30 40 H -3.710102 3.897267 3.054082 0
M  V30 41 H -0.995345 3.944545 3.947997 0
M  V30 42 H 0.070082 4.435102 2.516875 0
M  V30 43 H -1.350616 5.392056 2.947922 0
M  V30 44 H -0.097770 0.693446 0.562649 0
M  V30 45 H -0.210412 -0.965962 -1.081918 0
M  V30 46 H -1.046789 -3.158470 -0.367456 0
M  V30 47 H 1.773558 -6.258885 1.427312 0
M  V30 END ATOM
M  V30 BEGIN BOND
M  V30 1 1 1 2
M  V30 2 1 2 3
M  V30 3 2 3 4
M  V30 4 1 4 5
M  V30 5 2 5 6
M  V30 6 1 6 7
M  V30 7 2 7 8
M  V30 8 1 8 9
M  V30 9 2 9 10
M  V30 10 1 10 11
M  V30 11 2 11 12
M  V30 12 1 12 13
M  V30 13 2 13 14
M  V30 14 1 14 15
M  V30 15 2 15 16
M  V30 16 1 16 17
M  V30 17 2 17 18
M  V30 18 1 18 19
M  V30 19 2 19 20
M  V30 20 1 20 21
M  V30 21 1 21 22
M  V30 22 1 16 23
M  V30 23 2 23 24
M  V30 24 1 8 25
M  V30 25 2 25 26
M  V30 26 1 4 27
M  V30 27 2 27 28
M  V30 28 1 28 2
M  V30 29 1 26 5
M  V30 30 1 24 9
M  V30 31 1 24 13
M  V30 32 1 21 17
M  V30 33 1 1 29
M  V30 34 1 1 30
M  V30 35 1 1 31
M  V30 36 1 3 32
M  V30 37 1 6 33
M  V30 38 1 7 34
M  V30 39 1 10 35
M  V30 40 1 12 36
M  V30 41 1 14 37
M  V30 42 1 15 38
M  V30 43 1 19 39
M  V30 44 1 20 40
M  V30 45 1 22 41
M  V30 46 1 22 42
M  V30 47 1 22 43
M  V30 48 1 23 44
M  V30 49 1 25 45
M  V30 50 1 26 46
M  V30 51 1 27 47
M  V30 END BOND
M  V30 END CTAB
M  END
>  <Dataset>  (38) 
ChEMBL_Kinases

>  <Ligand_Instance>  (38) 
nan

>  <PDB_ID>  (38) 
nan

>  <Standardized_SMILES>  (38) 
Cn1cc(-c2ccc(-c3cncc4ccc(-c5nccn5C)cc34)cc2)cn1

>  <Name>  (38) 
nan

>  <Pocket>  (38) 
nan

>  <ATP_Site>  (38) 
nan

>  <Peripheral>  (38) 
nan

>  <Num_H_Atoms_ProtBoundConf>  (38) 
nan

>  <Num_Resolved_Atoms>  (38) 
nan

>  <Num_Not_Resolved_Atoms>  (38) 
nan

$$$$
CHEMBL3827675
     RDKit          3D

  0  0  0  0  0  0  0  0  0  0999 V3000
M  V30 BEGIN CTAB
M  V30 COUNTS 53 57 0 0 0
M  V30 BEGIN ATOM
M  V30 1 C -4.086305 -3.817226 5.442775 0
M  V30 2 N -2.809466 -3.847796 4.768115 0
M  V30 3 C -2.258375 -2.694492 4.319286 0
M  V30 4 C -1.036033 -2.943329 3.700529 0
M  V30 5 C -0.160023 -1.919953 3.097108 0
M  V30 6 C 0.621422 -2.262907 2.016749 0
M  V30 7 C 1.426718 -1.249727 1.487348 0
M  V30 8 C 1.451377 0.044904 2.011817 0
M  V30 9 C 2.335802 1.005047 1.359216 0
M  V30 10 C 3.217715 1.876158 1.981714 0
M  V30 11 N 3.980433 2.706509 1.247395 0
M  V30 12 C 3.917554 2.723345 -0.109741 0
M  V30 13 N 4.732385 3.610818 -0.871770 0
M  V30 14 C 3.058327 1.878613 -0.775734 0
M  V30 15 C 3.000801 1.903136 -2.159053 0
M  V30 16 C 2.132564 1.050300 -2.834330 0
M  V30 17 C 1.350239 0.198501 -2.067338 0
M  V30 18 C 0.392795 -0.755839 -2.604853 0
M  V30 19 O 1.105721 -1.573865 -3.247774 0
M  V30 20 N -1.003210 -0.806013 -2.473401 0
M  V30 21 C -1.670028 0.218405 -1.695948 0
M  V30 22 C -3.043717 -0.335245 -1.356540 0
M  V30 23 O -2.947676 -1.685503 -1.036842 0
M  V30 24 C -2.710512 -2.472611 -2.151530 0
M  V30 25 C -1.727939 -1.866549 -3.113897 0
M  V30 26 N 1.452103 0.223878 -0.748357 0
M  V30 27 C 2.266218 1.016940 -0.024725 0
M  V30 28 C 0.653842 0.357718 3.099216 0
M  V30 29 C -0.157729 -0.651134 3.637599 0
M  V30 30 C -0.883331 -4.325481 3.804517 0
M  V30 31 N -1.959974 -4.809035 4.443820 0
M  V30 32 H -4.771980 -3.203824 4.786884 0
M  V30 33 H -4.544879 -4.809066 5.508194 0
M  V30 34 H -3.981931 -3.311666 6.421007 0
M  V30 35 H -2.652916 -1.680144 4.393668 0
M  V30 36 H 0.589532 -3.258467 1.629148 0
M  V30 37 H 2.011780 -1.608980 0.635502 0
M  V30 38 H 3.228560 1.823621 3.063362 0
M  V30 39 H 4.462315 4.528745 -1.292002 0
M  V30 40 H 4.433988 4.529319 -1.283020 0
M  V30 41 H 3.608563 2.565575 -2.767742 0
M  V30 42 H 2.014824 0.994813 -3.916007 0
M  V30 43 H -1.094880 0.463315 -0.766252 0
M  V30 44 H -1.809224 1.098168 -2.324935 0
M  V30 45 H -3.759283 -0.132216 -2.175453 0
M  V30 46 H -3.389237 0.211523 -0.454615 0
M  V30 47 H -2.281317 -3.442174 -1.776030 0
M  V30 48 H -3.687073 -2.646081 -2.659683 0
M  V30 49 H -1.025631 -2.618451 -3.533947 0
M  V30 50 H -2.273427 -1.403874 -3.968235 0
M  V30 51 H 0.675459 1.348867 3.497998 0
M  V30 52 H -0.784142 -0.416747 4.487833 0
M  V30 53 H -0.024733 -4.843805 3.416558 0
M  V30 END ATOM
M  V30 BEGIN BOND
M  V30 1 1 1 2
M  V30 2 1 2 3
M  V30 3 2 3 4
M  V30 4 1 4 5
M  V30 5 2 5 6
M  V30 6 1 6 7
M  V30 7 2 7 8
M  V30 8 1 8 9
M  V30 9 2 9 10
M  V30 10 1 10 11
M  V30 11 2 11 12
M  V30 12 1 12 13
M  V30 13 1 12 14
M  V30 14 2 14 15
M  V30 15 1 15 16
M  V30 16 2 16 17
M  V30 17 1 17 18
M  V30 18 2 18 19
M  V30 19 1 18 20
M  V30 20 1 20 21
M  V30 21 1 21 22
M  V30 22 1 22 23
M  V30 23 1 23 24
M  V30 24 1 24 25
M  V30 25 1 17 26
M  V30 26 2 26 27
M  V30 27 1 8 28
M  V30 28 2 28 29
M  V30 29 1 4 30
M  V30 30 2 30 31
M  V30 31 1 31 2
M  V30 32 1 29 5
M  V30 33 1 27 9
M  V30 34 1 27 14
M  V30 35 1 25 20
M  V30 36 1 1 32
M  V30 37 1 1 33
M  V30 38 1 1 34
M  V30 39 1 3 35
M  V30 40 1 6 36
M  V30 41 1 7 37
M  V30 42 1 10 38
M  V30 43 1 13 39
M  V30 44 1 13 40
M  V30 45 1 15 41
M  V30 46 1 16 42
M  V30 47 1 21 43
M  V30 48 1 21 44
M  V30 49 1 22 45
M  V30 50 1 22 46
M  V30 51 1 24 47
M  V30 52 1 24 48
M  V30 53 1 25 49
M  V30 54 1 25 50
M  V30 55 1 28 51
M  V30 56 1 29 52
M  V30 57 1 30 53
M  V30 END BOND
M  V30 END CTAB
M  END
>  <Dataset>  (39) 
ChEMBL_Kinases

>  <Ligand_Instance>  (39) 
nan

>  <PDB_ID>  (39) 
nan

>  <Standardized_SMILES>  (39) 
Cn1cc(-c2ccc(-c3cnc(N)c4ccc(C(=O)N5CCOCC5)nc34)cc2)cn1

>  <Name>  (39) 
nan

>  <Pocket>  (39) 
nan

>  <ATP_Site>  (39) 
nan

>  <Peripheral>  (39) 
nan

>  <Num_H_Atoms_ProtBoundConf>  (39) 
nan

>  <Num_Resolved_Atoms>  (39) 
nan

>  <Num_Not_Resolved_Atoms>  (39) 
nan

$$$$
CHEMBL3827673
     RDKit          3D

  0  0  0  0  0  0  0  0  0  0999 V3000
M  V30 BEGIN CTAB
M  V30 COUNTS 52 56 0 0 0
M  V30 BEGIN ATOM
M  V30 1 C 3.012502 -3.904608 5.779909 0
M  V30 2 N 3.065364 -3.784495 4.335926 0
M  V30 3 C 2.724968 -2.582815 3.783553 0
M  V30 4 C 2.834852 -2.668146 2.387988 0
M  V30 5 C 2.539165 -1.552545 1.466289 0
M  V30 6 C 2.046159 -1.737044 0.194917 0
M  V30 7 C 1.797736 -0.609401 -0.599168 0
M  V30 8 C 2.036489 0.687552 -0.132015 0
M  V30 9 C 1.727817 1.780440 -1.054182 0
M  V30 10 C 2.537148 2.866398 -1.350371 0
M  V30 11 N 2.080016 3.783803 -2.242323 0
M  V30 12 C 0.878114 3.656821 -2.831946 0
M  V30 13 C 0.035743 2.589654 -2.568970 0
M  V30 14 C -1.177166 2.537625 -3.215919 0
M  V30 15 C -1.981882 1.473844 -2.932374 0
M  V30 16 C -1.558035 0.523522 -2.034493 0
M  V30 17 C -2.232708 -0.702674 -1.569834 0
M  V30 18 O -2.216862 -1.354416 -2.636744 0
M  V30 19 N -2.739940 -1.008262 -0.258505 0
M  V30 20 C -2.760366 -0.259464 0.972998 0
M  V30 21 C -4.113564 -0.318861 1.646039 0
M  V30 22 N -4.770497 -1.599665 1.466992 0
M  V30 23 C -3.830859 -2.639922 1.103561 0
M  V30 24 C -3.311562 -2.329695 -0.281512 0
M  V30 25 N -0.369771 0.634280 -1.442529 0
M  V30 26 C 0.480374 1.651154 -1.667852 0
M  V30 27 C 2.530437 0.836441 1.147889 0
M  V30 28 C 2.782349 -0.267070 1.946308 0
M  V30 29 C 3.257892 -3.983266 2.157026 0
M  V30 30 N 3.377690 -4.596791 3.343255 0
M  V30 31 H 3.370979 -4.870863 6.134228 0
M  V30 32 H 3.510177 -3.016738 6.223803 0
M  V30 33 H 1.918272 -3.766214 6.035145 0
M  V30 34 H 2.406016 -1.663681 4.267010 0
M  V30 35 H 1.874906 -2.744558 -0.127005 0
M  V30 36 H 1.419090 -0.890171 -1.578300 0
M  V30 37 H 3.487185 2.896677 -0.834012 0
M  V30 38 H 0.590159 4.434296 -3.527017 0
M  V30 39 H -1.548534 3.257720 -3.916879 0
M  V30 40 H -2.961323 1.255759 -3.331289 0
M  V30 41 H -2.522459 0.815376 0.814040 0
M  V30 42 H -2.014521 -0.721247 1.662320 0
M  V30 43 H -4.733455 0.506887 1.254612 0
M  V30 44 H -3.922066 -0.172223 2.728282 0
M  V30 45 H -5.262736 -1.874144 2.337083 0
M  V30 46 H -4.446043 -3.576930 1.002096 0
M  V30 47 H -3.031571 -2.812120 1.825539 0
M  V30 48 H -2.558056 -3.113410 -0.526017 0
M  V30 49 H -4.194999 -2.381381 -0.972951 0
M  V30 50 H 2.709503 1.840792 1.495347 0
M  V30 51 H 3.173321 -0.099760 2.948618 0
M  V30 52 H 3.418889 -4.323004 1.155124 0
M  V30 END ATOM
M  V30 BEGIN BOND
M  V30 1 1 1 2
M  V30 2 1 2 3
M  V30 3 2 3 4
M  V30 4 1 4 5
M  V30 5 2 5 6
M  V30 6 1 6 7
M  V30 7 2 7 8
M  V30 8 1 8 9
M  V30 9 2 9 10
M  V30 10 1 10 11
M  V30 11 2 11 12
M  V30 12 1 12 13
M  V30 13 2 13 14
M  V30 14 1 14 15
M  V30 15 2 15 16
M  V30 16 1 16 17
M  V30 17 2 17 18
M  V30 18 1 17 19
M  V30 19 1 19 20
M  V30 20 1 20 21
M  V30 21 1 21 22
M  V30 22 1 22 23
M  V30 23 1 23 24
M  V30 24 1 16 25
M  V30 25 2 25 26
M  V30 26 1 8 27
M  V30 27 2 27 28
M  V30 28 1 4 29
M  V30 29 2 29 30
M  V30 30 1 30 2
M  V30 31 1 28 5
M  V30 32 1 26 9
M  V30 33 1 26 13
M  V30 34 1 24 19
M  V30 35 1 1 31
M  V30 36 1 1 32
M  V30 37 1 1 33
M  V30 38 1 3 34
M  V30 39 1 6 35
M  V30 40 1 7 36
M  V30 41 1 10 37
M  V30 42 1 12 38
M  V30 43 1 14 39
M  V30 44 1 15 40
M  V30 45 1 20 41
M  V30 46 1 20 42
M  V30 47 1 21 43
M  V30 48 1 21 44
M  V30 49 1 22 45
M  V30 50 1 23 46
M  V30 51 1 23 47
M  V30 52 1 24 48
M  V30 53 1 24 49
M  V30 54 1 27 50
M  V30 55 1 28 51
M  V30 56 1 29 52
M  V30 END BOND
M  V30 END CTAB
M  END
>  <Dataset>  (40) 
ChEMBL_Kinases

>  <Ligand_Instance>  (40) 
nan

>  <PDB_ID>  (40) 
nan

>  <Standardized_SMILES>  (40) 
Cn1cc(-c2ccc(-c3cncc4ccc(C(=O)N5CCNCC5)nc34)cc2)cn1

>  <Name>  (40) 
nan

>  <Pocket>  (40) 
nan

>  <ATP_Site>  (40) 
nan

>  <Peripheral>  (40) 
nan

>  <Num_H_Atoms_ProtBoundConf>  (40) 
nan

>  <Num_Resolved_Atoms>  (40) 
nan

>  <Num_Not_Resolved_Atoms>  (40) 
nan

$$$$
CHEMBL3827666
     RDKit          3D

  0  0  0  0  0  0  0  0  0  0999 V3000
M  V30 BEGIN CTAB
M  V30 COUNTS 49 53 0 0 0
M  V30 BEGIN ATOM
M  V30 1 C 0.169761 -6.127437 1.192611 0
M  V30 2 O 0.910092 -4.976969 0.983592 0
M  V30 3 C 0.794587 -4.488083 -0.311884 0
M  V30 4 C 0.470650 -3.005888 -0.381328 0
M  V30 5 N 1.891834 -2.713114 -0.569213 0
M  V30 6 C 2.777634 -1.603003 -0.424217 0
M  V30 7 C 4.141887 -1.626352 -0.694256 0
M  V30 8 C 4.875930 -0.472572 -0.507073 0
M  V30 9 C 4.262061 0.692113 -0.056536 0
M  V30 10 C 4.928137 1.875752 0.151875 0
M  V30 11 N 4.255142 2.955058 0.589192 0
M  V30 12 C 2.925078 2.927269 0.838102 0
M  V30 13 C 2.176602 1.786972 0.657893 0
M  V30 14 C 0.746096 1.696607 0.909045 0
M  V30 15 C 0.332680 0.564709 1.617755 0
M  V30 16 C -1.017792 0.361060 1.921022 0
M  V30 17 C -1.969929 1.296254 1.513701 0
M  V30 18 C -3.381223 1.030996 1.861000 0
M  V30 19 C -3.687210 0.356739 3.027000 0
M  V30 20 N -5.034386 0.254619 3.090368 0
M  V30 21 N -5.577065 0.830683 2.024221 0
M  V30 22 C -6.979044 0.961645 1.670201 0
M  V30 23 C -4.580192 1.323988 1.238313 0
M  V30 24 C -1.547610 2.408441 0.815152 0
M  V30 25 C -0.215293 2.610899 0.515027 0
M  V30 26 C 2.911533 0.684515 0.202053 0
M  V30 27 N 2.243266 -0.466298 0.002936 0
M  V30 28 C 2.066231 -4.108371 -0.996593 0
M  V30 29 H 0.283297 -6.498722 2.249525 0
M  V30 30 H -0.887904 -5.943726 0.935639 0
M  V30 31 H 0.514274 -6.961026 0.526703 0
M  V30 32 H 0.122179 -5.124837 -0.932946 0
M  V30 33 H -0.125082 -2.735093 -1.298630 0
M  V30 34 H 0.025078 -2.616010 0.549345 0
M  V30 35 H 4.554264 -2.555579 -1.038926 0
M  V30 36 H 5.919304 -0.464512 -0.706128 0
M  V30 37 H 5.996749 1.912752 -0.043996 0
M  V30 38 H 2.391954 3.804621 1.190948 0
M  V30 39 H 0.970933 -0.246264 1.997495 0
M  V30 40 H -1.365670 -0.509843 2.470164 0
M  V30 41 H -3.031375 -0.043353 3.792108 0
M  V30 42 H -7.076447 0.420371 0.685990 0
M  V30 43 H -7.648512 0.567932 2.432362 0
M  V30 44 H -7.213271 2.029311 1.430129 0
M  V30 45 H -4.594229 1.855584 0.297052 0
M  V30 46 H -2.288351 3.122834 0.505775 0
M  V30 47 H 0.136373 3.458521 -0.021565 0
M  V30 48 H 2.003257 -4.141907 -2.094825 0
M  V30 49 H 3.016623 -4.468740 -0.560578 0
M  V30 END ATOM
M  V30 BEGIN BOND
M  V30 1 1 1 2
M  V30 2 1 2 3
M  V30 3 1 3 4
M  V30 4 1 4 5
M  V30 5 1 5 6
M  V30 6 2 6 7
M  V30 7 1 7 8
M  V30 8 2 8 9
M  V30 9 1 9 10
M  V30 10 2 10 11
M  V30 11 1 11 12
M  V30 12 2 12 13
M  V30 13 1 13 14
M  V30 14 2 14 15
M  V30 15 1 15 16
M  V30 16 2 16 17
M  V30 17 1 17 18
M  V30 18 1 18 19
M  V30 19 2 19 20
M  V30 20 1 20 21
M  V30 21 1 21 22
M  V30 22 1 21 23
M  V30 23 1 17 24
M  V30 24 2 24 25
M  V30 25 1 13 26
M  V30 26 2 26 27
M  V30 27 1 5 28
M  V30 28 1 28 3
M  V30 29 1 27 6
M  V30 30 1 26 9
M  V30 31 1 25 14
M  V30 32 2 23 18
M  V30 33 1 1 29
M  V30 34 1 1 30
M  V30 35 1 1 31
M  V30 36 1 3 32
M  V30 37 1 4 33
M  V30 38 1 4 34
M  V30 39 1 7 35
M  V30 40 1 8 36
M  V30 41 1 10 37
M  V30 42 1 12 38
M  V30 43 1 15 39
M  V30 44 1 16 40
M  V30 45 1 19 41
M  V30 46 1 22 42
M  V30 47 1 22 43
M  V30 48 1 22 44
M  V30 49 1 23 45
M  V30 50 1 24 46
M  V30 51 1 25 47
M  V30 52 1 28 48
M  V30 53 1 28 49
M  V30 END BOND
M  V30 END CTAB
M  END
>  <Dataset>  (41) 
ChEMBL_Kinases

>  <Ligand_Instance>  (41) 
nan

>  <PDB_ID>  (41) 
nan

>  <Standardized_SMILES>  (41) 
COC1CN(c2ccc3cncc(-c4ccc(-c5cnn(C)c5)cc4)c3n2)C1

>  <Name>  (41) 
nan

>  <Pocket>  (41) 
nan

>  <ATP_Site>  (41) 
nan

>  <Peripheral>  (41) 
nan

>  <Num_H_Atoms_ProtBoundConf>  (41) 
nan

>  <Num_Resolved_Atoms>  (41) 
nan

>  <Num_Not_Resolved_Atoms>  (41) 
nan

$$$$
CHEMBL3827664
     RDKit          3D

  0  0  0  0  0  0  0  0  0  0999 V3000
M  V30 BEGIN CTAB
M  V30 COUNTS 50 54 0 0 0
M  V30 BEGIN ATOM
M  V30 1 C 0.221393 -8.109475 -0.836042 0
M  V30 2 N 1.265439 -7.107106 -0.774456 0
M  V30 3 C 0.900123 -5.816696 -0.632876 0
M  V30 4 C 2.067461 -5.046476 -0.598770 0
M  V30 5 C 2.120820 -3.590605 -0.456159 0
M  V30 6 C 3.116868 -2.862506 0.154808 0
M  V30 7 C 3.019106 -1.488020 0.206793 0
M  V30 8 C 1.958008 -0.769432 -0.328422 0
M  V30 9 C 2.067948 0.672405 -0.172399 0
M  V30 10 C 3.275763 1.201053 -0.644730 0
M  V30 11 N 3.533910 2.521468 -0.601588 0
M  V30 12 C 2.646877 3.410201 -0.102174 0
M  V30 13 N 2.873875 4.812706 -0.035964 0
M  V30 14 C 1.446357 2.927022 0.373051 0
M  V30 15 C 0.454587 3.719160 0.914437 0
M  V30 16 C -0.728833 3.185452 1.383267 0
M  V30 17 C -0.977336 1.829332 1.332849 0
M  V30 18 C -2.217440 1.231389 1.819129 0
M  V30 19 O -2.489453 0.005527 1.811491 0
M  V30 20 N -3.268541 2.016144 2.366071 0
M  V30 21 C -4.513893 1.494799 2.863634 0
M  V30 22 C -5.791706 2.181988 2.699346 0
M  V30 23 C -5.160527 2.077370 4.088266 0
M  V30 24 C -0.005227 1.010757 0.796789 0
M  V30 25 C 1.164036 1.579427 0.337675 0
M  V30 26 C 0.967819 -1.510053 -0.937640 0
M  V30 27 C 1.058945 -2.884870 -0.993042 0
M  V30 28 C 3.118804 -5.932461 -0.725089 0
M  V30 29 N 2.590350 -7.179586 -0.829875 0
M  V30 30 H -0.577167 -7.895346 -0.069349 0
M  V30 31 H -0.293591 -8.158608 -1.795243 0
M  V30 32 H 0.653103 -9.093005 -0.498553 0
M  V30 33 H -0.092777 -5.353640 -0.550739 0
M  V30 34 H 3.927822 -3.423601 0.562905 0
M  V30 35 H 3.853164 -1.018502 0.707398 0
M  V30 36 H 4.122463 0.673900 -1.083133 0
M  V30 37 H 3.737821 5.309562 0.245095 0
M  V30 38 H 2.113948 5.474204 -0.289684 0
M  V30 39 H 0.618750 4.793767 0.969361 0
M  V30 40 H -1.446471 3.856089 1.786619 0
M  V30 41 H -3.195558 3.053777 2.441326 0
M  V30 42 H -4.579340 0.387421 2.794798 0
M  V30 43 H -5.909048 3.217347 2.354312 0
M  V30 44 H -6.727896 1.602702 2.558525 0
M  V30 45 H -4.732341 2.998048 4.533937 0
M  V30 46 H -5.661619 1.420253 4.836200 0
M  V30 47 H -0.201853 -0.034410 0.769309 0
M  V30 48 H 0.158671 -0.941720 -1.356290 0
M  V30 49 H 0.243854 -3.403161 -1.487066 0
M  V30 50 H 4.174054 -5.685430 -0.738844 0
M  V30 END ATOM
M  V30 BEGIN BOND
M  V30 1 1 1 2
M  V30 2 1 2 3
M  V30 3 2 3 4
M  V30 4 1 4 5
M  V30 5 2 5 6
M  V30 6 1 6 7
M  V30 7 2 7 8
M  V30 8 1 8 9
M  V30 9 2 9 10
M  V30 10 1 10 11
M  V30 11 2 11 12
M  V30 12 1 12 13
M  V30 13 1 12 14
M  V30 14 2 14 15
M  V30 15 1 15 16
M  V30 16 2 16 17
M  V30 17 1 17 18
M  V30 18 2 18 19
M  V30 19 1 18 20
M  V30 20 1 20 21
M  V30 21 1 21 22
M  V30 22 1 22 23
M  V30 23 1 17 24
M  V30 24 2 24 25
M  V30 25 1 8 26
M  V30 26 2 26 27
M  V30 27 1 4 28
M  V30 28 2 28 29
M  V30 29 1 29 2
M  V30 30 1 27 5
M  V30 31 1 25 9
M  V30 32 1 25 14
M  V30 33 1 23 21
M  V30 34 1 1 30
M  V30 35 1 1 31
M  V30 36 1 1 32
M  V30 37 1 3 33
M  V30 38 1 6 34
M  V30 39 1 7 35
M  V30 40 1 10 36
M  V30 41 1 13 37
M  V30 42 1 13 38
M  V30 43 1 15 39
M  V30 44 1 16 40
M  V30 45 1 20 41
M  V30 46 1 21 42
M  V30 47 1 22 43
M  V30 48 1 22 44
M  V30 49 1 23 45
M  V30 50 1 23 46
M  V30 51 1 24 47
M  V30 52 1 26 48
M  V30 53 1 27 49
M  V30 54 1 28 50
M  V30 END BOND
M  V30 END CTAB
M  END
>  <Dataset>  (42) 
ChEMBL_Kinases

>  <Ligand_Instance>  (42) 
nan

>  <PDB_ID>  (42) 
nan

>  <Standardized_SMILES>  (42) 
Cn1cc(-c2ccc(-c3cnc(N)c4ccc(C(=O)NC5CC5)cc34)cc2)cn1

>  <Name>  (42) 
nan

>  <Pocket>  (42) 
nan

>  <ATP_Site>  (42) 
nan

>  <Peripheral>  (42) 
nan

>  <Num_H_Atoms_ProtBoundConf>  (42) 
nan

>  <Num_Resolved_Atoms>  (42) 
nan

>  <Num_Not_Resolved_Atoms>  (42) 
nan

$$$$
CHEMBL3827749
     RDKit          3D

  0  0  0  0  0  0  0  0  0  0999 V3000
M  V30 BEGIN CTAB
M  V30 COUNTS 46 50 0 0 0
M  V30 BEGIN ATOM
M  V30 1 C -5.473666 -4.265113 2.380763 0
M  V30 2 N -4.738973 -4.042784 1.152986 0
M  V30 3 C -3.738120 -3.143753 1.170232 0
M  V30 4 C -3.165232 -3.077189 -0.090045 0
M  V30 5 C -2.058959 -2.252053 -0.548499 0
M  V30 6 C -1.192336 -2.662786 -1.540170 0
M  V30 7 C -0.125316 -1.903860 -2.004161 0
M  V30 8 C 0.041282 -0.661129 -1.403633 0
M  V30 9 C 1.167620 0.114262 -1.909551 0
M  V30 10 C 1.386924 0.209974 -3.245663 0
M  V30 11 N 2.422289 0.922189 -3.726235 0
M  V30 12 C 3.289635 1.572150 -2.935409 0
M  V30 13 C 3.061458 1.470928 -1.582556 0
M  V30 14 C 3.899311 2.104085 -0.693450 0
M  V30 15 C 3.769063 2.073631 0.698406 0
M  V30 16 C 2.695635 1.333347 1.154066 0
M  V30 17 C 2.508798 1.264936 2.601842 0
M  V30 18 C 1.551671 0.620465 3.359065 0
M  V30 19 C 1.811671 0.863533 4.693060 0
M  V30 20 N 2.908229 1.642114 4.736045 0
M  V30 21 C 3.548559 2.148875 5.942345 0
M  V30 22 N 3.310811 1.872508 3.496290 0
M  V30 23 N 1.855648 0.700841 0.312995 0
M  V30 24 C 2.017775 0.755835 -1.034138 0
M  V30 25 C -0.773126 -0.165191 -0.405865 0
M  V30 26 C -1.790535 -1.001999 -0.031238 0
M  V30 27 C -3.888288 -3.994565 -0.861896 0
M  V30 28 N -4.835913 -4.560628 -0.069827 0
M  V30 29 H -4.765698 -4.499967 3.214770 0
M  V30 30 H -6.052859 -3.357057 2.688034 0
M  V30 31 H -6.122149 -5.147531 2.216124 0
M  V30 32 H -3.344739 -2.515137 1.956876 0
M  V30 33 H -1.321754 -3.646686 -2.017652 0
M  V30 34 H 0.524600 -2.263631 -2.778802 0
M  V30 35 H 0.743407 -0.279245 -3.988933 0
M  V30 36 H 4.136221 2.157412 -3.263675 0
M  V30 37 H 4.744483 2.685867 -1.078580 0
M  V30 38 H 4.457898 2.589778 1.331352 0
M  V30 39 H 0.764699 0.042776 2.899301 0
M  V30 40 H 1.223258 0.483387 5.523062 0
M  V30 41 H 4.337701 2.877822 5.660125 0
M  V30 42 H 2.776730 2.602348 6.581210 0
M  V30 43 H 4.078780 1.304732 6.429069 0
M  V30 44 H -0.614982 0.806136 0.039502 0
M  V30 45 H -2.474649 -0.660908 0.761600 0
M  V30 46 H -3.668567 -4.165186 -1.901242 0
M  V30 END ATOM
M  V30 BEGIN BOND
M  V30 1 1 1 2
M  V30 2 1 2 3
M  V30 3 2 3 4
M  V30 4 1 4 5
M  V30 5 2 5 6
M  V30 6 1 6 7
M  V30 7 2 7 8
M  V30 8 1 8 9
M  V30 9 2 9 10
M  V30 10 1 10 11
M  V30 11 2 11 12
M  V30 12 1 12 13
M  V30 13 2 13 14
M  V30 14 1 14 15
M  V30 15 2 15 16
M  V30 16 1 16 17
M  V30 17 1 17 18
M  V30 18 2 18 19
M  V30 19 1 19 20
M  V30 20 1 20 21
M  V30 21 1 20 22
M  V30 22 1 16 23
M  V30 23 2 23 24
M  V30 24 1 8 25
M  V30 25 2 25 26
M  V30 26 1 4 27
M  V30 27 2 27 28
M  V30 28 1 28 2
M  V30 29 1 26 5
M  V30 30 1 24 9
M  V30 31 1 24 13
M  V30 32 2 22 17
M  V30 33 1 1 29
M  V30 34 1 1 30
M  V30 35 1 1 31
M  V30 36 1 3 32
M  V30 37 1 6 33
M  V30 38 1 7 34
M  V30 39 1 10 35
M  V30 40 1 12 36
M  V30 41 1 14 37
M  V30 42 1 15 38
M  V30 43 1 18 39
M  V30 44 1 19 40
M  V30 45 1 21 41
M  V30 46 1 21 42
M  V30 47 1 21 43
M  V30 48 1 25 44
M  V30 49 1 26 45
M  V30 50 1 27 46
M  V30 END BOND
M  V30 END CTAB
M  END
>  <Dataset>  (43) 
ChEMBL_Kinases

>  <Ligand_Instance>  (43) 
nan

>  <PDB_ID>  (43) 
nan

>  <Standardized_SMILES>  (43) 
Cn1cc(-c2ccc(-c3cncc4ccc(-c5ccn(C)n5)nc34)cc2)cn1

>  <Name>  (43) 
nan

>  <Pocket>  (43) 
nan

>  <ATP_Site>  (43) 
nan

>  <Peripheral>  (43) 
nan

>  <Num_H_Atoms_ProtBoundConf>  (43) 
nan

>  <Num_Resolved_Atoms>  (43) 
nan

>  <Num_Not_Resolved_Atoms>  (43) 
nan

$$$$
CHEMBL3823914
     RDKit          3D

  0  0  0  0  0  0  0  0  0  0999 V3000
M  V30 BEGIN CTAB
M  V30 COUNTS 58 62 0 0 0
M  V30 BEGIN ATOM
M  V30 1 C 4.805587 -2.216492 2.517903 0
M  V30 2 C 5.254044 -1.690738 1.181276 0
M  V30 3 O 6.490438 -1.740760 0.898953 0
M  V30 4 N 4.223594 -1.168414 0.325695 0
M  V30 5 C 2.810274 -1.142404 0.724692 0
M  V30 6 C 2.098032 -1.749986 -0.473626 0
M  V30 7 C 2.212748 -0.732804 -1.584607 0
M  V30 8 N 1.415916 0.444228 -1.222093 0
M  V30 9 N 1.788501 1.596988 -0.678155 0
M  V30 10 C 0.717729 2.391877 -0.515077 0
M  V30 11 C 0.714164 3.759541 0.061939 0
M  V30 12 C -0.419163 1.755054 -0.964209 0
M  V30 13 N -1.790831 2.157295 -1.013595 0
M  V30 14 C -2.439823 1.784292 0.195970 0
M  V30 15 N -2.598600 2.583614 1.297808 0
M  V30 16 C -3.224888 2.128897 2.393820 0
M  V30 17 C -3.737379 0.860262 2.481760 0
M  V30 18 Cl -4.536478 0.379965 3.959533 0
M  V30 19 C -3.584556 0.026089 1.362685 0
M  V30 20 C -4.156639 -1.284955 1.572998 0
M  V30 21 C -5.492096 -1.470550 1.954824 0
M  V30 22 N -5.752873 -2.784170 2.081293 0
M  V30 23 N -4.659175 -3.467096 1.802521 0
M  V30 24 C -4.374926 -4.767042 1.776904 0
M  V30 25 C -3.136525 -5.296549 1.452844 0
M  V30 26 C -2.158974 -4.347158 1.139529 0
M  V30 27 C -2.420303 -2.985591 1.156157 0
M  V30 28 C -3.698737 -2.589865 1.497641 0
M  V30 29 N -2.954627 0.576476 0.342898 0
M  V30 30 C 0.064554 0.520230 -1.406249 0
M  V30 31 C -0.834015 -0.519047 -1.985198 0
M  V30 32 C 3.597046 -0.358303 -1.930985 0
M  V30 33 C 4.667066 -0.677483 -0.936448 0
M  V30 34 H 4.111170 -3.071655 2.424479 0
M  V30 35 H 5.670201 -2.564614 3.109994 0
M  V30 36 H 4.278490 -1.390418 3.076362 0
M  V30 37 H 2.635708 -1.655073 1.665189 0
M  V30 38 H 2.537115 -0.093122 0.834791 0
M  V30 39 H 2.552532 -2.697779 -0.766167 0
M  V30 40 H 1.042841 -1.863567 -0.197841 0
M  V30 41 H 1.717138 -1.174176 -2.471648 0
M  V30 42 H -0.258992 4.250953 -0.002495 0
M  V30 43 H 1.033116 3.772749 1.121992 0
M  V30 44 H 1.435006 4.380873 -0.543475 0
M  V30 45 H -2.376815 2.648329 -1.735688 0
M  V30 46 H -3.332777 2.800387 3.258129 0
M  V30 47 H -6.288361 -0.773654 2.150906 0
M  V30 48 H -5.131075 -5.501441 2.019328 0
M  V30 49 H -2.954975 -6.345361 1.443628 0
M  V30 50 H -1.186705 -4.741404 0.884329 0
M  V30 51 H -1.651982 -2.286895 0.916512 0
M  V30 52 H -1.206144 -1.206134 -1.220454 0
M  V30 53 H -1.649304 -0.009735 -2.544755 0
M  V30 54 H -0.292257 -1.113719 -2.747275 0
M  V30 55 H 3.630047 0.740380 -2.118750 0
M  V30 56 H 3.860098 -0.797063 -2.944194 0
M  V30 57 H 5.377705 0.172107 -0.817715 0
M  V30 58 H 5.303739 -1.493218 -1.377318 0
M  V30 END ATOM
M  V30 BEGIN BOND
M  V30 1 1 1 2
M  V30 2 2 2 3
M  V30 3 1 2 4
M  V30 4 1 4 5
M  V30 5 1 5 6
M  V30 6 1 6 7
M  V30 7 1 7 8
M  V30 8 1 8 9
M  V30 9 2 9 10
M  V30 10 1 10 11
M  V30 11 1 10 12
M  V30 12 1 12 13
M  V30 13 1 13 14
M  V30 14 2 14 15
M  V30 15 1 15 16
M  V30 16 2 16 17
M  V30 17 1 17 18
M  V30 18 1 17 19
M  V30 19 1 19 20
M  V30 20 1 20 21
M  V30 21 2 21 22
M  V30 22 1 22 23
M  V30 23 1 23 24
M  V30 24 2 24 25
M  V30 25 1 25 26
M  V30 26 2 26 27
M  V30 27 1 27 28
M  V30 28 2 19 29
M  V30 29 2 12 30
M  V30 30 1 30 31
M  V30 31 1 7 32
M  V30 32 1 32 33
M  V30 33 1 33 4
M  V30 34 1 30 8
M  V30 35 1 29 14
M  V30 36 2 28 20
M  V30 37 1 28 23
M  V30 38 1 1 34
M  V30 39 1 1 35
M  V30 40 1 1 36
M  V30 41 1 5 37
M  V30 42 1 5 38
M  V30 43 1 6 39
M  V30 44 1 6 40
M  V30 45 1 7 41
M  V30 46 1 11 42
M  V30 47 1 11 43
M  V30 48 1 11 44
M  V30 49 1 13 45
M  V30 50 1 16 46
M  V30 51 1 21 47
M  V30 52 1 24 48
M  V30 53 1 25 49
M  V30 54 1 26 50
M  V30 55 1 27 51
M  V30 56 1 31 52
M  V30 57 1 31 53
M  V30 58 1 31 54
M  V30 59 1 32 55
M  V30 60 1 32 56
M  V30 61 1 33 57
M  V30 62 1 33 58
M  V30 END BOND
M  V30 END CTAB
M  END
>  <Dataset>  (44) 
ChEMBL_Kinases

>  <Ligand_Instance>  (44) 
nan

>  <PDB_ID>  (44) 
nan

>  <Standardized_SMILES>  (44) 
CC(=O)N1CCC(n2nc(C)c(Nc3ncc(Cl)c(-c4cnn5ccccc45)n3)c2C)CC1

>  <Name>  (44) 
nan

>  <Pocket>  (44) 
nan

>  <ATP_Site>  (44) 
nan

>  <Peripheral>  (44) 
nan

>  <Num_H_Atoms_ProtBoundConf>  (44) 
nan

>  <Num_Resolved_Atoms>  (44) 
nan

>  <Num_Not_Resolved_Atoms>  (44) 
nan

$$$$
CHEMBL3823874
     RDKit          3D

  0  0  0  0  0  0  0  0  0  0999 V3000
M  V30 BEGIN CTAB
M  V30 COUNTS 62 66 0 0 0
M  V30 BEGIN ATOM
M  V30 1 C -0.346552 -0.727800 5.508582 0
M  V30 2 N 0.475625 -1.395959 6.493465 0
M  V30 3 C 1.742123 -0.750160 6.586429 0
M  V30 4 C 2.744084 -1.195344 5.561479 0
M  V30 5 N 2.084444 -1.909814 4.524054 0
M  V30 6 C 1.990572 -1.500387 3.170502 0
M  V30 7 C 2.517937 -0.297491 2.766246 0
M  V30 8 C 2.444148 0.128705 1.455741 0
M  V30 9 C 1.834740 -0.633967 0.479998 0
M  V30 10 N 1.723669 -0.253440 -0.890511 0
M  V30 11 C 0.684297 0.399493 -1.442535 0
M  V30 12 C 0.904031 0.607600 -2.788381 0
M  V30 13 C 0.083842 1.261841 -3.813484 0
M  V30 14 C 0.816425 2.129476 -4.633229 0
M  V30 15 C 0.117177 2.784532 -5.624323 0
M  V30 16 N -1.201559 2.625767 -5.826372 0
M  V30 17 C -1.900939 1.792591 -5.037912 0
M  V30 18 C -1.291393 1.092661 -4.019858 0
M  V30 19 O -1.788309 0.193700 -3.092464 0
M  V30 20 C -3.112010 -0.234440 -2.974062 0
M  V30 21 C -3.708292 0.147602 -1.636450 0
M  V30 22 C -3.634998 -0.954725 -0.613390 0
M  V30 23 C -2.511938 -1.931889 -0.859252 0
M  V30 24 C -2.707868 -2.595798 -2.181680 0
M  V30 25 C -3.274825 -1.714576 -3.237252 0
M  V30 26 C 2.150666 0.036741 -3.023034 0
M  V30 27 N 2.612606 -0.469284 -1.865674 0
M  V30 28 C 1.295879 -1.847619 0.857027 0
M  V30 29 C 1.390480 -2.238334 2.179326 0
M  V30 30 C 1.528715 -3.118574 5.094820 0
M  V30 31 C 0.536052 -2.786742 6.184712 0
M  V30 32 H -0.496855 -1.409589 4.650229 0
M  V30 33 H -1.358573 -0.510711 5.944210 0
M  V30 34 H 0.101608 0.227882 5.166860 0
M  V30 35 H 2.159089 -1.021840 7.598456 0
M  V30 36 H 1.662446 0.354928 6.568232 0
M  V30 37 H 3.348719 -0.322708 5.244490 0
M  V30 38 H 3.511832 -1.884553 6.028724 0
M  V30 39 H 3.015791 0.397724 3.401317 0
M  V30 40 H 2.845314 1.063254 1.103847 0
M  V30 41 H -0.203943 0.725611 -0.935190 0
M  V30 42 H 1.878539 2.301166 -4.522966 0
M  V30 43 H 0.562608 3.478752 -6.322648 0
M  V30 44 H -2.949564 1.581663 -5.097372 0
M  V30 45 H -3.714250 0.270972 -3.754732 0
M  V30 46 H -4.783407 0.398313 -1.772016 0
M  V30 47 H -3.214250 1.084691 -1.285176 0
M  V30 48 H -3.504391 -0.490972 0.407530 0
M  V30 49 H -4.576132 -1.536425 -0.533288 0
M  V30 50 H -2.608937 -2.703707 -0.057719 0
M  V30 51 H -1.522996 -1.439636 -0.758404 0
M  V30 52 H -1.738020 -3.043132 -2.540162 0
M  V30 53 H -3.370095 -3.485475 -2.029921 0
M  V30 54 H -4.375018 -1.899688 -3.336750 0
M  V30 55 H -2.854541 -1.911173 -4.238096 0
M  V30 56 H 2.698783 -0.019232 -3.950185 0
M  V30 57 H 0.813550 -2.460800 0.107010 0
M  V30 58 H 0.945458 -3.197986 2.390446 0
M  V30 59 H 0.962942 -3.687987 4.334278 0
M  V30 60 H 2.328136 -3.802632 5.448654 0
M  V30 61 H 0.903467 -3.301854 7.118822 0
M  V30 62 H -0.467321 -3.221459 6.002710 0
M  V30 END ATOM
M  V30 BEGIN BOND
M  V30 1 1 1 2
M  V30 2 1 2 3
M  V30 3 1 3 4
M  V30 4 1 4 5
M  V30 5 1 5 6
M  V30 6 2 6 7
M  V30 7 1 7 8
M  V30 8 2 8 9
M  V30 9 1 9 10
M  V30 10 1 10 11
M  V30 11 2 11 12
M  V30 12 1 12 13
M  V30 13 2 13 14
M  V30 14 1 14 15
M  V30 15 2 15 16
M  V30 16 1 16 17
M  V30 17 2 17 18
M  V30 18 1 18 19
M  V30 19 1 19 20
M  V30 20 1 20 21
M  V30 21 1 21 22
M  V30 22 1 22 23
M  V30 23 1 23 24
M  V30 24 1 24 25
M  V30 25 1 12 26
M  V30 26 2 26 27
M  V30 27 1 9 28
M  V30 28 2 28 29
M  V30 29 1 5 30
M  V30 30 1 30 31
M  V30 31 1 31 2
M  V30 32 1 29 6
M  V30 33 1 27 10
M  V30 34 1 18 13
M  V30 35 1 25 20
M  V30 36 1 1 32
M  V30 37 1 1 33
M  V30 38 1 1 34
M  V30 39 1 3 35
M  V30 40 1 3 36
M  V30 41 1 4 37
M  V30 42 1 4 38
M  V30 43 1 7 39
M  V30 44 1 8 40
M  V30 45 1 11 41
M  V30 46 1 14 42
M  V30 47 1 15 43
M  V30 48 1 17 44
M  V30 49 1 20 45
M  V30 50 1 21 46
M  V30 51 1 21 47
M  V30 52 1 22 48
M  V30 53 1 22 49
M  V30 54 1 23 50
M  V30 55 1 23 51
M  V30 56 1 24 52
M  V30 57 1 24 53
M  V30 58 1 25 54
M  V30 59 1 25 55
M  V30 60 1 26 56
M  V30 61 1 28 57
M  V30 62 1 29 58
M  V30 63 1 30 59
M  V30 64 1 30 60
M  V30 65 1 31 61
M  V30 66 1 31 62
M  V30 END BOND
M  V30 END CTAB
M  END
>  <Dataset>  (45) 
ChEMBL_Kinases

>  <Ligand_Instance>  (45) 
nan

>  <PDB_ID>  (45) 
nan

>  <Standardized_SMILES>  (45) 
CN1CCN(c2ccc(-n3cc(-c4ccncc4OC4CCCCC4)cn3)cc2)CC1

>  <Name>  (45) 
nan

>  <Pocket>  (45) 
nan

>  <ATP_Site>  (45) 
nan

>  <Peripheral>  (45) 
nan

>  <Num_H_Atoms_ProtBoundConf>  (45) 
nan

>  <Num_Resolved_Atoms>  (45) 
nan

>  <Num_Not_Resolved_Atoms>  (45) 
nan

$$$$
CHEMBL495290
     RDKit          3D

  0  0  0  0  0  0  0  0  0  0999 V3000
M  V30 BEGIN CTAB
M  V30 COUNTS 62 67 0 0 0
M  V30 BEGIN ATOM
M  V30 1 C 5.779755 -0.804412 5.969539 0
M  V30 2 C 5.523522 -1.402286 4.633315 0
M  V30 3 O 6.418447 -2.253252 4.318885 0
M  V30 4 N 4.417026 -1.060064 3.818798 0
M  V30 5 C 3.312399 -0.146796 3.974417 0
M  V30 6 C 3.285133 0.867545 2.873913 0
M  V30 7 N 3.301572 0.340925 1.548847 0
M  V30 8 C 2.563158 0.642150 0.367952 0
M  V30 9 N 3.363638 1.066486 -0.632297 0
M  V30 10 N 2.886930 1.405413 -1.823256 0
M  V30 11 C 1.548369 1.337071 -2.086968 0
M  V30 12 C 0.689156 0.908175 -1.093621 0
M  V30 13 C -0.684183 0.789278 -1.219161 0
M  V30 14 C -1.461058 0.346860 -0.158468 0
M  V30 15 C -2.895291 0.276306 -0.452342 0
M  V30 16 C -3.822160 1.283984 -0.271103 0
M  V30 17 C -3.295243 2.559194 0.276809 0
M  V30 18 C -5.143645 1.057779 -0.598331 0
M  V30 19 C -5.597677 -0.140969 -1.105502 0
M  V30 20 C -4.674012 -1.146285 -1.286504 0
M  V30 21 C -4.782343 -2.451275 -1.766333 0
M  V30 22 N -5.974444 -3.115168 -2.223426 0
M  V30 23 C -5.853374 -4.488396 -2.684649 0
M  V30 24 C -7.023150 -5.245929 -3.171582 0
M  V30 25 C -6.070386 -4.722495 -4.160075 0
M  V30 26 N -3.538316 -2.954372 -1.710475 0
M  V30 27 O -2.716820 -2.079289 -1.248475 0
M  V30 28 C -3.347060 -0.940266 -0.965414 0
M  V30 29 C -0.892604 0.004215 1.075360 0
M  V30 30 C 0.476351 0.116342 1.219789 0
M  V30 31 C 1.206788 0.560591 0.137649 0
M  V30 32 C 4.285801 -0.714609 1.413129 0 CFG=1
M  V30 33 C 5.694693 -0.150582 1.192480 0
M  V30 34 C 4.273426 -1.701854 2.550194 0
M  V30 35 H 6.815634 -0.420359 6.082721 0
M  V30 36 H 5.619663 -1.521195 6.798178 0
M  V30 37 H 5.037754 0.018880 6.123846 0
M  V30 38 H 2.379433 -0.743530 3.967958 0
M  V30 39 H 3.325330 0.375816 4.946543 0
M  V30 40 H 4.195597 1.510854 3.022559 0
M  V30 41 H 2.396154 1.528335 3.028776 0
M  V30 42 H 1.105143 1.601301 -3.040991 0
M  V30 43 H -1.102991 1.059613 -2.182055 0
M  V30 44 H -4.122526 3.286512 0.462563 0
M  V30 45 H -2.768553 2.438314 1.251513 0
M  V30 46 H -2.638941 3.054837 -0.478239 0
M  V30 47 H -5.845879 1.889210 -0.437056 0
M  V30 48 H -6.621202 -0.298578 -1.352866 0
M  V30 49 H -6.864886 -2.571486 -2.198351 0
M  V30 50 H -5.053292 -5.090604 -2.185973 0
M  V30 51 H -8.034912 -4.821349 -3.064123 0
M  V30 52 H -7.028283 -6.353153 -3.032001 0
M  V30 53 H -6.415765 -3.843057 -4.740503 0
M  V30 54 H -5.336140 -5.365543 -4.667266 0
M  V30 55 H -1.566157 -0.325737 1.833267 0
M  V30 56 H 0.924604 -0.146230 2.166107 0
M  V30 57 H 4.111406 -1.348903 0.493562 0
M  V30 58 H 6.139710 0.239860 2.129982 0
M  V30 59 H 5.627791 0.641955 0.419170 0
M  V30 60 H 6.314088 -0.967663 0.757553 0
M  V30 61 H 3.303424 -2.239216 2.516160 0
M  V30 62 H 5.048219 -2.455141 2.349578 0
M  V30 END ATOM
M  V30 BEGIN BOND
M  V30 1 1 1 2
M  V30 2 2 2 3
M  V30 3 1 2 4
M  V30 4 1 4 5
M  V30 5 1 5 6
M  V30 6 1 6 7
M  V30 7 1 7 8
M  V30 8 2 8 9
M  V30 9 1 9 10
M  V30 10 2 10 11
M  V30 11 1 11 12
M  V30 12 2 12 13
M  V30 13 1 13 14
M  V30 14 1 14 15
M  V30 15 2 15 16
M  V30 16 1 16 17
M  V30 17 1 16 18
M  V30 18 2 18 19
M  V30 19 1 19 20
M  V30 20 1 20 21
M  V30 21 1 21 22
M  V30 22 1 22 23
M  V30 23 1 23 24
M  V30 24 1 24 25
M  V30 25 2 21 26
M  V30 26 1 26 27
M  V30 27 1 27 28
M  V30 28 2 14 29
M  V30 29 1 29 30
M  V30 30 2 30 31
M  V30 31 1 7 32
M  V30 32 1 32 33
M  V30 33 1 32 34
M  V30 34 1 34 4
M  V30 35 1 31 8
M  V30 36 1 31 12
M  V30 37 1 28 15
M  V30 38 2 28 20
M  V30 39 1 25 23
M  V30 40 1 1 35
M  V30 41 1 1 36
M  V30 42 1 1 37
M  V30 43 1 5 38
M  V30 44 1 5 39
M  V30 45 1 6 40
M  V30 46 1 6 41
M  V30 47 1 11 42
M  V30 48 1 13 43
M  V30 49 1 17 44
M  V30 50 1 17 45
M  V30 51 1 17 46
M  V30 52 1 18 47
M  V30 53 1 19 48
M  V30 54 1 22 49
M  V30 55 1 23 50
M  V30 56 1 24 51
M  V30 57 1 24 52
M  V30 58 1 25 53
M  V30 59 1 25 54
M  V30 60 1 29 55
M  V30 61 1 30 56
M  V30 62 1 32 57 CFG=3
M  V30 63 1 33 58
M  V30 64 1 33 59
M  V30 65 1 33 60
M  V30 66 1 34 61
M  V30 67 1 34 62
M  V30 END BOND
M  V30 END CTAB
M  END
>  <Dataset>  (46) 
ChEMBL_Kinases

>  <Ligand_Instance>  (46) 
nan

>  <PDB_ID>  (46) 
nan

>  <Standardized_SMILES>  (46) 
CC(=O)N1CCN(c2nncc3cc(-c4c(C)ccc5c(NC6CC6)noc45)ccc23)[C@@H](C)C1

>  <Name>  (46) 
nan

>  <Pocket>  (46) 
nan

>  <ATP_Site>  (46) 
nan

>  <Peripheral>  (46) 
nan

>  <Num_H_Atoms_ProtBoundConf>  (46) 
nan

>  <Num_Resolved_Atoms>  (46) 
nan

>  <Num_Not_Resolved_Atoms>  (46) 
nan

$$$$
CHEMBL382379
     RDKit          3D

  0  0  0  0  0  0  0  0  0  0999 V3000
M  V30 BEGIN CTAB
M  V30 COUNTS 44 46 0 0 0
M  V30 BEGIN ATOM
M  V30 1 N -2.107413 -3.435116 2.554511 0
M  V30 2 C -1.189217 -2.586077 1.786006 0 CFG=2
M  V30 3 C -0.543022 -1.660211 2.791092 0
M  V30 4 O 0.364171 -0.759736 2.285481 0
M  V30 5 C 1.536204 -0.887795 1.632236 0
M  V30 6 C 2.281374 -1.948302 1.226051 0
M  V30 7 N 3.445149 -1.862105 0.573658 0
M  V30 8 C 3.967004 -0.667963 0.269784 0
M  V30 9 C 3.295977 0.505901 0.634047 0
M  V30 10 N 3.901300 1.728805 0.267115 0
M  V30 11 C 3.831729 3.066263 0.734392 0
M  V30 12 C 4.164587 4.202439 0.006060 0
M  V30 13 C 4.071191 5.430542 0.573353 0
M  V30 14 C 3.658170 5.672429 1.864845 0
M  V30 15 N 3.333334 4.568018 2.577617 0
M  V30 16 C 3.420632 3.327942 2.026243 0
M  V30 17 C 2.092032 0.353452 1.308802 0
M  V30 18 C -1.935826 -1.730910 0.808148 0
M  V30 19 C -2.724529 -2.444402 -0.192339 0
M  V30 20 C -2.128916 -2.785662 -1.394027 0
M  V30 21 C -2.909380 -3.457291 -2.307169 0
M  V30 22 C -4.247005 -3.819972 -2.119070 0
M  V30 23 C -4.770616 -3.446001 -0.898195 0
M  V30 24 C -4.047017 -2.771526 0.063558 0
M  V30 25 H -2.558099 -2.806266 3.255997 0
M  V30 26 H -2.749020 -3.980126 1.968004 0
M  V30 27 H -0.440856 -3.245512 1.376728 0
M  V30 28 H -0.179089 -2.219268 3.684286 0
M  V30 29 H -1.404721 -1.050839 3.206672 0
M  V30 30 H 1.870987 -2.910295 1.473622 0
M  V30 31 H 4.908551 -0.613167 -0.257957 0
M  V30 32 H 4.582212 1.698672 -0.553064 0
M  V30 33 H 4.494602 4.037446 -1.019023 0
M  V30 34 H 4.354614 6.254084 -0.080767 0
M  V30 35 H 3.621057 6.678518 2.211230 0
M  V30 36 H 3.131716 2.605671 2.754648 0
M  V30 37 H 1.632250 1.293560 1.543917 0
M  V30 38 H -2.650395 -1.121138 1.428606 0
M  V30 39 H -1.249773 -1.008719 0.328702 0
M  V30 40 H -1.119322 -2.552687 -1.626660 0
M  V30 41 H -2.473610 -3.742260 -3.264863 0
M  V30 42 H -4.790565 -4.348593 -2.890344 0
M  V30 43 H -5.823902 -3.726535 -0.738821 0
M  V30 44 H -4.518664 -2.506085 1.004477 0
M  V30 END ATOM
M  V30 BEGIN BOND
M  V30 1 1 1 2
M  V30 2 1 2 3
M  V30 3 1 3 4
M  V30 4 1 4 5
M  V30 5 2 5 6
M  V30 6 1 6 7
M  V30 7 2 7 8
M  V30 8 1 8 9
M  V30 9 1 9 10
M  V30 10 1 10 11
M  V30 11 2 11 12
M  V30 12 1 12 13
M  V30 13 2 13 14
M  V30 14 1 14 15
M  V30 15 2 15 16
M  V30 16 2 9 17
M  V30 17 1 2 18
M  V30 18 1 18 19
M  V30 19 2 19 20
M  V30 20 1 20 21
M  V30 21 2 21 22
M  V30 22 1 22 23
M  V30 23 2 23 24
M  V30 24 1 17 5
M  V30 25 1 24 19
M  V30 26 1 16 11
M  V30 27 1 1 25
M  V30 28 1 1 26
M  V30 29 1 2 27 CFG=3
M  V30 30 1 3 28
M  V30 31 1 3 29
M  V30 32 1 6 30
M  V30 33 1 8 31
M  V30 34 1 10 32
M  V30 35 1 12 33
M  V30 36 1 13 34
M  V30 37 1 14 35
M  V30 38 1 16 36
M  V30 39 1 17 37
M  V30 40 1 18 38
M  V30 41 1 18 39
M  V30 42 1 20 40
M  V30 43 1 21 41
M  V30 44 1 22 42
M  V30 45 1 23 43
M  V30 46 1 24 44
M  V30 END BOND
M  V30 END CTAB
M  END
>  <Dataset>  (47) 
ChEMBL_Kinases

>  <Ligand_Instance>  (47) 
nan

>  <PDB_ID>  (47) 
nan

>  <Standardized_SMILES>  (47) 
N[C@H](COc1cncc(Nc2cccnc2)c1)Cc1ccccc1

>  <Name>  (47) 
nan

>  <Pocket>  (47) 
nan

>  <ATP_Site>  (47) 
nan

>  <Peripheral>  (47) 
nan

>  <Num_H_Atoms_ProtBoundConf>  (47) 
nan

>  <Num_Resolved_Atoms>  (47) 
nan

>  <Num_Not_Resolved_Atoms>  (47) 
nan

$$$$
CHEMBL3823633
     RDKit          3D

  0  0  0  0  0  0  0  0  0  0999 V3000
M  V30 BEGIN CTAB
M  V30 COUNTS 49 52 0 0 0
M  V30 BEGIN ATOM
M  V30 1 C 1.867580 -5.840562 -1.004410 0
M  V30 2 O 1.764325 -4.608239 -1.681230 0
M  V30 3 C 2.580855 -4.252028 -2.719543 0
M  V30 4 C 3.600989 -5.014111 -3.253298 0
M  V30 5 N 4.377024 -4.623551 -4.273124 0
M  V30 6 C 4.155630 -3.424709 -4.811019 0
M  V30 7 C 3.157496 -2.562858 -4.362254 0
M  V30 8 C 2.369416 -3.004687 -3.298008 0
M  V30 9 C 1.330337 -2.052447 -2.865334 0
M  V30 10 C 0.458509 -1.316674 -3.656937 0
M  V30 11 N -0.313211 -0.580421 -2.809417 0
M  V30 12 N 0.021751 -0.811038 -1.556536 0
M  V30 13 C -0.547745 -0.237014 -0.377000 0
M  V30 14 C -1.058334 1.055182 -0.404970 0
M  V30 15 C -1.608904 1.612850 0.731415 0
M  V30 16 C -1.679044 0.929599 1.929115 0
M  V30 17 N -2.229245 1.431776 3.140145 0
M  V30 18 C -2.254384 0.628211 4.367741 0
M  V30 19 C -2.457911 1.469707 5.578522 0
M  V30 20 N -1.697706 2.694683 5.515911 0
M  V30 21 C -0.271788 2.470653 5.604677 0
M  V30 22 C -2.077938 3.520363 4.390855 0
M  V30 23 C -2.807574 2.722334 3.329755 0
M  V30 24 C -1.167195 -0.352273 1.938314 0
M  V30 25 C -0.607911 -0.946826 0.823122 0
M  V30 26 C 1.031594 -1.713875 -1.561245 0
M  V30 27 H 2.119036 -6.612727 -1.772061 0
M  V30 28 H 2.600284 -5.825886 -0.165170 0
M  V30 29 H 0.879212 -6.163012 -0.581775 0
M  V30 30 H 3.773503 -5.993656 -2.805348 0
M  V30 31 H 4.752921 -3.058912 -5.637195 0
M  V30 32 H 3.017268 -1.595039 -4.834785 0
M  V30 33 H 0.447002 -1.365731 -4.737422 0
M  V30 34 H -1.015782 1.612959 -1.331452 0
M  V30 35 H -2.003932 2.611707 0.710696 0
M  V30 36 H -1.223248 0.173208 4.433740 0
M  V30 37 H -3.016186 -0.171978 4.289285 0
M  V30 38 H -2.071297 0.911756 6.464575 0
M  V30 39 H -3.512644 1.692619 5.801414 0
M  V30 40 H 0.236927 3.411196 5.284150 0
M  V30 41 H 0.091343 1.639375 5.001465 0
M  V30 42 H 0.029874 2.326002 6.672740 0
M  V30 43 H -2.719003 4.331365 4.798585 0
M  V30 44 H -1.157610 3.954854 3.956567 0
M  V30 45 H -3.862137 2.549283 3.668625 0
M  V30 46 H -2.875648 3.323476 2.408793 0
M  V30 47 H -1.141500 -1.023784 2.785803 0
M  V30 48 H -0.196079 -1.941846 0.780281 0
M  V30 49 H 1.503985 -2.086726 -0.661157 0
M  V30 END ATOM
M  V30 BEGIN BOND
M  V30 1 1 1 2
M  V30 2 1 2 3
M  V30 3 2 3 4
M  V30 4 1 4 5
M  V30 5 2 5 6
M  V30 6 1 6 7
M  V30 7 2 7 8
M  V30 8 1 8 9
M  V30 9 1 9 10
M  V30 10 2 10 11
M  V30 11 1 11 12
M  V30 12 1 12 13
M  V30 13 2 13 14
M  V30 14 1 14 15
M  V30 15 2 15 16
M  V30 16 1 16 17
M  V30 17 1 17 18
M  V30 18 1 18 19
M  V30 19 1 19 20
M  V30 20 1 20 21
M  V30 21 1 20 22
M  V30 22 1 22 23
M  V30 23 1 16 24
M  V30 24 2 24 25
M  V30 25 1 12 26
M  V30 26 1 8 3
M  V30 27 2 26 9
M  V30 28 1 25 13
M  V30 29 1 23 17
M  V30 30 1 1 27
M  V30 31 1 1 28
M  V30 32 1 1 29
M  V30 33 1 4 30
M  V30 34 1 6 31
M  V30 35 1 7 32
M  V30 36 1 10 33
M  V30 37 1 14 34
M  V30 38 1 15 35
M  V30 39 1 18 36
M  V30 40 1 18 37
M  V30 41 1 19 38
M  V30 42 1 19 39
M  V30 43 1 21 40
M  V30 44 1 21 41
M  V30 45 1 21 42
M  V30 46 1 22 43
M  V30 47 1 22 44
M  V30 48 1 23 45
M  V30 49 1 23 46
M  V30 50 1 24 47
M  V30 51 1 25 48
M  V30 52 1 26 49
M  V30 END BOND
M  V30 END CTAB
M  END
>  <Dataset>  (48) 
ChEMBL_Kinases

>  <Ligand_Instance>  (48) 
nan

>  <PDB_ID>  (48) 
nan

>  <Standardized_SMILES>  (48) 
COc1cnccc1-c1cnn(-c2ccc(N3CCN(C)CC3)cc2)c1

>  <Name>  (48) 
nan

>  <Pocket>  (48) 
nan

>  <ATP_Site>  (48) 
nan

>  <Peripheral>  (48) 
nan

>  <Num_H_Atoms_ProtBoundConf>  (48) 
nan

>  <Num_Resolved_Atoms>  (48) 
nan

>  <Num_Not_Resolved_Atoms>  (48) 
nan

$$$$
CHEMBL3823622
     RDKit          3D

  0  0  0  0  0  0  0  0  0  0999 V3000
M  V30 BEGIN CTAB
M  V30 COUNTS 69 74 0 0 0
M  V30 BEGIN ATOM
M  V30 1 O 2.801956 -3.534137 4.283896 0
M  V30 2 C 2.479323 -2.357716 4.008358 0
M  V30 3 N 1.777897 -1.471124 4.881720 0
M  V30 4 C 1.606981 -0.221705 4.183348 0
M  V30 5 C 0.961823 0.879723 4.704655 0
M  V30 6 C 0.877384 1.991899 3.891694 0
M  V30 7 C 1.444623 1.898083 2.637824 0
M  V30 8 N 1.298594 3.062504 1.829658 0
M  V30 9 C 0.172907 2.709330 1.060738 0
M  V30 10 O -0.462982 1.594097 1.156514 0
M  V30 11 C -0.765799 3.184031 -0.028276 0 CFG=2
M  V30 12 N -1.645690 2.100383 -0.367770 0
M  V30 13 C -3.005113 1.773099 -0.396147 0
M  V30 14 O -3.705896 2.747509 0.011052 0
M  V30 15 C -3.592337 0.539558 -0.811068 0
M  V30 16 C -4.965143 0.437591 -0.750305 0
M  V30 17 C -5.598419 -0.725948 -1.132321 0
M  V30 18 C -4.911279 -1.850073 -1.594826 0
M  V30 19 N -3.548512 -1.738394 -1.652720 0
M  V30 20 C -2.767539 -2.861075 -2.125084 0
M  V30 21 C -2.355332 -3.762562 -1.040320 0
M  V30 22 C -1.180925 -3.710375 -0.333821 0
M  V30 23 C -0.926887 -4.609396 0.658759 0
M  V30 24 C -1.828686 -5.594216 0.987424 0
M  V30 25 F -1.607999 -6.516141 1.978720 0
M  V30 26 C -3.053012 -5.719929 0.316454 0
M  V30 27 F -4.002449 -6.651629 0.565251 0
M  V30 28 C -3.249699 -4.766478 -0.689488 0
M  V30 29 C -2.973842 -0.586128 -1.270174 0
M  V30 30 O -1.725277 -0.588521 -1.361369 0
M  V30 31 C 0.040235 3.592115 -1.200269 0
M  V30 32 C 0.695650 2.709885 -2.028658 0
M  V30 33 C 1.443062 3.106165 -3.117536 0
M  V30 34 C 1.556251 4.447662 -3.412795 0
M  V30 35 C 0.913225 5.392762 -2.606979 0
M  V30 36 C 0.183164 4.920440 -1.535487 0
M  V30 37 C 2.086071 0.789917 2.134148 0
M  V30 38 C 2.178443 -0.331554 2.934708 0
M  V30 39 C 2.752770 -1.668187 2.755839 0
M  V30 40 C 3.358550 -2.116229 1.667035 0
M  V30 41 C 3.857750 -3.484308 1.620222 0
M  V30 42 N 4.480711 -4.366998 2.414037 0
M  V30 43 C 4.674882 -5.525747 1.795277 0
M  V30 44 C 4.142844 -5.392545 0.509106 0
M  V30 45 N 3.659761 -4.149702 0.440542 0
M  V30 46 H 1.472748 -1.743187 5.840896 0
M  V30 47 H 0.530226 0.916399 5.693524 0
M  V30 48 H 0.383323 2.886099 4.244804 0
M  V30 49 H 1.488528 4.001788 1.444152 0
M  V30 50 H -1.369799 4.041858 0.318325 0
M  V30 51 H -0.956594 1.383694 -0.679068 0
M  V30 52 H -5.628244 1.233280 -0.410184 0
M  V30 53 H -6.687616 -0.803793 -1.083156 0
M  V30 54 H -5.360582 -2.778983 -1.903699 0
M  V30 55 H -1.825887 -2.515271 -2.628818 0
M  V30 56 H -3.351753 -3.367350 -2.918486 0
M  V30 57 H -0.475899 -2.920006 -0.609565 0
M  V30 58 H 0.010198 -4.572442 1.225790 0
M  V30 59 H -4.203075 -4.855763 -1.220142 0
M  V30 60 H 0.648836 1.637560 -1.849047 0
M  V30 61 H 1.938365 2.362587 -3.736395 0
M  V30 62 H 2.148478 4.718908 -4.272878 0
M  V30 63 H 1.000441 6.446983 -2.837193 0
M  V30 64 H -0.292905 5.696381 -0.947354 0
M  V30 65 H 2.523669 0.741891 1.149970 0
M  V30 66 H 3.456226 -1.421722 0.846941 0
M  V30 67 H 5.177616 -6.340799 2.333196 0
M  V30 68 H 4.187709 -6.223214 -0.181458 0
M  V30 69 H 3.222787 -3.906611 -0.487394 0
M  V30 END ATOM
M  V30 BEGIN BOND
M  V30 1 2 1 2
M  V30 2 1 2 3
M  V30 3 1 3 4
M  V30 4 2 4 5
M  V30 5 1 5 6
M  V30 6 2 6 7
M  V30 7 1 7 8
M  V30 8 1 8 9
M  V30 9 2 9 10
M  V30 10 1 9 11
M  V30 11 1 11 12
M  V30 12 1 12 13
M  V30 13 2 13 14
M  V30 14 1 13 15
M  V30 15 2 15 16
M  V30 16 1 16 17
M  V30 17 2 17 18
M  V30 18 1 18 19
M  V30 19 1 19 20
M  V30 20 1 20 21
M  V30 21 2 21 22
M  V30 22 1 22 23
M  V30 23 2 23 24
M  V30 24 1 24 25
M  V30 25 1 24 26
M  V30 26 1 26 27
M  V30 27 2 26 28
M  V30 28 1 19 29
M  V30 29 2 29 30
M  V30 30 1 11 31
M  V30 31 2 31 32
M  V30 32 1 32 33
M  V30 33 2 33 34
M  V30 34 1 34 35
M  V30 35 2 35 36
M  V30 36 1 7 37
M  V30 37 2 37 38
M  V30 38 1 38 39
M  V30 39 2 39 40
M  V30 40 1 40 41
M  V30 41 2 41 42
M  V30 42 1 42 43
M  V30 43 2 43 44
M  V30 44 1 44 45
M  V30 45 1 39 2
M  V30 46 1 45 41
M  V30 47 1 38 4
M  V30 48 1 29 15
M  V30 49 1 36 31
M  V30 50 1 28 21
M  V30 51 1 3 46
M  V30 52 1 5 47
M  V30 53 1 6 48
M  V30 54 1 8 49
M  V30 55 1 11 50 CFG=1
M  V30 56 1 12 51
M  V30 57 1 16 52
M  V30 58 1 17 53
M  V30 59 1 18 54
M  V30 60 1 20 55
M  V30 61 1 20 56
M  V30 62 1 22 57
M  V30 63 1 23 58
M  V30 64 1 28 59
M  V30 65 1 32 60
M  V30 66 1 33 61
M  V30 67 1 34 62
M  V30 68 1 35 63
M  V30 69 1 36 64
M  V30 70 1 37 65
M  V30 71 1 40 66
M  V30 72 1 43 67
M  V30 73 1 44 68
M  V30 74 1 45 69
M  V30 END BOND
M  V30 END CTAB
M  END
>  <Dataset>  (49) 
ChEMBL_Kinases

>  <Ligand_Instance>  (49) 
nan

>  <PDB_ID>  (49) 
nan

>  <Standardized_SMILES>  (49) 
O=C1Nc2ccc(NC(=O)[C@H](NC(=O)c3cccn(Cc4ccc(F)c(F)c4)c3=O)c3ccccc3)cc2/C1=C/c1ncc[nH]1

>  <Name>  (49) 
nan

>  <Pocket>  (49) 
nan

>  <ATP_Site>  (49) 
nan

>  <Peripheral>  (49) 
nan

>  <Num_H_Atoms_ProtBoundConf>  (49) 
nan

>  <Num_Resolved_Atoms>  (49) 
nan

>  <Num_Not_Resolved_Atoms>  (49) 
nan

$$$$
CHEMBL3823614
     RDKit          3D

  0  0  0  0  0  0  0  0  0  0999 V3000
M  V30 BEGIN CTAB
M  V30 COUNTS 47 51 0 0 0
M  V30 BEGIN ATOM
M  V30 1 C 0.320508 -1.981344 3.593257 0
M  V30 2 C -0.301453 -2.912677 2.615404 0 CFG=2
M  V30 3 N 0.591255 -3.544555 1.683390 0
M  V30 4 C 1.447455 -2.715745 0.913124 0
M  V30 5 N 2.713190 -2.846342 1.402614 0
M  V30 6 C 3.720653 -2.145291 0.841410 0
M  V30 7 C 3.528381 -1.288355 -0.221787 0
M  V30 8 C 2.231727 -1.176776 -0.694983 0
M  V30 9 N 1.877908 -0.318923 -1.777568 0
M  V30 10 C 1.577045 1.007542 -1.311023 0
M  V30 11 C 1.641516 1.501832 -0.026183 0
M  V30 12 C 1.250554 2.844836 0.028556 0
M  V30 13 C 1.177535 3.759161 1.192650 0 CFG=2
M  V30 14 C 2.407252 4.425521 1.706053 0
M  V30 15 C 1.833867 3.295170 2.501457 0 CFG=1
M  V30 16 F 1.172636 3.513446 3.690205 0
M  V30 17 N 0.962060 3.104354 -1.257743 0
M  V30 18 N 1.145954 2.067045 -2.023376 0
M  V30 19 N 1.197086 -1.877860 -0.141948 0
M  V30 20 C -1.463975 -2.381572 1.881949 0
M  V30 21 C -2.032707 -1.151239 1.893446 0
M  V30 22 C -3.157050 -0.864959 1.127551 0
M  V30 23 C -3.727693 -1.835766 0.329355 0
M  V30 24 N -4.798220 -1.873101 -0.509569 0
M  V30 25 C -4.915598 -3.105211 -1.049404 0
M  V30 26 C -3.882794 -3.843707 -0.523232 0
M  V30 27 C -3.114544 -3.074336 0.349522 0
M  V30 28 N -2.010985 -3.351184 1.102275 0
M  V30 29 H -0.265080 -1.976576 4.558736 0
M  V30 30 H 1.332120 -2.372126 3.867505 0
M  V30 31 H 0.469708 -0.950677 3.209501 0
M  V30 32 H -0.735050 -3.764771 3.247144 0
M  V30 33 H 0.669904 -4.568795 1.516327 0
M  V30 34 H 4.770722 -2.175434 1.154225 0
M  V30 35 H 4.240699 -0.691525 -0.741064 0
M  V30 36 H 1.812540 -0.498989 -2.782491 0
M  V30 37 H 1.944160 0.970822 0.864741 0
M  V30 38 H 0.267831 4.411899 1.287436 0
M  V30 39 H 2.315439 5.424066 2.183748 0
M  V30 40 H 3.321480 4.267372 1.135988 0
M  V30 41 H 2.418911 2.333296 2.442046 0
M  V30 42 H 0.622564 4.062020 -1.580931 0
M  V30 43 H -1.533066 -0.450312 2.535332 0
M  V30 44 H -3.580938 0.122224 1.158022 0
M  V30 45 H -5.448647 -1.058511 -0.716052 0
M  V30 46 H -5.688939 -3.384888 -1.748327 0
M  V30 47 H -3.735837 -4.873327 -0.785693 0
M  V30 END ATOM
M  V30 BEGIN BOND
M  V30 1 1 1 2
M  V30 2 1 2 3
M  V30 3 1 3 4
M  V30 4 2 4 5
M  V30 5 1 5 6
M  V30 6 2 6 7
M  V30 7 1 7 8
M  V30 8 1 8 9
M  V30 9 1 9 10
M  V30 10 1 10 11
M  V30 11 2 11 12
M  V30 12 1 12 13
M  V30 13 1 13 14
M  V30 14 1 14 15
M  V30 15 1 15 16
M  V30 16 1 12 17
M  V30 17 1 17 18
M  V30 18 2 8 19
M  V30 19 1 2 20
M  V30 20 2 20 21
M  V30 21 1 21 22
M  V30 22 2 22 23
M  V30 23 1 23 24
M  V30 24 1 24 25
M  V30 25 2 25 26
M  V30 26 1 26 27
M  V30 27 2 27 28
M  V30 28 1 19 4
M  V30 29 1 28 20
M  V30 30 2 18 10
M  V30 31 1 27 23
M  V30 32 1 15 13
M  V30 33 1 1 29
M  V30 34 1 1 30
M  V30 35 1 1 31
M  V30 36 1 2 32 CFG=1
M  V30 37 1 3 33
M  V30 38 1 6 34
M  V30 39 1 7 35
M  V30 40 1 9 36
M  V30 41 1 11 37
M  V30 42 1 13 38 CFG=1
M  V30 43 1 14 39
M  V30 44 1 14 40
M  V30 45 1 15 41 CFG=3
M  V30 46 1 17 42
M  V30 47 1 21 43
M  V30 48 1 22 44
M  V30 49 1 24 45
M  V30 50 1 25 46
M  V30 51 1 26 47
M  V30 END BOND
M  V30 END CTAB
M  END
>  <Dataset>  (50) 
ChEMBL_Kinases

>  <Ligand_Instance>  (50) 
nan

>  <PDB_ID>  (50) 
nan

>  <Standardized_SMILES>  (50) 
C[C@H](Nc1nccc(Nc2cc([C@@H]3C[C@H]3F)[nH]n2)n1)c1ccc2[nH]ccc2n1

>  <Name>  (50) 
nan

>  <Pocket>  (50) 
nan

>  <ATP_Site>  (50) 
nan

>  <Peripheral>  (50) 
nan

>  <Num_H_Atoms_ProtBoundConf>  (50) 
nan

>  <Num_Resolved_Atoms>  (50) 
nan

>  <Num_Not_Resolved_Atoms>  (50) 
nan

$$$$
CHEMBL3823612
     RDKit          3D

  0  0  0  0  0  0  0  0  0  0999 V3000
M  V30 BEGIN CTAB
M  V30 COUNTS 47 51 0 0 0
M  V30 BEGIN ATOM
M  V30 1 C -0.762502 -3.476869 3.497352 0
M  V30 2 C -0.593309 -3.463744 2.014100 0 CFG=2
M  V30 3 N 0.700519 -2.908558 1.619087 0
M  V30 4 C 1.205705 -2.670190 0.300215 0
M  V30 5 N 1.409913 -3.630300 -0.594481 0
M  V30 6 C 1.890399 -3.373866 -1.842574 0
M  V30 7 C 2.149007 -2.050970 -2.110632 0
M  V30 8 C 1.957449 -1.011944 -1.222570 0
M  V30 9 N 2.241062 0.326317 -1.605978 0
M  V30 10 C 2.186407 1.424183 -0.707802 0
M  V30 11 C 1.978510 1.446573 0.655037 0
M  V30 12 C 1.991747 2.743872 1.131343 0
M  V30 13 C 1.834506 3.250700 2.532304 0
M  V30 14 C 2.842434 2.854969 3.556354 0
M  V30 15 C 1.480999 2.171079 3.534723 0
M  V30 16 N 2.210436 3.483971 0.032382 0
M  V30 17 N 2.323586 2.716143 -1.038094 0
M  V30 18 N 1.481674 -1.399769 -0.033092 0
M  V30 19 C -1.710687 -2.889168 1.254977 0
M  V30 20 C -1.582989 -1.509479 1.133406 0
M  V30 21 C -2.548697 -0.776000 0.449068 0
M  V30 22 C -2.710152 0.569652 0.156558 0
M  V30 23 C -3.875570 0.711548 -0.563248 0
M  V30 24 N -4.446398 -0.503340 -0.729430 0
M  V30 25 C -3.659473 -1.400848 -0.127018 0
M  V30 26 C -3.718101 -2.778910 0.036199 0
M  V30 27 N -2.784145 -3.486103 0.697780 0
M  V30 28 H 0.244995 -3.474705 3.956657 0
M  V30 29 H -1.317942 -2.605473 3.900791 0
M  V30 30 H -1.305028 -4.396125 3.830836 0
M  V30 31 H -0.497194 -4.557018 1.716752 0
M  V30 32 H 1.361008 -2.637000 2.407793 0
M  V30 33 H 2.052583 -4.146152 -2.561436 0
M  V30 34 H 2.533280 -1.843303 -3.108900 0
M  V30 35 H 2.500412 0.503584 -2.596669 0
M  V30 36 H 1.821376 0.556600 1.283362 0
M  V30 37 H 1.438479 4.270148 2.614530 0
M  V30 38 H 2.944335 3.532618 4.428570 0
M  V30 39 H 3.745088 2.281031 3.320207 0
M  V30 40 H 0.717989 2.441874 4.283851 0
M  V30 41 H 1.553193 1.102636 3.233278 0
M  V30 42 H 2.289495 4.521633 -0.012391 0
M  V30 43 H -0.797585 -0.905440 1.512459 0
M  V30 44 H -2.026150 1.355518 0.448718 0
M  V30 45 H -4.276471 1.664851 -0.941084 0
M  V30 46 H -5.331510 -0.657134 -1.239765 0
M  V30 47 H -4.552595 -3.321366 -0.381927 0
M  V30 END ATOM
M  V30 BEGIN BOND
M  V30 1 1 1 2
M  V30 2 1 2 3
M  V30 3 1 3 4
M  V30 4 2 4 5
M  V30 5 1 5 6
M  V30 6 2 6 7
M  V30 7 1 7 8
M  V30 8 1 8 9
M  V30 9 1 9 10
M  V30 10 1 10 11
M  V30 11 2 11 12
M  V30 12 1 12 13
M  V30 13 1 13 14
M  V30 14 1 14 15
M  V30 15 1 12 16
M  V30 16 1 16 17
M  V30 17 2 8 18
M  V30 18 1 2 19
M  V30 19 2 19 20
M  V30 20 1 20 21
M  V30 21 1 21 22
M  V30 22 2 22 23
M  V30 23 1 23 24
M  V30 24 1 24 25
M  V30 25 1 25 26
M  V30 26 2 26 27
M  V30 27 1 18 4
M  V30 28 1 27 19
M  V30 29 2 17 10
M  V30 30 2 25 21
M  V30 31 1 15 13
M  V30 32 1 1 28
M  V30 33 1 1 29
M  V30 34 1 1 30
M  V30 35 1 2 31 CFG=3
M  V30 36 1 3 32
M  V30 37 1 6 33
M  V30 38 1 7 34
M  V30 39 1 9 35
M  V30 40 1 11 36
M  V30 41 1 13 37
M  V30 42 1 14 38
M  V30 43 1 14 39
M  V30 44 1 15 40
M  V30 45 1 15 41
M  V30 46 1 16 42
M  V30 47 1 20 43
M  V30 48 1 22 44
M  V30 49 1 23 45
M  V30 50 1 24 46
M  V30 51 1 26 47
M  V30 END BOND
M  V30 END CTAB
M  END
>  <Dataset>  (51) 
ChEMBL_Kinases

>  <Ligand_Instance>  (51) 
nan

>  <PDB_ID>  (51) 
nan

>  <Standardized_SMILES>  (51) 
C[C@H](Nc1nccc(Nc2cc(C3CC3)[nH]n2)n1)c1cc2cc[nH]c2cn1

>  <Name>  (51) 
nan

>  <Pocket>  (51) 
nan

>  <ATP_Site>  (51) 
nan

>  <Peripheral>  (51) 
nan

>  <Num_H_Atoms_ProtBoundConf>  (51) 
nan

>  <Num_Resolved_Atoms>  (51) 
nan

>  <Num_Not_Resolved_Atoms>  (51) 
nan

$$$$
CHEMBL3823597
     RDKit          3D

  0  0  0  0  0  0  0  0  0  0999 V3000
M  V30 BEGIN CTAB
M  V30 COUNTS 45 48 0 0 0
M  V30 BEGIN ATOM
M  V30 1 C -0.429161 -6.704962 1.117080 0
M  V30 2 N 0.105559 -5.519845 0.479140 0
M  V30 3 C 1.467536 -5.267439 0.891892 0
M  V30 4 C 2.057722 -4.182541 0.022628 0
M  V30 5 N 1.056753 -3.394008 -0.667581 0
M  V30 6 C 0.749254 -2.016996 -0.506218 0
M  V30 7 C -0.210512 -1.367400 -1.247896 0
M  V30 8 C -0.473803 -0.028678 -1.054202 0
M  V30 9 C 0.225317 0.714020 -0.097608 0
M  V30 10 N -0.019004 2.100313 0.130994 0
M  V30 11 C -0.075302 2.676345 1.345013 0
M  V30 12 C -0.325643 4.029052 1.245746 0
M  V30 13 C -0.450319 4.962478 2.362728 0
M  V30 14 C 0.321331 4.676053 3.490802 0
M  V30 15 C 0.221946 5.545404 4.564218 0
M  V30 16 N -0.571852 6.632521 4.563951 0
M  V30 17 C -1.307687 6.881688 3.453246 0
M  V30 18 C -1.284492 6.084622 2.332811 0
M  V30 19 C -0.422309 4.256604 -0.132772 0
M  V30 20 N -0.230620 3.068253 -0.750132 0
M  V30 21 C 1.192584 0.043154 0.644465 0
M  V30 22 C 1.447973 -1.301078 0.440794 0
M  V30 23 C 0.395255 -4.294214 -1.590539 0
M  V30 24 C 0.118143 -5.641577 -0.959350 0
M  V30 25 H -0.155912 -6.744520 2.180848 0
M  V30 26 H -1.497260 -6.796368 0.918248 0
M  V30 27 H 0.069021 -7.573459 0.615707 0
M  V30 28 H 2.008821 -6.245010 0.734477 0
M  V30 29 H 1.544764 -5.072763 1.972526 0
M  V30 30 H 2.723262 -3.583343 0.675877 0
M  V30 31 H 2.753064 -4.681185 -0.700235 0
M  V30 32 H -0.777396 -1.889785 -1.996945 0
M  V30 33 H -1.232311 0.458565 -1.649243 0
M  V30 34 H 0.052459 2.180977 2.288221 0
M  V30 35 H 0.964526 3.803324 3.502750 0
M  V30 36 H 0.844721 5.282273 5.427753 0
M  V30 37 H -1.978927 7.752575 3.382812 0
M  V30 38 H -1.862183 6.267095 1.441995 0
M  V30 39 H -0.617578 5.239153 -0.537574 0
M  V30 40 H 1.720600 0.656608 1.385044 0
M  V30 41 H 2.216355 -1.669077 1.086924 0
M  V30 42 H -0.575526 -3.907121 -1.968493 0
M  V30 43 H 1.016842 -4.424175 -2.518980 0
M  V30 44 H 0.916525 -6.332543 -1.317079 0
M  V30 45 H -0.863704 -6.045997 -1.283697 0
M  V30 END ATOM
M  V30 BEGIN BOND
M  V30 1 1 1 2
M  V30 2 1 2 3
M  V30 3 1 3 4
M  V30 4 1 4 5
M  V30 5 1 5 6
M  V30 6 2 6 7
M  V30 7 1 7 8
M  V30 8 2 8 9
M  V30 9 1 9 10
M  V30 10 1 10 11
M  V30 11 2 11 12
M  V30 12 1 12 13
M  V30 13 2 13 14
M  V30 14 1 14 15
M  V30 15 2 15 16
M  V30 16 1 16 17
M  V30 17 2 17 18
M  V30 18 1 12 19
M  V30 19 2 19 20
M  V30 20 1 9 21
M  V30 21 2 21 22
M  V30 22 1 5 23
M  V30 23 1 23 24
M  V30 24 1 24 2
M  V30 25 1 22 6
M  V30 26 1 20 10
M  V30 27 1 18 13
M  V30 28 1 1 25
M  V30 29 1 1 26
M  V30 30 1 1 27
M  V30 31 1 3 28
M  V30 32 1 3 29
M  V30 33 1 4 30
M  V30 34 1 4 31
M  V30 35 1 7 32
M  V30 36 1 8 33
M  V30 37 1 11 34
M  V30 38 1 14 35
M  V30 39 1 15 36
M  V30 40 1 17 37
M  V30 41 1 18 38
M  V30 42 1 19 39
M  V30 43 1 21 40
M  V30 44 1 22 41
M  V30 45 1 23 42
M  V30 46 1 23 43
M  V30 47 1 24 44
M  V30 48 1 24 45
M  V30 END BOND
M  V30 END CTAB
M  END
>  <Dataset>  (52) 
ChEMBL_Kinases

>  <Ligand_Instance>  (52) 
nan

>  <PDB_ID>  (52) 
nan

>  <Standardized_SMILES>  (52) 
CN1CCN(c2ccc(-n3cc(-c4ccncc4)cn3)cc2)CC1

>  <Name>  (52) 
nan

>  <Pocket>  (52) 
nan

>  <ATP_Site>  (52) 
nan

>  <Peripheral>  (52) 
nan

>  <Num_H_Atoms_ProtBoundConf>  (52) 
nan

>  <Num_Resolved_Atoms>  (52) 
nan

>  <Num_Not_Resolved_Atoms>  (52) 
nan

$$$$
CHEMBL3824328
     RDKit          3D

  0  0  0  0  0  0  0  0  0  0999 V3000
M  V30 BEGIN CTAB
M  V30 COUNTS 60 64 0 0 0
M  V30 BEGIN ATOM
M  V30 1 F -0.696053 2.600013 2.545263 0
M  V30 2 C 0.247911 2.088718 1.716383 0
M  V30 3 C 1.568215 2.260310 2.077028 0
M  V30 4 C 2.557253 1.754529 1.259904 0
M  V30 5 N 3.939542 1.883268 1.549988 0
M  V30 6 C 5.072546 1.402045 0.783275 0
M  V30 7 C 5.943319 0.486747 1.629350 0
M  V30 8 O 6.502695 1.164591 2.692080 0
M  V30 9 C 5.464266 1.653713 3.481947 0
M  V30 10 C 4.521715 2.529650 2.685560 0
M  V30 11 C 2.175318 1.105363 0.127932 0
M  V30 12 C 0.854934 0.931513 -0.236596 0
M  V30 13 C -0.166530 1.434448 0.574015 0
M  V30 14 N -1.547642 1.290772 0.258012 0
M  V30 15 C -2.379976 0.300772 0.664205 0
M  V30 16 C -3.642595 0.559114 0.117938 0
M  V30 17 C -4.711779 -0.410485 0.440246 0
M  V30 18 C -5.975144 -0.003772 0.818554 0
M  V30 19 C -6.950122 -0.935633 1.112536 0
M  V30 20 N -6.652229 -2.247070 1.025316 0
M  V30 21 C -5.429406 -2.679845 0.659210 0
M  V30 22 C -4.410371 -1.774365 0.352056 0
M  V30 23 O -3.124288 -2.139061 -0.033138 0
M  V30 24 C -2.762376 -3.495667 -0.139474 0
M  V30 25 C -1.317292 -3.660262 -0.572771 0
M  V30 26 C -1.126315 -3.004957 -1.924858 0
M  V30 27 C 0.302990 -3.195515 -2.385465 0
M  V30 28 N 1.053908 -4.048066 -1.482515 0
M  V30 29 C 0.392874 -5.314920 -1.266929 0
M  V30 30 C -1.016769 -5.132150 -0.758899 0
M  V30 31 C -3.508921 1.725698 -0.612745 0
M  V30 32 N -2.230906 2.132152 -0.500945 0
M  V30 33 H 1.823883 2.784099 2.987756 0
M  V30 34 H 5.727508 2.235576 0.455824 0
M  V30 35 H 4.801336 0.824496 -0.103732 0
M  V30 36 H 6.811806 0.215465 0.960666 0
M  V30 37 H 5.417459 -0.443694 1.889234 0
M  V30 38 H 5.865556 2.296122 4.291599 0
M  V30 39 H 4.978447 0.796843 3.953743 0
M  V30 40 H 3.809292 2.951929 3.404246 0
M  V30 41 H 5.151437 3.408465 2.358756 0
M  V30 42 H 2.835686 0.659431 -0.603226 0
M  V30 43 H 0.506560 0.421086 -1.129037 0
M  V30 44 H -2.017044 -0.495949 1.298337 0
M  V30 45 H -6.098546 1.086215 0.853776 0
M  V30 46 H -7.916030 -0.543240 1.401632 0
M  V30 47 H -5.186326 -3.740814 0.588008 0
M  V30 48 H -2.918562 -3.964987 0.851841 0
M  V30 49 H -3.395988 -4.047797 -0.883463 0
M  V30 50 H -0.610896 -3.281132 0.169638 0
M  V30 51 H -1.388505 -1.927720 -1.868991 0
M  V30 52 H -1.790340 -3.549766 -2.622646 0
M  V30 53 H 0.793772 -2.221363 -2.457560 0
M  V30 54 H 0.321519 -3.639296 -3.406786 0
M  V30 55 H 1.278848 -3.531917 -0.622228 0
M  V30 56 H 0.412446 -5.888235 -2.209098 0
M  V30 57 H 1.031781 -5.865783 -0.526962 0
M  V30 58 H -1.117455 -5.692527 0.199837 0
M  V30 59 H -1.716529 -5.528365 -1.512424 0
M  V30 60 H -4.403212 2.076246 -1.110330 0
M  V30 END ATOM
M  V30 BEGIN BOND
M  V30 1 1 1 2
M  V30 2 2 2 3
M  V30 3 1 3 4
M  V30 4 1 4 5
M  V30 5 1 5 6
M  V30 6 1 6 7
M  V30 7 1 7 8
M  V30 8 1 8 9
M  V30 9 1 9 10
M  V30 10 2 4 11
M  V30 11 1 11 12
M  V30 12 2 12 13
M  V30 13 1 13 14
M  V30 14 1 14 15
M  V30 15 2 15 16
M  V30 16 1 16 17
M  V30 17 2 17 18
M  V30 18 1 18 19
M  V30 19 2 19 20
M  V30 20 1 20 21
M  V30 21 2 21 22
M  V30 22 1 22 23
M  V30 23 1 23 24
M  V30 24 1 24 25
M  V30 25 1 25 26
M  V30 26 1 26 27
M  V30 27 1 27 28
M  V30 28 1 28 29
M  V30 29 1 29 30
M  V30 30 1 16 31
M  V30 31 2 31 32
M  V30 32 1 13 2
M  V30 33 1 32 14
M  V30 34 1 10 5
M  V30 35 1 22 17
M  V30 36 1 30 25
M  V30 37 1 3 33
M  V30 38 1 6 34
M  V30 39 1 6 35
M  V30 40 1 7 36
M  V30 41 1 7 37
M  V30 42 1 9 38
M  V30 43 1 9 39
M  V30 44 1 10 40
M  V30 45 1 10 41
M  V30 46 1 11 42
M  V30 47 1 12 43
M  V30 48 1 15 44
M  V30 49 1 18 45
M  V30 50 1 19 46
M  V30 51 1 21 47
M  V30 52 1 24 48
M  V30 53 1 24 49
M  V30 54 1 25 50
M  V30 55 1 26 51
M  V30 56 1 26 52
M  V30 57 1 27 53
M  V30 58 1 27 54
M  V30 59 1 28 55
M  V30 60 1 29 56
M  V30 61 1 29 57
M  V30 62 1 30 58
M  V30 63 1 30 59
M  V30 64 1 31 60
M  V30 END BOND
M  V30 END CTAB
M  END
>  <Dataset>  (53) 
ChEMBL_Kinases

>  <Ligand_Instance>  (53) 
nan

>  <PDB_ID>  (53) 
nan

>  <Standardized_SMILES>  (53) 
Fc1cc(N2CCOCC2)ccc1-n1cc(-c2ccncc2OCC2CCNCC2)cn1

>  <Name>  (53) 
nan

>  <Pocket>  (53) 
nan

>  <ATP_Site>  (53) 
nan

>  <Peripheral>  (53) 
nan

>  <Num_H_Atoms_ProtBoundConf>  (53) 
nan

>  <Num_Resolved_Atoms>  (53) 
nan

>  <Num_Not_Resolved_Atoms>  (53) 
nan

$$$$
CHEMBL3823522
     RDKit          3D

  0  0  0  0  0  0  0  0  0  0999 V3000
M  V30 BEGIN CTAB
M  V30 COUNTS 56 60 0 0 0
M  V30 BEGIN ATOM
M  V30 1 C 4.001330 0.308897 -0.211962 0
M  V30 2 O 2.646938 -0.005615 -0.387386 0
M  V30 3 C 1.666562 0.096286 0.581544 0
M  V30 4 N 1.750308 0.496492 1.853583 0
M  V30 5 N 0.599287 0.463218 2.479519 0
M  V30 6 C 0.451300 0.852994 3.867340 0
M  V30 7 C 1.670135 1.556016 4.397912 0
M  V30 8 C 2.058720 2.658288 3.476239 0
M  V30 9 N 0.961551 3.114846 2.649895 0
M  V30 10 C 1.055879 3.599078 1.290331 0
M  V30 11 C 2.295437 3.698834 0.478769 0
M  V30 12 O 0.058367 3.999976 0.628265 0
M  V30 13 C -0.367046 3.093718 3.216827 0
M  V30 14 C -0.691099 1.834800 3.974384 0
M  V30 15 C -0.291729 0.019952 1.583895 0
M  V30 16 C 0.340378 -0.226717 0.363910 0
M  V30 17 N -0.326496 -0.713334 -0.821216 0
M  V30 18 C -1.727018 -1.057251 -0.828388 0
M  V30 19 N -2.796555 -0.346554 -0.447911 0
M  V30 20 C -4.004612 -0.917790 -0.539351 0
M  V30 21 C -4.074078 -2.224703 -1.028658 0
M  V30 22 Cl -5.682877 -2.895766 -1.106577 0
M  V30 23 C -3.008598 -2.980788 -1.426153 0
M  V30 24 C -3.055962 -4.337615 -1.930138 0
M  V30 25 C -4.048020 -5.248347 -2.159851 0
M  V30 26 N -3.484847 -6.371044 -2.635083 0
M  V30 27 N -2.178366 -6.231254 -2.724805 0
M  V30 28 C -1.250073 -7.121464 -3.154244 0
M  V30 29 C 0.105294 -6.774549 -3.172919 0
M  V30 30 C 0.469351 -5.488255 -2.736115 0
M  V30 31 C -0.556929 -4.669380 -2.322676 0
M  V30 32 C -1.888228 -4.972590 -2.290961 0
M  V30 33 N -1.872865 -2.291064 -1.282253 0
M  V30 34 H 4.358550 0.250006 0.818257 0
M  V30 35 H 4.567230 -0.470469 -0.806340 0
M  V30 36 H 4.290208 1.300642 -0.633709 0
M  V30 37 H 0.193030 -0.046703 4.480249 0
M  V30 38 H 1.406636 1.989093 5.389901 0
M  V30 39 H 2.489335 0.784854 4.516716 0
M  V30 40 H 2.901757 2.305666 2.847653 0
M  V30 41 H 2.405142 3.577268 4.025044 0
M  V30 42 H 2.386710 4.701216 0.019673 0
M  V30 43 H 3.216830 3.501532 1.074731 0
M  V30 44 H 2.213503 2.903640 -0.322026 0
M  V30 45 H -1.136598 3.170537 2.414421 0
M  V30 46 H -0.492003 3.952431 3.944092 0
M  V30 47 H -0.930151 2.045340 5.051920 0
M  V30 48 H -1.593056 1.304892 3.580023 0
M  V30 49 H -1.351187 -0.117780 1.805462 0
M  V30 50 H 0.260322 -0.812449 -1.695677 0
M  V30 51 H -4.863973 -0.372494 -0.243043 0
M  V30 52 H -5.083035 -5.080162 -1.990860 0
M  V30 53 H -1.594075 -8.112927 -3.482940 0
M  V30 54 H 0.821193 -7.531856 -3.530800 0
M  V30 55 H 1.503921 -5.254312 -2.765006 0
M  V30 56 H -0.172223 -3.713148 -2.010664 0
M  V30 END ATOM
M  V30 BEGIN BOND
M  V30 1 1 1 2
M  V30 2 1 2 3
M  V30 3 2 3 4
M  V30 4 1 4 5
M  V30 5 1 5 6
M  V30 6 1 6 7
M  V30 7 1 7 8
M  V30 8 1 8 9
M  V30 9 1 9 10
M  V30 10 1 10 11
M  V30 11 2 10 12
M  V30 12 1 9 13
M  V30 13 1 13 14
M  V30 14 1 5 15
M  V30 15 2 15 16
M  V30 16 1 16 17
M  V30 17 1 17 18
M  V30 18 2 18 19
M  V30 19 1 19 20
M  V30 20 2 20 21
M  V30 21 1 21 22
M  V30 22 1 21 23
M  V30 23 1 23 24
M  V30 24 1 24 25
M  V30 25 2 25 26
M  V30 26 1 26 27
M  V30 27 1 27 28
M  V30 28 2 28 29
M  V30 29 1 29 30
M  V30 30 2 30 31
M  V30 31 1 31 32
M  V30 32 2 23 33
M  V30 33 1 16 3
M  V30 34 1 33 18
M  V30 35 1 14 6
M  V30 36 2 32 24
M  V30 37 1 32 27
M  V30 38 1 1 34
M  V30 39 1 1 35
M  V30 40 1 1 36
M  V30 41 1 6 37
M  V30 42 1 7 38
M  V30 43 1 7 39
M  V30 44 1 8 40
M  V30 45 1 8 41
M  V30 46 1 11 42
M  V30 47 1 11 43
M  V30 48 1 11 44
M  V30 49 1 13 45
M  V30 50 1 13 46
M  V30 51 1 14 47
M  V30 52 1 14 48
M  V30 53 1 15 49
M  V30 54 1 17 50
M  V30 55 1 20 51
M  V30 56 1 25 52
M  V30 57 1 28 53
M  V30 58 1 29 54
M  V30 59 1 30 55
M  V30 60 1 31 56
M  V30 END BOND
M  V30 END CTAB
M  END
>  <Dataset>  (54) 
ChEMBL_Kinases

>  <Ligand_Instance>  (54) 
nan

>  <PDB_ID>  (54) 
nan

>  <Standardized_SMILES>  (54) 
COc1nn(C2CCN(C(C)=O)CC2)cc1Nc1ncc(Cl)c(-c2cnn3ccccc23)n1

>  <Name>  (54) 
nan

>  <Pocket>  (54) 
nan

>  <ATP_Site>  (54) 
nan

>  <Peripheral>  (54) 
nan

>  <Num_H_Atoms_ProtBoundConf>  (54) 
nan

>  <Num_Resolved_Atoms>  (54) 
nan

>  <Num_Not_Resolved_Atoms>  (54) 
nan

$$$$
CHEMBL495492
     RDKit          3D

  0  0  0  0  0  0  0  0  0  0999 V3000
M  V30 BEGIN CTAB
M  V30 COUNTS 51 55 0 0 0
M  V30 BEGIN ATOM
M  V30 1 C -1.406941 2.270366 2.490257 0
M  V30 2 C 0.049059 2.199440 2.119544 0
M  V30 3 C 0.835702 3.292975 2.421957 0
M  V30 4 C 2.154811 3.184821 2.066612 0
M  V30 5 C 2.671272 2.069296 1.450850 0
M  V30 6 C 3.980173 1.803261 1.027765 0
M  V30 7 N 5.150410 2.607482 1.111647 0
M  V30 8 C 6.466123 2.227142 0.637462 0
M  V30 9 C 6.470108 1.930075 -0.887070 0
M  V30 10 C 6.792155 0.895481 0.133612 0
M  V30 11 N 3.864154 0.552288 0.499190 0
M  V30 12 O 2.643293 0.122517 0.592735 0
M  V30 13 C 1.871454 0.988556 1.157189 0
M  V30 14 C 0.536752 1.064239 1.501746 0
M  V30 15 C -0.316091 -0.082915 1.190950 0
M  V30 16 C -1.000380 -0.219275 -0.005631 0
M  V30 17 C -1.787163 -1.317898 -0.243625 0
M  V30 18 C -1.937021 -2.322420 0.671788 0
M  V30 19 C -2.743447 -3.396863 0.365485 0
M  V30 20 N -3.449900 -3.549159 -0.855940 0
M  V30 21 C -4.266455 -4.747356 -1.033079 0
M  V30 22 C -5.313842 -4.767521 0.048503 0
M  V30 23 C -4.867014 -4.855142 -2.393860 0
M  V30 24 N -2.822103 -4.326443 1.331999 0
M  V30 25 N -2.184890 -4.229995 2.483145 0
M  V30 26 C -1.386656 -3.205587 2.833594 0
M  V30 27 C -1.269966 -2.225552 1.881795 0
M  V30 28 C -0.478762 -1.100511 2.096671 0
M  V30 29 H -1.737005 3.337932 2.439829 0
M  V30 30 H -2.041209 1.715695 1.779202 0
M  V30 31 H -1.577331 1.936189 3.520014 0
M  V30 32 H 0.442194 4.173734 2.904808 0
M  V30 33 H 2.815932 4.013834 2.280783 0
M  V30 34 H 4.995007 3.536762 1.558775 0
M  V30 35 H 7.277139 2.896770 0.993655 0
M  V30 36 H 5.513559 1.876803 -1.411192 0
M  V30 37 H 7.296631 2.357498 -1.464222 0
M  V30 38 H 6.149853 0.014682 0.198194 0
M  V30 39 H 7.887537 0.624368 0.210812 0
M  V30 40 H -0.893041 0.562446 -0.736468 0
M  V30 41 H -2.281873 -1.343892 -1.196380 0
M  V30 42 H -3.461757 -2.906152 -1.655835 0
M  V30 43 H -3.605854 -5.644926 -0.879723 0
M  V30 44 H -5.555494 -3.718344 0.343882 0
M  V30 45 H -6.223138 -5.253721 -0.371770 0
M  V30 46 H -4.937941 -5.331695 0.911634 0
M  V30 47 H -4.492402 -4.090808 -3.114924 0
M  V30 48 H -5.977247 -4.692533 -2.277530 0
M  V30 49 H -4.759976 -5.882580 -2.808652 0
M  V30 50 H -0.860634 -3.101416 3.754216 0
M  V30 51 H 0.019922 -1.068658 3.050259 0
M  V30 END ATOM
M  V30 BEGIN BOND
M  V30 1 1 1 2
M  V30 2 2 2 3
M  V30 3 1 3 4
M  V30 4 2 4 5
M  V30 5 1 5 6
M  V30 6 1 6 7
M  V30 7 1 7 8
M  V30 8 1 8 9
M  V30 9 1 9 10
M  V30 10 2 6 11
M  V30 11 1 11 12
M  V30 12 1 12 13
M  V30 13 2 13 14
M  V30 14 1 14 15
M  V30 15 2 15 16
M  V30 16 1 16 17
M  V30 17 2 17 18
M  V30 18 1 18 19
M  V30 19 1 19 20
M  V30 20 1 20 21
M  V30 21 1 21 22
M  V30 22 1 21 23
M  V30 23 2 19 24
M  V30 24 1 24 25
M  V30 25 2 25 26
M  V30 26 1 26 27
M  V30 27 2 27 28
M  V30 28 1 14 2
M  V30 29 1 28 15
M  V30 30 1 13 5
M  V30 31 1 27 18
M  V30 32 1 10 8
M  V30 33 1 1 29
M  V30 34 1 1 30
M  V30 35 1 1 31
M  V30 36 1 3 32
M  V30 37 1 4 33
M  V30 38 1 7 34
M  V30 39 1 8 35
M  V30 40 1 9 36
M  V30 41 1 9 37
M  V30 42 1 10 38
M  V30 43 1 10 39
M  V30 44 1 16 40
M  V30 45 1 17 41
M  V30 46 1 20 42
M  V30 47 1 21 43
M  V30 48 1 22 44
M  V30 49 1 22 45
M  V30 50 1 22 46
M  V30 51 1 23 47
M  V30 52 1 23 48
M  V30 53 1 23 49
M  V30 54 1 26 50
M  V30 55 1 28 51
M  V30 END BOND
M  V30 END CTAB
M  END
>  <Dataset>  (55) 
ChEMBL_Kinases

>  <Ligand_Instance>  (55) 
nan

>  <PDB_ID>  (55) 
nan

>  <Standardized_SMILES>  (55) 
Cc1ccc2c(NC3CC3)noc2c1-c1ccc2c(NC(C)C)nncc2c1

>  <Name>  (55) 
nan

>  <Pocket>  (55) 
nan

>  <ATP_Site>  (55) 
nan

>  <Peripheral>  (55) 
nan

>  <Num_H_Atoms_ProtBoundConf>  (55) 
nan

>  <Num_Resolved_Atoms>  (55) 
nan

>  <Num_Not_Resolved_Atoms>  (55) 
nan

$$$$
CHEMBL495493
     RDKit          3D

  0  0  0  0  0  0  0  0  0  0999 V3000
M  V30 BEGIN CTAB
M  V30 COUNTS 55 59 0 0 0
M  V30 BEGIN ATOM
M  V30 1 C 4.441807 -5.015209 3.694731 0
M  V30 2 C 5.416149 -4.661577 2.585494 0
M  V30 3 N 4.726673 -4.729362 1.288262 0
M  V30 4 C 3.608354 -3.867825 1.104854 0
M  V30 5 N 3.080693 -2.979215 1.971373 0
M  V30 6 O 2.051172 -2.366236 1.446362 0
M  V30 7 C 1.824189 -2.787914 0.229815 0
M  V30 8 C 0.871161 -2.451243 -0.712454 0
M  V30 9 C -0.140660 -1.427054 -0.395007 0
M  V30 10 C 0.025115 -0.064083 -0.643514 0
M  V30 11 C -1.032658 0.752603 -0.278833 0
M  V30 12 C -2.179264 0.292223 0.289145 0
M  V30 13 C -3.140713 1.225617 0.596539 0
M  V30 14 N -3.065931 2.636223 0.378245 0
M  V30 15 C -2.918689 3.489250 -0.785274 0
M  V30 16 C -1.981366 4.603304 -0.445330 0
M  V30 17 O -2.372094 5.322296 0.656916 0
M  V30 18 C -3.381688 4.764618 1.406462 0
M  V30 19 C -3.170893 3.291683 1.668853 0 CFG=2
M  V30 20 C -1.942993 3.115105 2.523492 0
M  V30 21 N -4.283292 0.747395 1.165722 0
M  V30 22 N -4.449038 -0.548433 1.405710 0
M  V30 23 C -3.526238 -1.473256 1.114306 0
M  V30 24 C -2.347759 -1.049814 0.536249 0
M  V30 25 C -1.309904 -1.891072 0.183567 0
M  V30 26 C 0.904459 -3.104007 -1.946810 0
M  V30 27 C -0.130888 -2.712314 -2.920246 0
M  V30 28 C 1.875960 -4.058301 -2.194402 0
M  V30 29 C 2.828259 -4.394868 -1.253137 0
M  V30 30 C 2.793185 -3.740661 -0.018896 0
M  V30 31 H 3.890392 -4.138194 4.084555 0
M  V30 32 H 5.058498 -5.370408 4.561389 0
M  V30 33 H 3.798225 -5.832330 3.338577 0
M  V30 34 H 6.240079 -5.389366 2.638555 0
M  V30 35 H 5.764737 -3.618183 2.795122 0
M  V30 36 H 4.979699 -5.351816 0.484718 0
M  V30 37 H 0.947789 0.249244 -1.093314 0
M  V30 38 H -0.874025 1.801731 -0.483163 0
M  V30 39 H -3.927090 3.916780 -1.034223 0
M  V30 40 H -2.582345 2.964610 -1.691096 0
M  V30 41 H -1.871925 5.267181 -1.337518 0
M  V30 42 H -0.971215 4.179229 -0.230123 0
M  V30 43 H -4.391433 4.986790 1.023422 0
M  V30 44 H -3.346491 5.254503 2.421691 0
M  V30 45 H -4.076276 2.941358 2.215816 0
M  V30 46 H -1.081639 3.650551 2.105696 0
M  V30 47 H -2.193360 3.622579 3.497640 0
M  V30 48 H -1.762256 2.055764 2.772652 0
M  V30 49 H -3.655712 -2.530448 1.307634 0
M  V30 50 H -1.468181 -2.947519 0.389574 0
M  V30 51 H 0.259486 -3.025013 -3.933361 0
M  V30 52 H -0.235713 -1.610584 -2.974408 0
M  V30 53 H -1.089719 -3.249043 -2.795191 0
M  V30 54 H 1.870743 -4.544124 -3.163783 0
M  V30 55 H 3.589705 -5.142104 -1.445807 0
M  V30 END ATOM
M  V30 BEGIN BOND
M  V30 1 1 1 2
M  V30 2 1 2 3
M  V30 3 1 3 4
M  V30 4 2 4 5
M  V30 5 1 5 6
M  V30 6 1 6 7
M  V30 7 2 7 8
M  V30 8 1 8 9
M  V30 9 2 9 10
M  V30 10 1 10 11
M  V30 11 2 11 12
M  V30 12 1 12 13
M  V30 13 1 13 14
M  V30 14 1 14 15
M  V30 15 1 15 16
M  V30 16 1 16 17
M  V30 17 1 17 18
M  V30 18 1 18 19
M  V30 19 1 19 20
M  V30 20 2 13 21
M  V30 21 1 21 22
M  V30 22 2 22 23
M  V30 23 1 23 24
M  V30 24 2 24 25
M  V30 25 1 8 26
M  V30 26 1 26 27
M  V30 27 2 26 28
M  V30 28 1 28 29
M  V30 29 2 29 30
M  V30 30 1 30 4
M  V30 31 1 30 7
M  V30 32 1 25 9
M  V30 33 1 24 12
M  V30 34 1 19 14
M  V30 35 1 1 31
M  V30 36 1 1 32
M  V30 37 1 1 33
M  V30 38 1 2 34
M  V30 39 1 2 35
M  V30 40 1 3 36
M  V30 41 1 10 37
M  V30 42 1 11 38
M  V30 43 1 15 39
M  V30 44 1 15 40
M  V30 45 1 16 41
M  V30 46 1 16 42
M  V30 47 1 18 43
M  V30 48 1 18 44
M  V30 49 1 19 45 CFG=1
M  V30 50 1 20 46
M  V30 51 1 20 47
M  V30 52 1 20 48
M  V30 53 1 23 49
M  V30 54 1 25 50
M  V30 55 1 27 51
M  V30 56 1 27 52
M  V30 57 1 27 53
M  V30 58 1 28 54
M  V30 59 1 29 55
M  V30 END BOND
M  V30 END CTAB
M  END
>  <Dataset>  (56) 
ChEMBL_Kinases

>  <Ligand_Instance>  (56) 
nan

>  <PDB_ID>  (56) 
nan

>  <Standardized_SMILES>  (56) 
CCNc1noc2c(-c3ccc4c(N5CCOC[C@@H]5C)nncc4c3)c(C)ccc12

>  <Name>  (56) 
nan

>  <Pocket>  (56) 
nan

>  <ATP_Site>  (56) 
nan

>  <Peripheral>  (56) 
nan

>  <Num_H_Atoms_ProtBoundConf>  (56) 
nan

>  <Num_Resolved_Atoms>  (56) 
nan

>  <Num_Not_Resolved_Atoms>  (56) 
nan

$$$$
CHEMBL495539
     RDKit          3D

  0  0  0  0  0  0  0  0  0  0999 V3000
M  V30 BEGIN CTAB
M  V30 COUNTS 44 47 0 0 0
M  V30 BEGIN ATOM
M  V30 1 O 0.781445 -4.229905 2.231023 0
M  V30 2 C 0.832902 -2.999263 2.509741 0
M  V30 3 N 1.942029 -2.331462 3.148338 0
M  V30 4 C 2.051706 -0.932659 2.773101 0 CFG=1
M  V30 5 C 2.281183 -0.759579 1.275370 0
M  V30 6 O 3.430794 -1.370203 0.846529 0
M  V30 7 C 3.556948 -1.160353 -0.526267 0
M  V30 8 C 3.633152 0.252842 -0.913221 0
M  V30 9 C 2.524625 1.041774 -1.220313 0
M  V30 10 C 2.591390 2.369989 -1.584361 0
M  V30 11 C 3.836761 2.973147 -1.653534 0
M  V30 12 C 4.954829 2.228183 -1.357911 0
M  V30 13 C 4.849302 0.895928 -0.995805 0
M  V30 14 C 0.785743 -0.154754 3.079112 0
M  V30 15 C -0.338657 -0.876881 2.422336 0
M  V30 16 N -1.492062 -0.312439 2.019625 0
M  V30 17 C -2.276593 -1.257484 1.469765 0
M  V30 18 C -3.615735 -1.079611 0.903062 0
M  V30 19 C -4.356584 -2.109352 0.355422 0
M  V30 20 C -5.623722 -1.866250 -0.165316 0
M  V30 21 N -6.162415 -0.614323 -0.148345 0
M  V30 22 C -5.441401 0.408626 0.388947 0
M  V30 23 C -4.181489 0.186018 0.910680 0
M  V30 24 C -1.587162 -2.451843 1.532546 0
M  V30 25 C -0.369712 -2.226872 2.128034 0
M  V30 26 H 2.482156 -2.980076 3.779643 0
M  V30 27 H 2.875417 -0.441715 3.346679 0
M  V30 28 H 2.305446 0.356729 1.137334 0
M  V30 29 H 1.390991 -1.146482 0.753357 0
M  V30 30 H 2.587362 -1.545926 -0.958610 0
M  V30 31 H 4.359153 -1.766175 -0.976740 0
M  V30 32 H 1.566719 0.503048 -1.146314 0
M  V30 33 H 1.615977 2.834842 -1.790813 0
M  V30 34 H 3.796946 4.011662 -1.945470 0
M  V30 35 H 5.881612 2.787825 -1.440186 0
M  V30 36 H 5.778492 0.392821 -0.782368 0
M  V30 37 H 0.941378 0.850033 2.593389 0
M  V30 38 H 0.647138 -0.055017 4.167568 0
M  V30 39 H -1.814116 0.698096 2.084285 0
M  V30 40 H -3.942782 -3.097078 0.336987 0
M  V30 41 H -6.206954 -2.689893 -0.599125 0
M  V30 42 H -5.911927 1.391712 0.380865 0
M  V30 43 H -3.675089 1.038344 1.315821 0
M  V30 44 H -1.887314 -3.436845 1.192729 0
M  V30 END ATOM
M  V30 BEGIN BOND
M  V30 1 2 1 2
M  V30 2 1 2 3
M  V30 3 1 3 4
M  V30 4 1 4 5
M  V30 5 1 5 6
M  V30 6 1 6 7
M  V30 7 1 7 8
M  V30 8 2 8 9
M  V30 9 1 9 10
M  V30 10 2 10 11
M  V30 11 1 11 12
M  V30 12 2 12 13
M  V30 13 1 4 14
M  V30 14 1 14 15
M  V30 15 1 15 16
M  V30 16 1 16 17
M  V30 17 1 17 18
M  V30 18 2 18 19
M  V30 19 1 19 20
M  V30 20 2 20 21
M  V30 21 1 21 22
M  V30 22 2 22 23
M  V30 23 2 17 24
M  V30 24 1 24 25
M  V30 25 1 25 2
M  V30 26 1 13 8
M  V30 27 2 25 15
M  V30 28 1 23 18
M  V30 29 1 3 26
M  V30 30 1 4 27 CFG=1
M  V30 31 1 5 28
M  V30 32 1 5 29
M  V30 33 1 7 30
M  V30 34 1 7 31
M  V30 35 1 9 32
M  V30 36 1 10 33
M  V30 37 1 11 34
M  V30 38 1 12 35
M  V30 39 1 13 36
M  V30 40 1 14 37
M  V30 41 1 14 38
M  V30 42 1 16 39
M  V30 43 1 19 40
M  V30 44 1 20 41
M  V30 45 1 22 42
M  V30 46 1 23 43
M  V30 47 1 24 44
M  V30 END BOND
M  V30 END CTAB
M  END
>  <Dataset>  (57) 
ChEMBL_Kinases

>  <Ligand_Instance>  (57) 
nan

>  <PDB_ID>  (57) 
nan

>  <Standardized_SMILES>  (57) 
O=C1N[C@@H](COCc2ccccc2)Cc2[nH]c(-c3ccncc3)cc21

>  <Name>  (57) 
nan

>  <Pocket>  (57) 
nan

>  <ATP_Site>  (57) 
nan

>  <Peripheral>  (57) 
nan

>  <Num_H_Atoms_ProtBoundConf>  (57) 
nan

>  <Num_Resolved_Atoms>  (57) 
nan

>  <Num_Not_Resolved_Atoms>  (57) 
nan

$$$$
CHEMBL3823478
     RDKit          3D

  0  0  0  0  0  0  0  0  0  0999 V3000
M  V30 BEGIN CTAB
M  V30 COUNTS 49 51 0 0 0
M  V30 BEGIN ATOM
M  V30 1 C 1.014793 -4.302267 0.044241 0
M  V30 2 O -0.019754 -3.888562 0.913605 0
M  V30 3 C -0.174025 -2.526967 1.116928 0
M  V30 4 C 0.635793 -1.590531 0.509476 0
M  V30 5 C 0.481728 -0.235318 0.714465 0
M  V30 6 C 1.380326 0.669035 0.013353 0
M  V30 7 C 1.450968 0.513633 -1.376461 0
M  V30 8 N 2.203194 1.276153 -2.156712 0
M  V30 9 C 2.260708 1.095983 -3.594921 0
M  V30 10 C 2.947126 2.261047 -1.590548 0
M  V30 11 O 3.676106 3.010207 -2.295383 0
M  V30 12 C 2.947052 2.493785 -0.234218 0
M  V30 13 C 3.686504 3.472417 0.395195 0
M  V30 14 N 3.624996 3.619171 1.750386 0
M  V30 15 C 2.846013 2.815712 2.492211 0
M  V30 16 C 2.101849 1.835025 1.881270 0
M  V30 17 C 2.156448 1.681583 0.527611 0
M  V30 18 C -0.521459 0.185815 1.558177 0
M  V30 19 C -1.310943 -0.777639 2.147617 0
M  V30 20 O -2.315624 -0.308629 2.996549 0
M  V30 21 C -2.542531 1.054021 3.260825 0
M  V30 22 C -1.191680 -2.160549 1.969737 0
M  V30 23 C -2.149179 -3.040197 2.687196 0
M  V30 24 N -3.201646 -3.510328 1.844051 0
M  V30 25 C -3.966583 -2.494224 1.207623 0
M  V30 26 C -2.963152 -4.636934 1.031636 0
M  V30 27 H 0.757025 -4.222494 -1.031301 0
M  V30 28 H 1.982659 -3.824867 0.309615 0
M  V30 29 H 1.177377 -5.391704 0.301090 0
M  V30 30 H 1.425198 -1.926514 -0.155842 0
M  V30 31 H 0.873552 -0.258862 -1.864658 0
M  V30 32 H 2.385387 -0.006121 -3.792556 0
M  V30 33 H 3.042247 1.688926 -4.067527 0
M  V30 34 H 1.243762 1.358237 -3.973668 0
M  V30 35 H 4.307468 4.107983 -0.226650 0
M  V30 36 H 2.806245 2.942848 3.576701 0
M  V30 37 H 1.503774 1.214255 2.526840 0
M  V30 38 H -0.695754 1.235659 1.748063 0
M  V30 39 H -3.492240 1.113518 3.842040 0
M  V30 40 H -2.642824 1.569830 2.281373 0
M  V30 41 H -1.757049 1.502161 3.908557 0
M  V30 42 H -2.604178 -2.434344 3.522696 0
M  V30 43 H -1.589851 -3.899434 3.164819 0
M  V30 44 H -3.276086 -1.688177 0.823334 0
M  V30 45 H -4.683009 -1.982364 1.874296 0
M  V30 46 H -4.531271 -2.848630 0.327008 0
M  V30 47 H -3.896621 -5.201161 0.784159 0
M  V30 48 H -2.566927 -4.315171 0.045487 0
M  V30 49 H -2.233012 -5.352466 1.507814 0
M  V30 END ATOM
M  V30 BEGIN BOND
M  V30 1 1 1 2
M  V30 2 1 2 3
M  V30 3 2 3 4
M  V30 4 1 4 5
M  V30 5 1 5 6
M  V30 6 2 6 7
M  V30 7 1 7 8
M  V30 8 1 8 9
M  V30 9 1 8 10
M  V30 10 2 10 11
M  V30 11 1 10 12
M  V30 12 2 12 13
M  V30 13 1 13 14
M  V30 14 2 14 15
M  V30 15 1 15 16
M  V30 16 2 16 17
M  V30 17 2 5 18
M  V30 18 1 18 19
M  V30 19 1 19 20
M  V30 20 1 20 21
M  V30 21 2 19 22
M  V30 22 1 22 23
M  V30 23 1 23 24
M  V30 24 1 24 25
M  V30 25 1 24 26
M  V30 26 1 22 3
M  V30 27 1 17 6
M  V30 28 1 17 12
M  V30 29 1 1 27
M  V30 30 1 1 28
M  V30 31 1 1 29
M  V30 32 1 4 30
M  V30 33 1 7 31
M  V30 34 1 9 32
M  V30 35 1 9 33
M  V30 36 1 9 34
M  V30 37 1 13 35
M  V30 38 1 15 36
M  V30 39 1 16 37
M  V30 40 1 18 38
M  V30 41 1 21 39
M  V30 42 1 21 40
M  V30 43 1 21 41
M  V30 44 1 23 42
M  V30 45 1 23 43
M  V30 46 1 25 44
M  V30 47 1 25 45
M  V30 48 1 25 46
M  V30 49 1 26 47
M  V30 50 1 26 48
M  V30 51 1 26 49
M  V30 END BOND
M  V30 END CTAB
M  END
>  <Dataset>  (58) 
ChEMBL_Kinases

>  <Ligand_Instance>  (58) 
nan

>  <PDB_ID>  (58) 
nan

>  <Standardized_SMILES>  (58) 
COc1cc(-c2cn(C)c(=O)c3cnccc23)cc(OC)c1CN(C)C

>  <Name>  (58) 
nan

>  <Pocket>  (58) 
nan

>  <ATP_Site>  (58) 
nan

>  <Peripheral>  (58) 
nan

>  <Num_H_Atoms_ProtBoundConf>  (58) 
nan

>  <Num_Resolved_Atoms>  (58) 
nan

>  <Num_Not_Resolved_Atoms>  (58) 
nan

$$$$
CHEMBL3823469
     RDKit          3D

  0  0  0  0  0  0  0  0  0  0999 V3000
M  V30 BEGIN CTAB
M  V30 COUNTS 47 51 0 0 0
M  V30 BEGIN ATOM
M  V30 1 C 0.099526 -0.571122 3.114218 0
M  V30 2 C -0.407256 -1.963076 3.020986 0 CFG=2
M  V30 3 N 0.604901 -2.883288 2.537501 0
M  V30 4 C 1.459829 -2.419625 1.470583 0
M  V30 5 N 2.684792 -2.416091 2.052961 0
M  V30 6 C 3.771870 -2.009406 1.381753 0
M  V30 7 C 3.704757 -1.574383 0.057778 0
M  V30 8 C 2.436570 -1.610105 -0.460559 0
M  V30 9 N 2.219336 -1.141245 -1.792910 0
M  V30 10 C 1.828533 0.234624 -1.543581 0
M  V30 11 C 2.486671 1.203673 -0.771144 0
M  V30 12 C 1.730247 2.387327 -0.783059 0
M  V30 13 C 2.334664 3.500476 0.021563 0 CFG=1
M  V30 14 C 1.550134 4.550571 0.647857 0
M  V30 15 C 1.876035 3.382270 1.527770 0 CFG=1
M  V30 16 F 0.829033 2.528622 1.783328 0
M  V30 17 N 0.660859 2.090572 -1.553268 0
M  V30 18 N 0.721996 0.848415 -1.988094 0
M  V30 19 N 1.324503 -2.007106 0.176404 0
M  V30 20 C -1.666715 -2.054568 2.282784 0
M  V30 21 C -2.772466 -1.505656 2.897724 0
M  V30 22 C -3.998812 -1.616309 2.266872 0
M  V30 23 C -4.011399 -2.274929 1.065970 0
M  V30 24 N -5.067961 -2.515439 0.274751 0
M  V30 25 C -4.700179 -3.194358 -0.826232 0
M  V30 26 C -3.349289 -3.395893 -0.730407 0
M  V30 27 C -2.901263 -2.826699 0.444711 0
M  V30 28 N -1.713011 -2.691664 1.101719 0
M  V30 29 H 0.311426 -0.224979 4.157951 0
M  V30 30 H 1.009998 -0.418790 2.482883 0
M  V30 31 H -0.631391 0.177150 2.711394 0
M  V30 32 H -0.661672 -2.251289 4.101829 0
M  V30 33 H 0.717127 -3.858551 2.927816 0
M  V30 34 H 4.793397 -1.976562 1.795207 0
M  V30 35 H 4.595942 -1.255226 -0.479458 0
M  V30 36 H 2.214550 -1.332107 -2.814331 0
M  V30 37 H 3.425467 0.931322 -0.307913 0
M  V30 38 H 3.439948 3.559989 -0.051680 0
M  V30 39 H 0.482736 4.741514 0.425490 0
M  V30 40 H 2.098928 5.465514 0.942794 0
M  V30 41 H 2.682389 3.418780 2.280704 0
M  V30 42 H 0.015801 2.908299 -1.637341 0
M  V30 43 H -2.730106 -0.983190 3.861891 0
M  V30 44 H -4.882853 -1.196533 2.719154 0
M  V30 45 H -6.069356 -2.246509 0.422679 0
M  V30 46 H -5.292369 -3.552788 -1.670522 0
M  V30 47 H -2.665785 -3.905905 -1.424929 0
M  V30 END ATOM
M  V30 BEGIN BOND
M  V30 1 1 1 2
M  V30 2 1 2 3
M  V30 3 1 3 4
M  V30 4 2 4 5
M  V30 5 1 5 6
M  V30 6 2 6 7
M  V30 7 1 7 8
M  V30 8 1 8 9
M  V30 9 1 9 10
M  V30 10 1 10 11
M  V30 11 2 11 12
M  V30 12 1 12 13
M  V30 13 1 13 14
M  V30 14 1 14 15
M  V30 15 1 15 16
M  V30 16 1 12 17
M  V30 17 1 17 18
M  V30 18 2 8 19
M  V30 19 1 2 20
M  V30 20 2 20 21
M  V30 21 1 21 22
M  V30 22 2 22 23
M  V30 23 1 23 24
M  V30 24 1 24 25
M  V30 25 2 25 26
M  V30 26 1 26 27
M  V30 27 2 27 28
M  V30 28 1 19 4
M  V30 29 1 28 20
M  V30 30 2 18 10
M  V30 31 1 27 23
M  V30 32 1 15 13
M  V30 33 1 1 29
M  V30 34 1 1 30
M  V30 35 1 1 31
M  V30 36 1 2 32 CFG=1
M  V30 37 1 3 33
M  V30 38 1 6 34
M  V30 39 1 7 35
M  V30 40 1 9 36
M  V30 41 1 11 37
M  V30 42 1 13 38 CFG=1
M  V30 43 1 14 39
M  V30 44 1 14 40
M  V30 45 1 15 41 CFG=1
M  V30 46 1 17 42
M  V30 47 1 21 43
M  V30 48 1 22 44
M  V30 49 1 24 45
M  V30 50 1 25 46
M  V30 51 1 26 47
M  V30 END BOND
M  V30 END CTAB
M  END
>  <Dataset>  (59) 
ChEMBL_Kinases

>  <Ligand_Instance>  (59) 
nan

>  <PDB_ID>  (59) 
nan

>  <Standardized_SMILES>  (59) 
C[C@H](Nc1nccc(Nc2cc([C@H]3C[C@H]3F)[nH]n2)n1)c1ccc2[nH]ccc2n1

>  <Name>  (59) 
nan

>  <Pocket>  (59) 
nan

>  <ATP_Site>  (59) 
nan

>  <Peripheral>  (59) 
nan

>  <Num_H_Atoms_ProtBoundConf>  (59) 
nan

>  <Num_Resolved_Atoms>  (59) 
nan

>  <Num_Not_Resolved_Atoms>  (59) 
nan

$$$$
CHEMBL3823457
     RDKit          3D

  0  0  0  0  0  0  0  0  0  0999 V3000
M  V30 BEGIN CTAB
M  V30 COUNTS 50 54 0 0 0
M  V30 BEGIN ATOM
M  V30 1 C -1.185926 2.360093 0.978380 0
M  V30 2 C -0.038127 1.425437 1.050777 0 CFG=1
M  V30 3 C 0.999385 1.584963 0.004596 0
M  V30 4 C 1.146006 2.374658 -1.118153 0
M  V30 5 C 2.275005 2.245185 -1.883251 0
M  V30 6 C 3.296928 1.367412 -1.611546 0
M  V30 7 N 4.467111 1.082623 -2.214420 0
M  V30 8 C 5.069912 0.128310 -1.501747 0
M  V30 9 C 4.267164 -0.195876 -0.429725 0
M  V30 10 C 3.110869 0.588199 -0.470394 0
M  V30 11 N 2.003459 0.707250 0.291204 0
M  V30 12 N 0.551417 1.366343 2.401789 0
M  V30 13 C 1.044995 2.542445 3.068402 0
M  V30 14 C 0.685287 0.147231 3.134054 0
M  V30 15 N 1.189727 -0.013318 4.368731 0
M  V30 16 C 1.265730 -1.248236 4.935682 0
M  V30 17 C 0.814685 -2.355034 4.224539 0
M  V30 18 C 0.296238 -2.201322 2.959109 0
M  V30 19 N -0.174410 -3.280384 2.149496 0
M  V30 20 C -0.741485 -3.022426 0.853570 0
M  V30 21 C -2.074940 -3.356869 0.626061 0
M  V30 22 C -2.266685 -2.964408 -0.702175 0
M  V30 23 C -3.524248 -3.098835 -1.482777 0
M  V30 24 C -4.837439 -3.319446 -0.782822 0
M  V30 25 C -4.145833 -4.503404 -1.483112 0
M  V30 26 N -1.137904 -2.440516 -1.215383 0
M  V30 27 N -0.241404 -2.487162 -0.266548 0
M  V30 28 N 0.268135 -0.950096 2.500302 0
M  V30 29 H -1.216533 3.088988 1.821586 0
M  V30 30 H -2.165990 1.802460 1.076602 0
M  V30 31 H -1.243217 2.844627 -0.005985 0
M  V30 32 H -0.438209 0.371918 0.881843 0
M  V30 33 H 0.307483 3.015204 -1.240428 0
M  V30 34 H 2.324837 2.886246 -2.736933 0
M  V30 35 H 4.838190 1.518756 -3.074790 0
M  V30 36 H 6.028408 -0.377069 -1.650709 0
M  V30 37 H 4.482302 -0.947781 0.345842 0
M  V30 38 H 0.490485 2.643648 4.029949 0
M  V30 39 H 0.864730 3.462834 2.507100 0
M  V30 40 H 2.119694 2.409629 3.357420 0
M  V30 41 H 1.676291 -1.343120 5.929236 0
M  V30 42 H 0.858403 -3.352052 4.639790 0
M  V30 43 H -0.092568 -4.241556 2.526427 0
M  V30 44 H -2.859497 -3.800170 1.217259 0
M  V30 45 H -3.573655 -2.628186 -2.504349 0
M  V30 46 H -4.804986 -3.318162 0.322918 0
M  V30 47 H -5.764413 -2.967995 -1.236080 0
M  V30 48 H -4.602953 -4.877868 -2.421162 0
M  V30 49 H -3.684867 -5.241333 -0.811863 0
M  V30 50 H -1.026064 -2.073274 -2.189052 0
M  V30 END ATOM
M  V30 BEGIN BOND
M  V30 1 1 1 2
M  V30 2 1 2 3
M  V30 3 2 3 4
M  V30 4 1 4 5
M  V30 5 2 5 6
M  V30 6 1 6 7
M  V30 7 1 7 8
M  V30 8 2 8 9
M  V30 9 1 9 10
M  V30 10 2 10 11
M  V30 11 1 2 12
M  V30 12 1 12 13
M  V30 13 1 12 14
M  V30 14 2 14 15
M  V30 15 1 15 16
M  V30 16 2 16 17
M  V30 17 1 17 18
M  V30 18 1 18 19
M  V30 19 1 19 20
M  V30 20 1 20 21
M  V30 21 2 21 22
M  V30 22 1 22 23
M  V30 23 1 23 24
M  V30 24 1 24 25
M  V30 25 1 22 26
M  V30 26 1 26 27
M  V30 27 2 18 28
M  V30 28 1 11 3
M  V30 29 1 28 14
M  V30 30 1 10 6
M  V30 31 2 27 20
M  V30 32 1 25 23
M  V30 33 1 1 29
M  V30 34 1 1 30
M  V30 35 1 1 31
M  V30 36 1 2 32 CFG=3
M  V30 37 1 4 33
M  V30 38 1 5 34
M  V30 39 1 7 35
M  V30 40 1 8 36
M  V30 41 1 9 37
M  V30 42 1 13 38
M  V30 43 1 13 39
M  V30 44 1 13 40
M  V30 45 1 16 41
M  V30 46 1 17 42
M  V30 47 1 19 43
M  V30 48 1 21 44
M  V30 49 1 23 45
M  V30 50 1 24 46
M  V30 51 1 24 47
M  V30 52 1 25 48
M  V30 53 1 25 49
M  V30 54 1 26 50
M  V30 END BOND
M  V30 END CTAB
M  END
>  <Dataset>  (60) 
ChEMBL_Kinases

>  <Ligand_Instance>  (60) 
nan

>  <PDB_ID>  (60) 
nan

>  <Standardized_SMILES>  (60) 
C[C@@H](c1ccc2[nH]ccc2n1)N(C)c1nccc(Nc2cc(C3CC3)[nH]n2)n1

>  <Name>  (60) 
nan

>  <Pocket>  (60) 
nan

>  <ATP_Site>  (60) 
nan

>  <Peripheral>  (60) 
nan

>  <Num_H_Atoms_ProtBoundConf>  (60) 
nan

>  <Num_Resolved_Atoms>  (60) 
nan

>  <Num_Not_Resolved_Atoms>  (60) 
nan

$$$$
CHEMBL3823403
     RDKit          3D

  0  0  0  0  0  0  0  0  0  0999 V3000
M  V30 BEGIN CTAB
M  V30 COUNTS 32 34 0 0 0
M  V30 BEGIN ATOM
M  V30 1 N 3.016021 -5.645837 3.870065 0
M  V30 2 C 3.231792 -4.587720 2.961495 0
M  V30 3 O 4.197335 -3.810218 3.179608 0
M  V30 4 C 2.203369 -4.663433 1.914745 0
M  V30 5 C 2.386155 -3.557094 0.919317 0
M  V30 6 C 3.171802 -3.652905 -0.258658 0
M  V30 7 S 2.911694 -1.910651 -0.952515 0
M  V30 8 C 1.875087 -1.443237 0.385553 0
M  V30 9 N 1.246887 -0.107101 0.529343 0
M  V30 10 C -0.036502 0.153578 -0.019638 0
M  V30 11 O -0.699509 -0.715638 -0.645872 0
M  V30 12 C -0.598047 1.507197 0.163195 0
M  V30 13 N -0.027107 2.554022 0.804324 0
M  V30 14 N -0.819627 3.606704 0.769540 0
M  V30 15 C -1.949669 3.287062 0.098604 0
M  V30 16 C -3.095303 3.987819 -0.231873 0
M  V30 17 C -4.128308 3.406372 -0.943929 0
M  V30 18 C -3.996716 2.090504 -1.327569 0
M  V30 19 C -2.855098 1.363304 -1.008122 0
M  V30 20 C -1.821297 1.959081 -0.290783 0
M  V30 21 N 1.781273 -2.414388 1.148820 0
M  V30 22 H 2.328589 -5.382533 4.634849 0
M  V30 23 H 2.825922 -6.397476 4.564700 0
M  V30 24 H 2.307624 -5.662143 1.399715 0
M  V30 25 H 1.181477 -4.687402 2.340570 0
M  V30 26 H 3.710848 -4.666790 -0.466081 0
M  V30 27 H 1.773463 0.607089 1.034890 0
M  V30 28 H -0.625556 4.562374 1.192165 0
M  V30 29 H -3.209440 5.021033 0.063975 0
M  V30 30 H -5.047915 3.937163 -1.220045 0
M  V30 31 H -4.780352 1.595228 -1.886231 0
M  V30 32 H -2.761009 0.321736 -1.316783 0
M  V30 END ATOM
M  V30 BEGIN BOND
M  V30 1 1 1 2
M  V30 2 2 2 3
M  V30 3 1 2 4
M  V30 4 1 4 5
M  V30 5 2 5 6
M  V30 6 1 6 7
M  V30 7 1 7 8
M  V30 8 1 8 9
M  V30 9 1 9 10
M  V30 10 2 10 11
M  V30 11 1 10 12
M  V30 12 2 12 13
M  V30 13 1 13 14
M  V30 14 1 14 15
M  V30 15 2 15 16
M  V30 16 1 16 17
M  V30 17 2 17 18
M  V30 18 1 18 19
M  V30 19 2 19 20
M  V30 20 2 8 21
M  V30 21 1 21 5
M  V30 22 1 20 12
M  V30 23 1 20 15
M  V30 24 1 1 22
M  V30 25 1 1 23
M  V30 26 1 4 24
M  V30 27 1 4 25
M  V30 28 1 6 26
M  V30 29 1 9 27
M  V30 30 1 14 28
M  V30 31 1 16 29
M  V30 32 1 17 30
M  V30 33 1 18 31
M  V30 34 1 19 32
M  V30 END BOND
M  V30 END CTAB
M  END
>  <Dataset>  (61) 
ChEMBL_Kinases

>  <Ligand_Instance>  (61) 
nan

>  <PDB_ID>  (61) 
nan

>  <Standardized_SMILES>  (61) 
NC(=O)Cc1csc(NC(=O)c2n[nH]c3ccccc23)n1

>  <Name>  (61) 
nan

>  <Pocket>  (61) 
nan

>  <ATP_Site>  (61) 
nan

>  <Peripheral>  (61) 
nan

>  <Num_H_Atoms_ProtBoundConf>  (61) 
nan

>  <Num_Resolved_Atoms>  (61) 
nan

>  <Num_Not_Resolved_Atoms>  (61) 
nan

$$$$
CHEMBL3823306
     RDKit          3D

  0  0  0  0  0  0  0  0  0  0999 V3000
M  V30 BEGIN CTAB
M  V30 COUNTS 44 47 0 0 0
M  V30 BEGIN ATOM
M  V30 1 O 4.136229 -1.877852 -0.022728 0
M  V30 2 C 3.470598 -0.793003 -0.048645 0
M  V30 3 N 4.115102 0.335753 -0.606858 0
M  V30 4 C 5.449540 0.444075 -1.167576 0
M  V30 5 C 5.396915 -0.170242 -2.525779 0
M  V30 6 C 5.645031 -1.473201 -2.899358 0
M  V30 7 C 5.538740 -1.852419 -4.215539 0
M  V30 8 C 5.186505 -0.982500 -5.229545 0
M  V30 9 C 4.950431 0.304321 -4.801165 0
M  V30 10 N 5.050812 0.688270 -3.516804 0
M  V30 11 C 2.133661 -0.771684 0.476758 0
M  V30 12 C 1.306276 0.327294 0.503414 0
M  V30 13 C 0.025985 0.312292 1.016431 0
M  V30 14 C -0.493018 -0.851563 1.542917 0
M  V30 15 N -1.808333 -0.903869 2.079944 0
M  V30 16 C -2.404452 -0.119911 2.995876 0
M  V30 17 C -3.690506 -0.584325 3.176594 0
M  V30 18 C -4.703468 -0.044858 4.073955 0
M  V30 19 C -6.022481 -0.173068 3.670374 0
M  V30 20 C -7.055145 0.305362 4.450204 0
M  V30 21 N -6.761946 0.907606 5.626590 0
M  V30 22 C -5.485717 1.052359 6.056495 0
M  V30 23 C -4.453154 0.571496 5.271465 0
M  V30 24 C -3.809896 -1.662892 2.330675 0
M  V30 25 N -2.652950 -1.855085 1.659980 0
M  V30 26 C 0.299499 -1.999154 1.543359 0
M  V30 27 C 1.575536 -1.914067 1.012779 0
M  V30 28 H 3.554720 1.216889 -0.619613 0
M  V30 29 H 6.171803 -0.172868 -0.554047 0
M  V30 30 H 5.791730 1.479857 -1.238274 0
M  V30 31 H 5.919336 -2.119205 -2.077920 0
M  V30 32 H 5.745465 -2.889358 -4.453080 0
M  V30 33 H 5.111192 -1.311723 -6.255453 0
M  V30 34 H 4.667279 1.055844 -5.541564 0
M  V30 35 H 1.661566 1.261761 0.105586 0
M  V30 36 H -0.593948 1.221237 1.012767 0
M  V30 37 H -1.924572 0.717962 3.482329 0
M  V30 38 H -6.260749 -0.659176 2.722051 0
M  V30 39 H -8.065784 0.173584 4.076418 0
M  V30 40 H -5.284020 1.538921 7.001866 0
M  V30 41 H -3.404934 0.662393 5.571951 0
M  V30 42 H -4.677997 -2.291053 2.190647 0
M  V30 43 H -0.091245 -2.926223 1.953758 0
M  V30 44 H 2.138251 -2.848799 1.046355 0
M  V30 END ATOM
M  V30 BEGIN BOND
M  V30 1 2 1 2
M  V30 2 1 2 3
M  V30 3 1 3 4
M  V30 4 1 4 5
M  V30 5 2 5 6
M  V30 6 1 6 7
M  V30 7 2 7 8
M  V30 8 1 8 9
M  V30 9 2 9 10
M  V30 10 1 2 11
M  V30 11 2 11 12
M  V30 12 1 12 13
M  V30 13 2 13 14
M  V30 14 1 14 15
M  V30 15 1 15 16
M  V30 16 2 16 17
M  V30 17 1 17 18
M  V30 18 2 18 19
M  V30 19 1 19 20
M  V30 20 2 20 21
M  V30 21 1 21 22
M  V30 22 2 22 23
M  V30 23 1 17 24
M  V30 24 2 24 25
M  V30 25 1 14 26
M  V30 26 2 26 27
M  V30 27 1 10 5
M  V30 28 1 27 11
M  V30 29 1 25 15
M  V30 30 1 23 18
M  V30 31 1 3 28
M  V30 32 1 4 29
M  V30 33 1 4 30
M  V30 34 1 6 31
M  V30 35 1 7 32
M  V30 36 1 8 33
M  V30 37 1 9 34
M  V30 38 1 12 35
M  V30 39 1 13 36
M  V30 40 1 16 37
M  V30 41 1 19 38
M  V30 42 1 20 39
M  V30 43 1 22 40
M  V30 44 1 23 41
M  V30 45 1 24 42
M  V30 46 1 26 43
M  V30 47 1 27 44
M  V30 END BOND
M  V30 END CTAB
M  END
>  <Dataset>  (62) 
ChEMBL_Kinases

>  <Ligand_Instance>  (62) 
nan

>  <PDB_ID>  (62) 
nan

>  <Standardized_SMILES>  (62) 
O=C(NCc1ccccn1)c1ccc(-n2cc(-c3ccncc3)cn2)cc1

>  <Name>  (62) 
nan

>  <Pocket>  (62) 
nan

>  <ATP_Site>  (62) 
nan

>  <Peripheral>  (62) 
nan

>  <Num_H_Atoms_ProtBoundConf>  (62) 
nan

>  <Num_Resolved_Atoms>  (62) 
nan

>  <Num_Not_Resolved_Atoms>  (62) 
nan

$$$$
CHEMBL3823302
     RDKit          3D

  0  0  0  0  0  0  0  0  0  0999 V3000
M  V30 BEGIN CTAB
M  V30 COUNTS 60 64 0 0 0
M  V30 BEGIN ATOM
M  V30 1 C -4.779350 -2.155850 3.970822 0
M  V30 2 C -3.523828 -1.635946 3.681139 0
M  V30 3 C -2.845152 -2.078437 2.563315 0
M  V30 4 C -1.508507 -1.577901 2.184533 0
M  V30 5 C -0.421863 -2.315963 1.772934 0
M  V30 6 N 0.572504 -1.418441 1.538696 0
M  V30 7 N 0.160583 -0.204846 1.779268 0
M  V30 8 C 1.038278 0.901335 1.600946 0
M  V30 9 C 1.872938 1.457006 2.547562 0
M  V30 10 C 2.678499 2.534774 2.243360 0
M  V30 11 C 2.642162 3.063952 0.957582 0
M  V30 12 N 3.464556 4.176059 0.620433 0
M  V30 13 C 3.531770 4.831652 -0.677506 0
M  V30 14 C 3.662650 6.325939 -0.356659 0
M  V30 15 O 4.929928 6.600192 0.157403 0
M  V30 16 C 5.442761 5.508739 0.855139 0
M  V30 17 C 4.346802 4.769463 1.607716 0
M  V30 18 C 1.815463 2.525861 -0.007615 0
M  V30 19 C 1.000607 1.432095 0.308094 0
M  V30 20 C -1.125834 -0.259247 2.182506 0
M  V30 21 C -3.402824 -3.033152 1.730407 0
M  V30 22 O -2.706005 -3.480402 0.592095 0
M  V30 23 C -3.257349 -4.453168 -0.269742 0
M  V30 24 C -2.353359 -4.798863 -1.434811 0
M  V30 25 C -3.050671 -5.855018 -2.293434 0
M  V30 26 C -2.154084 -6.224111 -3.452163 0
M  V30 27 N -0.808565 -5.730261 -3.323034 0
M  V30 28 C -0.222703 -5.953570 -2.016779 0
M  V30 29 C -1.114385 -5.473347 -0.890717 0
M  V30 30 C -4.663682 -3.529339 2.055766 0
M  V30 31 N -5.310856 -3.084880 3.151602 0
M  V30 32 H -5.347907 -1.840945 4.833156 0
M  V30 33 H -3.074464 -0.896824 4.312193 0
M  V30 34 H -0.484107 -3.374256 1.696861 0
M  V30 35 H 1.851039 1.000350 3.517002 0
M  V30 36 H 3.311927 2.930705 3.019695 0
M  V30 37 H 4.378085 4.475385 -1.301337 0
M  V30 38 H 2.631155 4.733693 -1.280891 0
M  V30 39 H 2.934847 6.531648 0.458063 0
M  V30 40 H 3.468961 6.969352 -1.215652 0
M  V30 41 H 6.226318 5.828111 1.571661 0
M  V30 42 H 5.830309 4.792063 0.102149 0
M  V30 43 H 3.804129 5.421784 2.318821 0
M  V30 44 H 4.863120 3.992218 2.226824 0
M  V30 45 H 1.758561 2.908604 -1.018145 0
M  V30 46 H 0.356762 1.032269 -0.486917 0
M  V30 47 H -1.694207 0.623373 2.442753 0
M  V30 48 H -3.452774 -5.348619 0.334840 0
M  V30 49 H -4.236742 -4.074119 -0.638645 0
M  V30 50 H -2.160075 -3.940451 -2.082373 0
M  V30 51 H -4.068434 -5.537793 -2.605739 0
M  V30 52 H -3.136734 -6.770443 -1.657388 0
M  V30 53 H -2.571999 -5.716851 -4.368888 0
M  V30 54 H -2.118883 -7.303535 -3.634838 0
M  V30 55 H -0.678268 -4.752395 -3.662039 0
M  V30 56 H 0.088956 -7.005473 -1.891977 0
M  V30 57 H 0.711216 -5.338185 -1.999707 0
M  V30 58 H -0.552937 -4.886559 -0.165829 0
M  V30 59 H -1.489865 -6.387363 -0.344831 0
M  V30 60 H -5.101796 -4.275034 1.407195 0
M  V30 END ATOM
M  V30 BEGIN BOND
M  V30 1 2 1 2
M  V30 2 1 2 3
M  V30 3 1 3 4
M  V30 4 1 4 5
M  V30 5 2 5 6
M  V30 6 1 6 7
M  V30 7 1 7 8
M  V30 8 2 8 9
M  V30 9 1 9 10
M  V30 10 2 10 11
M  V30 11 1 11 12
M  V30 12 1 12 13
M  V30 13 1 13 14
M  V30 14 1 14 15
M  V30 15 1 15 16
M  V30 16 1 16 17
M  V30 17 1 11 18
M  V30 18 2 18 19
M  V30 19 1 7 20
M  V30 20 2 3 21
M  V30 21 1 21 22
M  V30 22 1 22 23
M  V30 23 1 23 24
M  V30 24 1 24 25
M  V30 25 1 25 26
M  V30 26 1 26 27
M  V30 27 1 27 28
M  V30 28 1 28 29
M  V30 29 1 21 30
M  V30 30 2 30 31
M  V30 31 1 31 1
M  V30 32 2 20 4
M  V30 33 1 29 24
M  V30 34 1 19 8
M  V30 35 1 17 12
M  V30 36 1 1 32
M  V30 37 1 2 33
M  V30 38 1 5 34
M  V30 39 1 9 35
M  V30 40 1 10 36
M  V30 41 1 13 37
M  V30 42 1 13 38
M  V30 43 1 14 39
M  V30 44 1 14 40
M  V30 45 1 16 41
M  V30 46 1 16 42
M  V30 47 1 17 43
M  V30 48 1 17 44
M  V30 49 1 18 45
M  V30 50 1 19 46
M  V30 51 1 20 47
M  V30 52 1 23 48
M  V30 53 1 23 49
M  V30 54 1 24 50
M  V30 55 1 25 51
M  V30 56 1 25 52
M  V30 57 1 26 53
M  V30 58 1 26 54
M  V30 59 1 27 55
M  V30 60 1 28 56
M  V30 61 1 28 57
M  V30 62 1 29 58
M  V30 63 1 29 59
M  V30 64 1 30 60
M  V30 END BOND
M  V30 END CTAB
M  END
>  <Dataset>  (63) 
ChEMBL_Kinases

>  <Ligand_Instance>  (63) 
nan

>  <PDB_ID>  (63) 
nan

>  <Standardized_SMILES>  (63) 
c1cc(-c2cnn(-c3ccc(N4CCOCC4)cc3)c2)c(OCC2CCNCC2)cn1

>  <Name>  (63) 
nan

>  <Pocket>  (63) 
nan

>  <ATP_Site>  (63) 
nan

>  <Peripheral>  (63) 
nan

>  <Num_H_Atoms_ProtBoundConf>  (63) 
nan

>  <Num_Resolved_Atoms>  (63) 
nan

>  <Num_Not_Resolved_Atoms>  (63) 
nan

$$$$
CHEMBL3823301
     RDKit          3D

  0  0  0  0  0  0  0  0  0  0999 V3000
M  V30 BEGIN CTAB
M  V30 COUNTS 55 59 0 0 0
M  V30 BEGIN ATOM
M  V30 1 C 2.667880 -3.392866 6.641087 0
M  V30 2 C 1.907908 -3.928580 5.505340 0
M  V30 3 O 0.826236 -4.532821 5.822567 0
M  V30 4 N 2.313167 -3.804483 4.143820 0
M  V30 5 C 3.502310 -3.158926 3.571020 0
M  V30 6 C 3.081315 -2.008576 2.671092 0
M  V30 7 C 1.616312 -1.974873 2.432720 0
M  V30 8 N 1.288573 -1.001130 1.428111 0
M  V30 9 N 0.683870 0.180294 1.647721 0
M  V30 10 C 0.497069 0.847991 0.501163 0
M  V30 11 C 1.014959 0.036760 -0.486746 0
M  V30 12 N 0.958666 0.440783 -1.847170 0
M  V30 13 C 0.409639 1.684521 -2.310157 0
M  V30 14 N 1.082996 2.781237 -2.704664 0
M  V30 15 C 0.395712 3.894339 -3.106268 0
M  V30 16 C -1.010116 3.918576 -3.115459 0
M  V30 17 Cl -1.839135 5.357892 -3.633160 0
M  V30 18 C -1.670785 2.770349 -2.700930 0
M  V30 19 C -3.105013 2.673274 -2.654339 0
M  V30 20 C -4.144713 3.514956 -2.976486 0
M  V30 21 N -5.326464 2.930151 -2.747213 0
M  V30 22 N -5.112582 1.691502 -2.269722 0
M  V30 23 C -6.076360 0.834365 -1.932745 0
M  V30 24 C -5.651681 -0.398879 -1.453205 0
M  V30 25 C -4.293768 -0.662903 -1.354655 0
M  V30 26 C -3.434343 0.316468 -1.739581 0
M  V30 27 C -3.770027 1.553165 -2.220181 0
M  V30 28 N -0.935203 1.720316 -2.322950 0
M  V30 29 C 1.505674 -1.112696 0.109314 0
M  V30 30 C 2.123385 -2.140889 -0.724898 0
M  V30 31 C 0.970164 -3.316038 2.237177 0
M  V30 32 C 1.458339 -4.390537 3.129922 0
M  V30 33 H 2.744505 -4.129665 7.485172 0
M  V30 34 H 2.259452 -2.464309 7.068354 0
M  V30 35 H 3.695894 -3.180343 6.299836 0
M  V30 36 H 3.978302 -3.931663 2.931887 0
M  V30 37 H 4.240202 -2.872422 4.338958 0
M  V30 38 H 3.369892 -1.078416 3.223619 0
M  V30 39 H 3.702714 -1.967070 1.757377 0
M  V30 40 H 1.162022 -1.594327 3.403675 0
M  V30 41 H 0.017822 1.813707 0.558927 0
M  V30 42 H 1.347145 -0.223992 -2.519765 0
M  V30 43 H 0.959508 4.757974 -3.420050 0
M  V30 44 H -4.064574 4.500212 -3.354470 0
M  V30 45 H -7.121431 1.060605 -2.018356 0
M  V30 46 H -6.448519 -1.100767 -1.177969 0
M  V30 47 H -4.011663 -1.628345 -0.976596 0
M  V30 48 H -2.390861 0.016996 -1.624910 0
M  V30 49 H 2.715966 -1.667781 -1.570844 0
M  V30 50 H 1.364292 -2.752600 -1.291263 0
M  V30 51 H 2.822492 -2.822452 -0.257428 0
M  V30 52 H 1.118733 -3.649175 1.177348 0
M  V30 53 H -0.132868 -3.247818 2.334799 0
M  V30 54 H 0.603877 -4.942057 3.571744 0
M  V30 55 H 2.078195 -5.159967 2.626677 0
M  V30 END ATOM
M  V30 BEGIN BOND
M  V30 1 1 1 2
M  V30 2 2 2 3
M  V30 3 1 2 4
M  V30 4 1 4 5
M  V30 5 1 5 6
M  V30 6 1 6 7
M  V30 7 1 7 8
M  V30 8 1 8 9
M  V30 9 2 9 10
M  V30 10 1 10 11
M  V30 11 1 11 12
M  V30 12 1 12 13
M  V30 13 2 13 14
M  V30 14 1 14 15
M  V30 15 2 15 16
M  V30 16 1 16 17
M  V30 17 1 16 18
M  V30 18 1 18 19
M  V30 19 1 19 20
M  V30 20 2 20 21
M  V30 21 1 21 22
M  V30 22 1 22 23
M  V30 23 2 23 24
M  V30 24 1 24 25
M  V30 25 2 25 26
M  V30 26 1 26 27
M  V30 27 2 18 28
M  V30 28 2 11 29
M  V30 29 1 29 30
M  V30 30 1 7 31
M  V30 31 1 31 32
M  V30 32 1 32 4
M  V30 33 1 29 8
M  V30 34 1 28 13
M  V30 35 2 27 19
M  V30 36 1 27 22
M  V30 37 1 1 33
M  V30 38 1 1 34
M  V30 39 1 1 35
M  V30 40 1 5 36
M  V30 41 1 5 37
M  V30 42 1 6 38
M  V30 43 1 6 39
M  V30 44 1 7 40
M  V30 45 1 10 41
M  V30 46 1 12 42
M  V30 47 1 15 43
M  V30 48 1 20 44
M  V30 49 1 23 45
M  V30 50 1 24 46
M  V30 51 1 25 47
M  V30 52 1 26 48
M  V30 53 1 30 49
M  V30 54 1 30 50
M  V30 55 1 30 51
M  V30 56 1 31 52
M  V30 57 1 31 53
M  V30 58 1 32 54
M  V30 59 1 32 55
M  V30 END BOND
M  V30 END CTAB
M  END
>  <Dataset>  (64) 
ChEMBL_Kinases

>  <Ligand_Instance>  (64) 
nan

>  <PDB_ID>  (64) 
nan

>  <Standardized_SMILES>  (64) 
CC(=O)N1CCC(n2ncc(Nc3ncc(Cl)c(-c4cnn5ccccc45)n3)c2C)CC1

>  <Name>  (64) 
nan

>  <Pocket>  (64) 
nan

>  <ATP_Site>  (64) 
nan

>  <Peripheral>  (64) 
nan

>  <Num_H_Atoms_ProtBoundConf>  (64) 
nan

>  <Num_Resolved_Atoms>  (64) 
nan

>  <Num_Not_Resolved_Atoms>  (64) 
nan

$$$$
CHEMBL3823523
     RDKit          3D

  0  0  0  0  0  0  0  0  0  0999 V3000
M  V30 BEGIN CTAB
M  V30 COUNTS 47 51 0 0 0
M  V30 BEGIN ATOM
M  V30 1 C -0.068447 -0.447514 0.675652 0
M  V30 2 C -0.217182 -1.942589 0.728267 0 CFG=2
M  V30 3 N 0.364179 -2.514103 -0.451099 0
M  V30 4 C 1.732484 -2.070293 -0.485856 0
M  V30 5 N 2.805611 -2.736243 -0.004853 0
M  V30 6 C 4.049968 -2.200560 -0.079605 0
M  V30 7 C 4.188894 -0.963417 -0.657882 0
M  V30 8 C 3.117107 -0.248414 -1.162796 0
M  V30 9 N 3.236208 1.061148 -1.760526 0
M  V30 10 C 2.487060 1.885764 -0.843068 0
M  V30 11 C 2.444549 2.148040 0.507010 0
M  V30 12 C 1.421045 3.058092 0.767741 0
M  V30 13 C 1.145626 3.497498 2.173695 0
M  V30 14 C 2.228363 3.407993 3.168334 0
M  V30 15 C 1.114007 2.422275 3.233039 0
M  V30 16 N 0.870995 3.325336 -0.426819 0
M  V30 17 N 1.491054 2.640779 -1.382998 0
M  V30 18 N 1.912582 -0.861914 -1.045200 0
M  V30 19 C -1.666829 -2.295466 0.906799 0
M  V30 20 C -2.615966 -1.298893 0.693617 0
M  V30 21 C -3.969434 -1.596653 0.887182 0
M  V30 22 C -4.236596 -2.897070 1.285441 0
M  V30 23 N -5.471389 -3.423021 1.542488 0
M  V30 24 C -5.279370 -4.702143 1.903433 0
M  V30 25 C -3.930189 -5.052979 1.894241 0
M  V30 26 Cl -3.120302 -6.533470 2.270190 0
M  V30 27 C -3.298125 -3.886517 1.498020 0
M  V30 28 N -1.989341 -3.546379 1.294645 0
M  V30 29 H -0.724405 0.070454 1.401871 0
M  V30 30 H 0.974087 -0.233613 1.028193 0
M  V30 31 H -0.258774 -0.117489 -0.353140 0
M  V30 32 H 0.362372 -2.291684 1.622806 0
M  V30 33 H 0.443612 -3.051190 -1.314520 0
M  V30 34 H 4.891443 -2.752380 0.307962 0
M  V30 35 H 5.186301 -0.506451 -0.731246 0
M  V30 36 H 3.705002 1.414865 -2.604467 0
M  V30 37 H 3.166929 1.637646 1.124046 0
M  V30 38 H 0.343391 4.248632 2.311405 0
M  V30 39 H 2.299437 4.105024 4.043293 0
M  V30 40 H 3.243115 3.035343 2.861089 0
M  V30 41 H 1.390770 1.381259 2.951398 0
M  V30 42 H 0.346795 2.454842 4.026382 0
M  V30 43 H 0.075376 3.990477 -0.467603 0
M  V30 44 H -2.414061 -0.297962 0.384544 0
M  V30 45 H -4.758674 -0.874342 0.738054 0
M  V30 46 H -6.395371 -2.946802 1.479142 0
M  V30 47 H -6.033821 -5.440187 2.183293 0
M  V30 END ATOM
M  V30 BEGIN BOND
M  V30 1 1 1 2
M  V30 2 1 2 3
M  V30 3 1 3 4
M  V30 4 2 4 5
M  V30 5 1 5 6
M  V30 6 2 6 7
M  V30 7 1 7 8
M  V30 8 1 8 9
M  V30 9 1 9 10
M  V30 10 1 10 11
M  V30 11 2 11 12
M  V30 12 1 12 13
M  V30 13 1 13 14
M  V30 14 1 14 15
M  V30 15 1 12 16
M  V30 16 1 16 17
M  V30 17 2 8 18
M  V30 18 1 2 19
M  V30 19 2 19 20
M  V30 20 1 20 21
M  V30 21 2 21 22
M  V30 22 1 22 23
M  V30 23 1 23 24
M  V30 24 2 24 25
M  V30 25 1 25 26
M  V30 26 1 25 27
M  V30 27 2 27 28
M  V30 28 1 18 4
M  V30 29 1 28 19
M  V30 30 2 17 10
M  V30 31 1 27 22
M  V30 32 1 15 13
M  V30 33 1 1 29
M  V30 34 1 1 30
M  V30 35 1 1 31
M  V30 36 1 2 32 CFG=1
M  V30 37 1 3 33
M  V30 38 1 6 34
M  V30 39 1 7 35
M  V30 40 1 9 36
M  V30 41 1 11 37
M  V30 42 1 13 38
M  V30 43 1 14 39
M  V30 44 1 14 40
M  V30 45 1 15 41
M  V30 46 1 15 42
M  V30 47 1 16 43
M  V30 48 1 20 44
M  V30 49 1 21 45
M  V30 50 1 23 46
M  V30 51 1 24 47
M  V30 END BOND
M  V30 END CTAB
M  END
>  <Dataset>  (65) 
ChEMBL_Kinases

>  <Ligand_Instance>  (65) 
nan

>  <PDB_ID>  (65) 
nan

>  <Standardized_SMILES>  (65) 
C[C@H](Nc1nccc(Nc2cc(C3CC3)[nH]n2)n1)c1ccc2[nH]cc(Cl)c2n1

>  <Name>  (65) 
nan

>  <Pocket>  (65) 
nan

>  <ATP_Site>  (65) 
nan

>  <Peripheral>  (65) 
nan

>  <Num_H_Atoms_ProtBoundConf>  (65) 
nan

>  <Num_Resolved_Atoms>  (65) 
nan

>  <Num_Not_Resolved_Atoms>  (65) 
nan

$$$$
CHEMBL3824324
     RDKit          3D

  0  0  0  0  0  0  0  0  0  0999 V3000
M  V30 BEGIN CTAB
M  V30 COUNTS 44 48 0 0 0
M  V30 BEGIN ATOM
M  V30 1 C 1.769530 -2.888527 2.960544 0
M  V30 2 C 2.903327 -2.287265 2.417575 0
M  V30 3 C 3.059801 -0.929100 2.261741 0
M  V30 4 N 4.243328 -0.376695 1.683030 0
M  V30 5 C 4.046653 0.387136 0.482582 0
M  V30 6 C 2.839385 0.661413 -0.134614 0
M  V30 7 C 3.008909 1.426343 -1.272917 0
M  V30 8 C 1.972125 1.915227 -2.190678 0
M  V30 9 C 0.563498 1.725003 -1.842965 0
M  V30 10 C 1.157378 0.773104 -2.883863 0
M  V30 11 N 4.359693 1.604495 -1.321257 0
M  V30 12 N 4.972061 1.000073 -0.299071 0
M  V30 13 N 2.022218 -0.184858 2.676524 0
M  V30 14 C 0.928205 -0.719717 3.197907 0
M  V30 15 N 0.016725 0.320798 3.541930 0
M  V30 16 C -0.667628 0.669017 2.333485 0
M  V30 17 C -1.466122 -0.389279 1.715793 0
M  V30 18 C -0.944272 -1.298583 0.825853 0
M  V30 19 C -1.652219 -2.319190 0.187742 0
M  V30 20 C -2.991533 -2.366654 0.522854 0
M  V30 21 N -3.949539 -3.219352 0.085898 0
M  V30 22 C -5.117726 -2.878744 0.687747 0
M  V30 23 C -4.870001 -1.794015 1.511392 0
M  V30 24 N -3.541584 -1.514703 1.374707 0
M  V30 25 C -2.835433 -0.547049 1.969579 0
M  V30 26 N 0.770248 -2.045065 3.351982 0
M  V30 27 H 1.660768 -3.955645 3.075588 0
M  V30 28 H 3.720077 -2.950985 2.092540 0
M  V30 29 H 5.224083 -0.459751 2.028637 0
M  V30 30 H 1.878436 0.333429 0.210524 0
M  V30 31 H 2.332405 2.670270 -2.946810 0
M  V30 32 H 0.369052 1.211417 -0.857269 0
M  V30 33 H -0.249136 2.378485 -2.202660 0
M  V30 34 H 1.418154 -0.268232 -2.570090 0
M  V30 35 H 0.879945 0.927395 -3.940134 0
M  V30 36 H 4.819200 2.153977 -2.086795 0
M  V30 37 H 0.052196 0.584638 4.570255 0
M  V30 38 H 0.068823 1.124344 1.627343 0
M  V30 39 H -1.369281 1.529608 2.561104 0
M  V30 40 H 0.117645 -1.241750 0.580237 0
M  V30 41 H -1.138567 -2.978636 -0.495609 0
M  V30 42 H -6.102258 -3.348841 0.572087 0
M  V30 43 H -5.595278 -1.268094 2.138681 0
M  V30 44 H -3.285405 0.163737 2.676457 0
M  V30 END ATOM
M  V30 BEGIN BOND
M  V30 1 2 1 2
M  V30 2 1 2 3
M  V30 3 1 3 4
M  V30 4 1 4 5
M  V30 5 1 5 6
M  V30 6 2 6 7
M  V30 7 1 7 8
M  V30 8 1 8 9
M  V30 9 1 9 10
M  V30 10 1 7 11
M  V30 11 1 11 12
M  V30 12 2 3 13
M  V30 13 1 13 14
M  V30 14 1 14 15
M  V30 15 1 15 16
M  V30 16 1 16 17
M  V30 17 1 17 18
M  V30 18 2 18 19
M  V30 19 1 19 20
M  V30 20 2 20 21
M  V30 21 1 21 22
M  V30 22 2 22 23
M  V30 23 1 23 24
M  V30 24 1 24 25
M  V30 25 2 14 26
M  V30 26 1 26 1
M  V30 27 2 12 5
M  V30 28 2 25 17
M  V30 29 1 10 8
M  V30 30 1 24 20
M  V30 31 1 1 27
M  V30 32 1 2 28
M  V30 33 1 4 29
M  V30 34 1 6 30
M  V30 35 1 8 31
M  V30 36 1 9 32
M  V30 37 1 9 33
M  V30 38 1 10 34
M  V30 39 1 10 35
M  V30 40 1 11 36
M  V30 41 1 15 37
M  V30 42 1 16 38
M  V30 43 1 16 39
M  V30 44 1 18 40
M  V30 45 1 19 41
M  V30 46 1 22 42
M  V30 47 1 23 43
M  V30 48 1 25 44
M  V30 END BOND
M  V30 END CTAB
M  END
>  <Dataset>  (66) 
ChEMBL_Kinases

>  <Ligand_Instance>  (66) 
nan

>  <PDB_ID>  (66) 
nan

>  <Standardized_SMILES>  (66) 
c1cc(Nc2cc(C3CC3)[nH]n2)nc(NCc2ccc3nccn3c2)n1

>  <Name>  (66) 
nan

>  <Pocket>  (66) 
nan

>  <ATP_Site>  (66) 
nan

>  <Peripheral>  (66) 
nan

>  <Num_H_Atoms_ProtBoundConf>  (66) 
nan

>  <Num_Resolved_Atoms>  (66) 
nan

>  <Num_Not_Resolved_Atoms>  (66) 
nan

$$$$
CHEMBL3702229
     RDKit          3D

  0  0  0  0  0  0  0  0  0  0999 V3000
M  V30 BEGIN CTAB
M  V30 COUNTS 59 63 0 0 0
M  V30 BEGIN ATOM
M  V30 1 C 3.224129 -1.692425 1.486501 0
M  V30 2 C 4.242953 -1.245992 2.517018 0
M  V30 3 C 3.686512 -0.119330 3.373327 0 CFG=2
M  V30 4 C 2.456861 -0.611174 4.084082 0
M  V30 5 N 3.368909 0.995559 2.476570 0
M  V30 6 C 4.316086 1.759840 1.886500 0
M  V30 7 C 5.693003 1.826183 1.881733 0
M  V30 8 N 6.429184 2.723555 1.178977 0
M  V30 9 C 5.749960 3.616326 0.429291 0
M  V30 10 C 4.369437 3.656366 0.348467 0
M  V30 11 C 3.706493 2.706627 1.096400 0
M  V30 12 C 2.352536 2.514674 1.209449 0
M  V30 13 C 1.248494 3.146248 0.660642 0
M  V30 14 N 0.017403 2.681358 1.000659 0
M  V30 15 C -0.161403 1.649881 1.834539 0
M  V30 16 N -1.547792 1.393767 1.989322 0
M  V30 17 C -2.245280 0.325246 1.309146 0
M  V30 18 C -3.602686 0.091461 1.415276 0
M  V30 19 C -4.155368 -0.978372 0.734756 0
M  V30 20 C -3.431245 -1.838718 -0.051988 0
M  V30 21 N -3.932963 -2.940671 -0.788461 0
M  V30 22 C -5.304125 -3.106621 -1.242081 0
M  V30 23 C -5.242726 -2.869226 -2.757039 0
M  V30 24 N -3.904621 -3.143192 -3.257094 0
M  V30 25 C -3.405157 -4.384950 -2.662561 0 CFG=1
M  V30 26 C -2.098475 -4.760709 -3.299551 0
M  V30 27 C -3.182618 -4.095030 -1.193913 0
M  V30 28 C -2.067596 -1.547908 -0.118000 0
M  V30 29 N -1.495979 -0.515192 0.530331 0
M  V30 30 N 0.914328 1.033141 2.369225 0
M  V30 31 C 2.164989 1.446377 2.071745 0
M  V30 32 H 2.463049 -2.285754 2.016339 0
M  V30 33 H 2.694565 -0.772777 1.103603 0
M  V30 34 H 3.708050 -2.254572 0.669823 0
M  V30 35 H 5.122948 -0.884327 1.961503 0
M  V30 36 H 4.554493 -2.103264 3.130636 0
M  V30 37 H 4.465326 0.200230 4.080472 0
M  V30 38 H 1.705194 -0.957294 3.365765 0
M  V30 39 H 2.804145 -1.511307 4.676156 0
M  V30 40 H 2.104114 0.134352 4.820771 0
M  V30 41 H 6.258299 1.137189 2.465760 0
M  V30 42 H 6.280074 4.364769 -0.159896 0
M  V30 43 H 3.854245 4.385361 -0.260539 0
M  V30 44 H 1.422106 3.976968 -0.011066 0
M  V30 45 H -2.163263 1.979029 2.621806 0
M  V30 46 H -4.182244 0.749556 2.023151 0
M  V30 47 H -5.219093 -1.172435 0.810986 0
M  V30 48 H -5.738159 -4.086381 -1.011415 0
M  V30 49 H -5.904951 -2.294916 -0.790681 0
M  V30 50 H -5.422473 -1.803327 -2.919762 0
M  V30 51 H -6.034224 -3.448548 -3.253356 0
M  V30 52 H -3.860028 -3.148740 -4.281946 0
M  V30 53 H -4.123262 -5.215984 -2.833494 0
M  V30 54 H -1.244900 -4.409481 -2.660242 0
M  V30 55 H -2.035296 -4.341398 -4.317507 0
M  V30 56 H -2.031748 -5.880662 -3.347361 0
M  V30 57 H -3.541385 -5.015274 -0.660179 0
M  V30 58 H -2.084325 -3.961812 -1.056573 0
M  V30 59 H -1.345632 -2.111234 -0.686474 0
M  V30 END ATOM
M  V30 BEGIN BOND
M  V30 1 1 1 2
M  V30 2 1 2 3
M  V30 3 1 3 4
M  V30 4 1 3 5
M  V30 5 1 5 6
M  V30 6 2 6 7
M  V30 7 1 7 8
M  V30 8 2 8 9
M  V30 9 1 9 10
M  V30 10 2 10 11
M  V30 11 1 11 12
M  V30 12 2 12 13
M  V30 13 1 13 14
M  V30 14 2 14 15
M  V30 15 1 15 16
M  V30 16 1 16 17
M  V30 17 2 17 18
M  V30 18 1 18 19
M  V30 19 2 19 20
M  V30 20 1 20 21
M  V30 21 1 21 22
M  V30 22 1 22 23
M  V30 23 1 23 24
M  V30 24 1 24 25
M  V30 25 1 25 26
M  V30 26 1 25 27
M  V30 27 1 20 28
M  V30 28 2 28 29
M  V30 29 1 15 30
M  V30 30 2 30 31
M  V30 31 1 31 5
M  V30 32 1 11 6
M  V30 33 1 31 12
M  V30 34 1 29 17
M  V30 35 1 27 21
M  V30 36 1 1 32
M  V30 37 1 1 33
M  V30 38 1 1 34
M  V30 39 1 2 35
M  V30 40 1 2 36
M  V30 41 1 3 37 CFG=1
M  V30 42 1 4 38
M  V30 43 1 4 39
M  V30 44 1 4 40
M  V30 45 1 7 41
M  V30 46 1 9 42
M  V30 47 1 10 43
M  V30 48 1 13 44
M  V30 49 1 16 45
M  V30 50 1 18 46
M  V30 51 1 19 47
M  V30 52 1 22 48
M  V30 53 1 22 49
M  V30 54 1 23 50
M  V30 55 1 23 51
M  V30 56 1 24 52
M  V30 57 1 25 53 CFG=1
M  V30 58 1 26 54
M  V30 59 1 26 55
M  V30 60 1 26 56
M  V30 61 1 27 57
M  V30 62 1 27 58
M  V30 63 1 28 59
M  V30 END BOND
M  V30 END CTAB
M  END
>  <Dataset>  (67) 
ChEMBL_Kinases

>  <Ligand_Instance>  (67) 
nan

>  <PDB_ID>  (67) 
nan

>  <Standardized_SMILES>  (67) 
CC[C@H](C)n1c2cnccc2c2cnc(Nc3ccc(N4CCN[C@@H](C)C4)cn3)nc21

>  <Name>  (67) 
nan

>  <Pocket>  (67) 
nan

>  <ATP_Site>  (67) 
nan

>  <Peripheral>  (67) 
nan

>  <Num_H_Atoms_ProtBoundConf>  (67) 
nan

>  <Num_Resolved_Atoms>  (67) 
nan

>  <Num_Not_Resolved_Atoms>  (67) 
nan

$$$$
CHEMBL3824314
     RDKit          3D

  0  0  0  0  0  0  0  0  0  0999 V3000
M  V30 BEGIN CTAB
M  V30 COUNTS 47 51 0 0 0
M  V30 BEGIN ATOM
M  V30 1 C -0.443356 -2.640183 3.537531 0
M  V30 2 C -0.367668 -2.984883 2.044312 0 CFG=2
M  V30 3 N 0.802178 -2.441254 1.417566 0
M  V30 4 C 1.241748 -2.462175 0.037480 0
M  V30 5 N 1.296685 -3.398604 -0.893217 0
M  V30 6 C 1.737438 -3.095254 -2.140194 0
M  V30 7 C 2.128310 -1.808291 -2.440056 0
M  V30 8 C 2.079102 -0.817463 -1.491007 0
M  V30 9 N 2.466127 0.537568 -1.755549 0
M  V30 10 C 2.429224 1.526546 -0.736815 0
M  V30 11 C 2.035495 1.446030 0.582669 0
M  V30 12 C 2.192808 2.684566 1.216242 0
M  V30 13 C 1.819585 2.856759 2.663727 0
M  V30 14 C 2.745079 3.433835 3.629214 0
M  V30 15 C 2.726799 1.964150 3.566488 0
M  V30 16 N 2.683897 3.483289 0.238781 0
M  V30 17 N 2.813635 2.796395 -0.882305 0
M  V30 18 N 1.629880 -1.248900 -0.311361 0
M  V30 19 C -1.583682 -2.421962 1.362823 0
M  V30 20 C -1.491242 -1.059035 1.076980 0
M  V30 21 C -2.543501 -0.384038 0.447025 0
M  V30 22 C -3.648490 -1.129850 0.135812 0
M  V30 23 N -4.802729 -0.757207 -0.463027 0
M  V30 24 C -5.575529 -1.858017 -0.540236 0
M  V30 25 C -4.963135 -2.970571 -0.002759 0
M  V30 26 C -3.740467 -2.498490 0.423301 0
M  V30 27 N -2.712103 -3.116831 1.027857 0
M  V30 28 H 0.572881 -2.732500 3.985432 0
M  V30 29 H -0.848318 -1.600056 3.662693 0
M  V30 30 H -1.121821 -3.386923 4.024191 0
M  V30 31 H -0.306474 -4.087164 1.957498 0
M  V30 32 H 1.420736 -1.971798 2.125701 0
M  V30 33 H 1.754316 -3.911619 -2.835328 0
M  V30 34 H 2.478259 -1.581729 -3.437533 0
M  V30 35 H 2.772232 0.776770 -2.718813 0
M  V30 36 H 1.656051 0.570327 1.086301 0
M  V30 37 H 0.730950 2.684915 2.902784 0
M  V30 38 H 2.287667 3.872054 4.551982 0
M  V30 39 H 3.651750 3.979991 3.315532 0
M  V30 40 H 2.199944 1.337803 4.329753 0
M  V30 41 H 3.570210 1.455627 3.105258 0
M  V30 42 H 2.882627 4.477399 0.467801 0
M  V30 43 H -0.620740 -0.451125 1.319709 0
M  V30 44 H -2.519224 0.666766 0.202045 0
M  V30 45 H -5.068087 0.194036 -0.804934 0
M  V30 46 H -6.578960 -1.882355 -0.972452 0
M  V30 47 H -5.279998 -3.990816 0.102693 0
M  V30 END ATOM
M  V30 BEGIN BOND
M  V30 1 1 1 2
M  V30 2 1 2 3
M  V30 3 1 3 4
M  V30 4 2 4 5
M  V30 5 1 5 6
M  V30 6 2 6 7
M  V30 7 1 7 8
M  V30 8 1 8 9
M  V30 9 1 9 10
M  V30 10 1 10 11
M  V30 11 2 11 12
M  V30 12 1 12 13
M  V30 13 1 13 14
M  V30 14 1 14 15
M  V30 15 1 12 16
M  V30 16 1 16 17
M  V30 17 2 8 18
M  V30 18 1 2 19
M  V30 19 2 19 20
M  V30 20 1 20 21
M  V30 21 2 21 22
M  V30 22 1 22 23
M  V30 23 1 23 24
M  V30 24 2 24 25
M  V30 25 1 25 26
M  V30 26 2 26 27
M  V30 27 1 18 4
M  V30 28 1 27 19
M  V30 29 2 17 10
M  V30 30 1 26 22
M  V30 31 1 15 13
M  V30 32 1 1 28
M  V30 33 1 1 29
M  V30 34 1 1 30
M  V30 35 1 2 31 CFG=1
M  V30 36 1 3 32
M  V30 37 1 6 33
M  V30 38 1 7 34
M  V30 39 1 9 35
M  V30 40 1 11 36
M  V30 41 1 13 37
M  V30 42 1 14 38
M  V30 43 1 14 39
M  V30 44 1 15 40
M  V30 45 1 15 41
M  V30 46 1 16 42
M  V30 47 1 20 43
M  V30 48 1 21 44
M  V30 49 1 23 45
M  V30 50 1 24 46
M  V30 51 1 25 47
M  V30 END BOND
M  V30 END CTAB
M  END
>  <Dataset>  (68) 
ChEMBL_Kinases

>  <Ligand_Instance>  (68) 
nan

>  <PDB_ID>  (68) 
nan

>  <Standardized_SMILES>  (68) 
C[C@H](Nc1nccc(Nc2cc(C3CC3)[nH]n2)n1)c1ccc2[nH]ccc2n1

>  <Name>  (68) 
nan

>  <Pocket>  (68) 
nan

>  <ATP_Site>  (68) 
nan

>  <Peripheral>  (68) 
nan

>  <Num_H_Atoms_ProtBoundConf>  (68) 
nan

>  <Num_Resolved_Atoms>  (68) 
nan

>  <Num_Not_Resolved_Atoms>  (68) 
nan

$$$$
CHEMBL3824310
     RDKit          3D

  0  0  0  0  0  0  0  0  0  0999 V3000
M  V30 BEGIN CTAB
M  V30 COUNTS 35 37 0 0 0
M  V30 BEGIN ATOM
M  V30 1 C 1.595483 -5.588659 2.425167 0
M  V30 2 S 2.357055 -4.057689 2.978068 0
M  V30 3 O 1.420590 -3.439893 3.977198 0
M  V30 4 O 3.726305 -4.294646 3.522205 0
M  V30 5 C 2.406252 -3.018403 1.547472 0
M  V30 6 C 3.508514 -3.055716 0.716225 0
M  V30 7 C 3.560186 -2.251436 -0.401748 0
M  V30 8 C 2.482153 -1.402629 -0.676195 0
M  V30 9 C 1.374347 -1.358107 0.149833 0
M  V30 10 N 0.262393 -0.504466 -0.103927 0
M  V30 11 C 0.250760 0.781455 0.428400 0
M  V30 12 O 1.352630 0.884783 1.077520 0
M  V30 13 C -0.625943 1.927646 0.426554 0
M  V30 14 N -0.222073 3.020532 1.106537 0
M  V30 15 N -1.145888 3.970148 0.996441 0
M  V30 16 C -2.194195 3.577870 0.255647 0
M  V30 17 C -3.385853 4.121028 -0.172029 0
M  V30 18 C -4.247020 3.372969 -0.958988 0
M  V30 19 C -3.857043 2.070754 -1.290168 0
M  V30 20 C -2.667440 1.521071 -0.866356 0
M  V30 21 C -1.842297 2.294386 -0.088623 0
M  V30 22 C 1.356484 -2.187134 1.273907 0
M  V30 23 H 1.967029 -5.878956 1.419618 0
M  V30 24 H 0.503921 -5.358108 2.272831 0
M  V30 25 H 1.651889 -6.383520 3.177466 0
M  V30 26 H 4.359026 -3.705963 0.906745 0
M  V30 27 H 4.398687 -2.245437 -1.080126 0
M  V30 28 H 2.425426 -0.740243 -1.517559 0
M  V30 29 H -0.593084 -0.705975 -0.658720 0
M  V30 30 H -1.042171 4.905003 1.445162 0
M  V30 31 H -3.576212 5.135323 0.148286 0
M  V30 32 H -5.177983 3.819285 -1.283884 0
M  V30 33 H -4.554078 1.529822 -1.900096 0
M  V30 34 H -2.409046 0.517811 -1.144632 0
M  V30 35 H 0.475356 -2.144359 1.921059 0
M  V30 END ATOM
M  V30 BEGIN BOND
M  V30 1 1 1 2
M  V30 2 2 2 3
M  V30 3 2 2 4
M  V30 4 1 2 5
M  V30 5 2 5 6
M  V30 6 1 6 7
M  V30 7 2 7 8
M  V30 8 1 8 9
M  V30 9 1 9 10
M  V30 10 1 10 11
M  V30 11 2 11 12
M  V30 12 1 11 13
M  V30 13 2 13 14
M  V30 14 1 14 15
M  V30 15 1 15 16
M  V30 16 2 16 17
M  V30 17 1 17 18
M  V30 18 2 18 19
M  V30 19 1 19 20
M  V30 20 2 20 21
M  V30 21 2 9 22
M  V30 22 1 22 5
M  V30 23 1 21 13
M  V30 24 1 21 16
M  V30 25 1 1 23
M  V30 26 1 1 24
M  V30 27 1 1 25
M  V30 28 1 6 26
M  V30 29 1 7 27
M  V30 30 1 8 28
M  V30 31 1 10 29
M  V30 32 1 15 30
M  V30 33 1 17 31
M  V30 34 1 18 32
M  V30 35 1 19 33
M  V30 36 1 20 34
M  V30 37 1 22 35
M  V30 END BOND
M  V30 END CTAB
M  END
>  <Dataset>  (69) 
ChEMBL_Kinases

>  <Ligand_Instance>  (69) 
nan

>  <PDB_ID>  (69) 
nan

>  <Standardized_SMILES>  (69) 
CS(=O)(=O)c1cccc(NC(=O)c2n[nH]c3ccccc23)c1

>  <Name>  (69) 
nan

>  <Pocket>  (69) 
nan

>  <ATP_Site>  (69) 
nan

>  <Peripheral>  (69) 
nan

>  <Num_H_Atoms_ProtBoundConf>  (69) 
nan

>  <Num_Resolved_Atoms>  (69) 
nan

>  <Num_Not_Resolved_Atoms>  (69) 
nan

$$$$
CHEMBL3824296
     RDKit          3D

  0  0  0  0  0  0  0  0  0  0999 V3000
M  V30 BEGIN CTAB
M  V30 COUNTS 53 57 0 0 0
M  V30 BEGIN ATOM
M  V30 1 C -1.881357 2.951059 -1.779450 0
M  V30 2 C -1.046619 2.354530 -0.676522 0
M  V30 3 N 0.186974 2.786462 -0.289174 0
M  V30 4 N 0.595434 2.008570 0.720248 0
M  V30 5 C 1.882841 2.194461 1.358152 0
M  V30 6 C 2.762244 0.950155 1.173364 0
M  V30 7 C 3.831966 1.083934 2.251432 0
M  V30 8 N 4.443515 2.375884 2.146169 0
M  V30 9 C 4.125918 3.074528 0.943247 0
M  V30 10 C 2.655117 3.325673 0.721881 0
M  V30 11 C -0.360880 1.101813 0.967299 0
M  V30 12 C -0.346103 0.039852 2.002239 0
M  V30 13 C -1.442832 1.268666 0.104833 0
M  V30 14 N -2.690267 0.553122 -0.044796 0
M  V30 15 C -2.231469 -0.491364 -0.933261 0
M  V30 16 N -2.042368 -0.530616 -2.256776 0
M  V30 17 C -1.587901 -1.624380 -2.846037 0
M  V30 18 C -1.322613 -2.722570 -2.015749 0
M  V30 19 Cl -0.714988 -4.163400 -2.831329 0
M  V30 20 C -1.500598 -2.739078 -0.647234 0
M  V30 21 C -1.190763 -3.940637 0.101412 0
M  V30 22 C 0.101270 -4.478452 0.057795 0
M  V30 23 N 0.095726 -5.561974 0.841329 0
M  V30 24 N -1.119226 -5.757411 1.388149 0
M  V30 25 C -1.523135 -6.743511 2.236714 0
M  V30 26 C -2.864898 -6.723012 2.672019 0
M  V30 27 C -3.622009 -5.693535 2.180438 0
M  V30 28 C -3.257566 -4.685277 1.329205 0
M  V30 29 C -1.914598 -4.749865 0.926040 0
M  V30 30 N -1.964000 -1.567745 -0.180042 0
M  V30 31 H -1.507683 2.641182 -2.786477 0
M  V30 32 H -1.800874 4.048111 -1.663187 0
M  V30 33 H -2.943919 2.695293 -1.611521 0
M  V30 34 H 1.764849 2.393074 2.427283 0
M  V30 35 H 3.289889 0.986895 0.200364 0
M  V30 36 H 2.160178 0.053507 1.299112 0
M  V30 37 H 3.284229 1.079030 3.228782 0
M  V30 38 H 4.527249 0.250101 2.273316 0
M  V30 39 H 4.453949 2.932673 3.012078 0
M  V30 40 H 4.643621 4.068666 0.997779 0
M  V30 41 H 4.592024 2.540036 0.087525 0
M  V30 42 H 2.322660 4.329680 1.040585 0
M  V30 43 H 2.455856 3.221861 -0.389369 0
M  V30 44 H 0.279354 0.427402 2.841506 0
M  V30 45 H 0.029610 -0.923224 1.664821 0
M  V30 46 H -1.368104 -0.067766 2.475852 0
M  V30 47 H -3.636712 0.726122 0.356159 0
M  V30 48 H -1.458309 -1.582522 -3.910891 0
M  V30 49 H 0.988475 -4.151343 -0.474148 0
M  V30 50 H -0.827298 -7.506256 2.557875 0
M  V30 51 H -3.231780 -7.483297 3.342255 0
M  V30 52 H -4.648489 -5.697818 2.526487 0
M  V30 53 H -3.839525 -3.891271 0.949819 0
M  V30 END ATOM
M  V30 BEGIN BOND
M  V30 1 1 1 2
M  V30 2 2 2 3
M  V30 3 1 3 4
M  V30 4 1 4 5
M  V30 5 1 5 6
M  V30 6 1 6 7
M  V30 7 1 7 8
M  V30 8 1 8 9
M  V30 9 1 9 10
M  V30 10 1 4 11
M  V30 11 1 11 12
M  V30 12 2 11 13
M  V30 13 1 13 14
M  V30 14 1 14 15
M  V30 15 2 15 16
M  V30 16 1 16 17
M  V30 17 2 17 18
M  V30 18 1 18 19
M  V30 19 1 18 20
M  V30 20 1 20 21
M  V30 21 1 21 22
M  V30 22 2 22 23
M  V30 23 1 23 24
M  V30 24 1 24 25
M  V30 25 2 25 26
M  V30 26 1 26 27
M  V30 27 2 27 28
M  V30 28 1 28 29
M  V30 29 2 20 30
M  V30 30 1 13 2
M  V30 31 1 30 15
M  V30 32 1 10 5
M  V30 33 2 29 21
M  V30 34 1 29 24
M  V30 35 1 1 31
M  V30 36 1 1 32
M  V30 37 1 1 33
M  V30 38 1 5 34
M  V30 39 1 6 35
M  V30 40 1 6 36
M  V30 41 1 7 37
M  V30 42 1 7 38
M  V30 43 1 8 39
M  V30 44 1 9 40
M  V30 45 1 9 41
M  V30 46 1 10 42
M  V30 47 1 10 43
M  V30 48 1 12 44
M  V30 49 1 12 45
M  V30 50 1 12 46
M  V30 51 1 14 47
M  V30 52 1 17 48
M  V30 53 1 22 49
M  V30 54 1 25 50
M  V30 55 1 26 51
M  V30 56 1 27 52
M  V30 57 1 28 53
M  V30 END BOND
M  V30 END CTAB
M  END
>  <Dataset>  (70) 
ChEMBL_Kinases

>  <Ligand_Instance>  (70) 
nan

>  <PDB_ID>  (70) 
nan

>  <Standardized_SMILES>  (70) 
Cc1nn(C2CCNCC2)c(C)c1Nc1ncc(Cl)c(-c2cnn3ccccc23)n1

>  <Name>  (70) 
nan

>  <Pocket>  (70) 
nan

>  <ATP_Site>  (70) 
nan

>  <Peripheral>  (70) 
nan

>  <Num_H_Atoms_ProtBoundConf>  (70) 
nan

>  <Num_Resolved_Atoms>  (70) 
nan

>  <Num_Not_Resolved_Atoms>  (70) 
nan

$$$$
CHEMBL3824282
     RDKit          3D

  0  0  0  0  0  0  0  0  0  0999 V3000
M  V30 BEGIN CTAB
M  V30 COUNTS 46 49 0 0 0
M  V30 BEGIN ATOM
M  V30 1 C -2.361059 -7.286263 0.972279 0
M  V30 2 N -1.662215 -6.270777 0.259026 0
M  V30 3 C -0.314686 -6.050489 0.617701 0
M  V30 4 C 0.267925 -4.713288 0.414264 0
M  V30 5 N -0.530689 -3.731747 -0.245273 0
M  V30 6 C -0.333257 -2.336475 -0.085505 0
M  V30 7 C -1.102187 -1.357533 -0.669339 0
M  V30 8 C -0.910883 -0.001911 -0.518095 0
M  V30 9 C 0.134558 0.420610 0.282342 0
M  V30 10 C 0.343091 1.860035 0.446081 0
M  V30 11 C 1.320958 2.488396 1.195668 0
M  V30 12 C 1.096639 3.840678 1.027930 0
M  V30 13 C 1.877786 4.927712 1.629347 0
M  V30 14 C 2.959486 4.701781 2.455498 0
M  V30 15 C 3.698485 5.725436 3.025663 0
M  V30 16 C 3.343184 7.035451 2.760224 0
M  V30 17 C 2.252610 7.263959 1.927174 0
M  V30 18 C 1.522137 6.234048 1.363569 0
M  V30 19 N 0.018982 3.989745 0.204275 0
M  V30 20 N -0.430483 2.791382 -0.142788 0
M  V30 21 C 0.947921 -0.507322 0.900495 0
M  V30 22 C 0.693402 -1.869526 0.700842 0
M  V30 23 C -1.543058 -4.315732 -1.081453 0
M  V30 24 C -2.421004 -5.156361 -0.182341 0
M  V30 25 H -3.130718 -6.906213 1.678803 0
M  V30 26 H -2.790155 -8.079145 0.308825 0
M  V30 27 H -1.630605 -7.836873 1.615560 0
M  V30 28 H 0.303862 -6.778305 0.012462 0
M  V30 29 H -0.189186 -6.432002 1.672456 0
M  V30 30 H 0.510866 -4.305607 1.440591 0
M  V30 31 H 1.267132 -4.723599 -0.092621 0
M  V30 32 H -1.928209 -1.648758 -1.301238 0
M  V30 33 H -1.564889 0.701943 -1.015307 0
M  V30 34 H 2.062829 1.984840 1.761754 0
M  V30 35 H 3.254935 3.680504 2.676954 0
M  V30 36 H 4.528152 5.529572 3.658909 0
M  V30 37 H 3.911547 7.853326 3.199360 0
M  V30 38 H 2.011345 8.318945 1.747457 0
M  V30 39 H 0.695945 6.519743 0.733292 0
M  V30 40 H -1.257713 2.721273 -0.775525 0
M  V30 41 H 1.755426 -0.136981 1.518414 0
M  V30 42 H 1.390105 -2.492197 1.230212 0
M  V30 43 H -2.146489 -3.628252 -1.664663 0
M  V30 44 H -1.020548 -5.006982 -1.773369 0
M  V30 45 H -2.687590 -4.528698 0.696840 0
M  V30 46 H -3.325388 -5.534810 -0.698847 0
M  V30 END ATOM
M  V30 BEGIN BOND
M  V30 1 1 1 2
M  V30 2 1 2 3
M  V30 3 1 3 4
M  V30 4 1 4 5
M  V30 5 1 5 6
M  V30 6 2 6 7
M  V30 7 1 7 8
M  V30 8 2 8 9
M  V30 9 1 9 10
M  V30 10 2 10 11
M  V30 11 1 11 12
M  V30 12 1 12 13
M  V30 13 2 13 14
M  V30 14 1 14 15
M  V30 15 2 15 16
M  V30 16 1 16 17
M  V30 17 2 17 18
M  V30 18 2 12 19
M  V30 19 1 19 20
M  V30 20 1 9 21
M  V30 21 2 21 22
M  V30 22 1 5 23
M  V30 23 1 23 24
M  V30 24 1 24 2
M  V30 25 1 22 6
M  V30 26 1 20 10
M  V30 27 1 18 13
M  V30 28 1 1 25
M  V30 29 1 1 26
M  V30 30 1 1 27
M  V30 31 1 3 28
M  V30 32 1 3 29
M  V30 33 1 4 30
M  V30 34 1 4 31
M  V30 35 1 7 32
M  V30 36 1 8 33
M  V30 37 1 11 34
M  V30 38 1 14 35
M  V30 39 1 15 36
M  V30 40 1 16 37
M  V30 41 1 17 38
M  V30 42 1 18 39
M  V30 43 1 20 40
M  V30 44 1 21 41
M  V30 45 1 22 42
M  V30 46 1 23 43
M  V30 47 1 23 44
M  V30 48 1 24 45
M  V30 49 1 24 46
M  V30 END BOND
M  V30 END CTAB
M  END
>  <Dataset>  (71) 
ChEMBL_Kinases

>  <Ligand_Instance>  (71) 
nan

>  <PDB_ID>  (71) 
nan

>  <Standardized_SMILES>  (71) 
CN1CCN(c2ccc(-c3cc(-c4ccccc4)n[nH]3)cc2)CC1

>  <Name>  (71) 
nan

>  <Pocket>  (71) 
nan

>  <ATP_Site>  (71) 
nan

>  <Peripheral>  (71) 
nan

>  <Num_H_Atoms_ProtBoundConf>  (71) 
nan

>  <Num_Resolved_Atoms>  (71) 
nan

>  <Num_Not_Resolved_Atoms>  (71) 
nan

$$$$
CHEMBL3824280
     RDKit          3D

  0  0  0  0  0  0  0  0  0  0999 V3000
M  V30 BEGIN CTAB
M  V30 COUNTS 36 38 0 0 0
M  V30 BEGIN ATOM
M  V30 1 C 1.828677 -6.109131 3.539760 0
M  V30 2 S 2.795901 -4.603979 3.505392 0
M  V30 3 O 2.692369 -3.893588 4.821478 0
M  V30 4 O 4.218979 -4.983764 3.232161 0
M  V30 5 C 2.128794 -3.589271 2.273566 0
M  V30 6 C 1.120059 -2.700272 2.631850 0
M  V30 7 C 0.512380 -1.848902 1.762044 0
M  V30 8 C 0.918707 -1.859263 0.421787 0
M  V30 9 N 0.306796 -0.980047 -0.526759 0
M  V30 10 C -0.076457 0.268087 -0.135190 0
M  V30 11 C -0.629113 0.871513 -1.262546 0
M  V30 12 C -1.168801 2.250914 -1.244942 0
M  V30 13 C -0.518336 3.120812 -0.359663 0
M  V30 14 C -0.970821 4.428085 -0.291272 0
M  V30 15 C -2.030351 4.808701 -1.090079 0
M  V30 16 O -2.413014 6.136256 -0.952788 0
M  V30 17 C -2.682619 3.967085 -1.966737 0
M  V30 18 C -2.226307 2.666062 -2.029574 0
M  V30 19 C -0.557978 -0.050962 -2.312112 0
M  V30 20 N 0.020413 -1.158207 -1.804845 0
M  V30 21 C 1.912208 -2.721374 0.022335 0
M  V30 22 C 2.516540 -3.583351 0.940238 0
M  V30 23 H 1.707791 -6.506277 2.523314 0
M  V30 24 H 0.807158 -5.899245 3.964836 0
M  V30 25 H 2.317025 -6.868749 4.167358 0
M  V30 26 H 0.756486 -2.635033 3.640215 0
M  V30 27 H -0.278859 -1.156680 2.055573 0
M  V30 28 H 0.010008 0.727119 0.825431 0
M  V30 29 H 0.305826 2.803479 0.255167 0
M  V30 30 H -0.468953 5.103605 0.391479 0
M  V30 31 H -3.069888 6.487776 -0.275745 0
M  V30 32 H -3.510641 4.301438 -2.577843 0
M  V30 33 H -2.671928 1.929339 -2.686609 0
M  V30 34 H -0.919655 0.158874 -3.309360 0
M  V30 35 H 2.231920 -2.736296 -1.009560 0
M  V30 36 H 3.299352 -4.271628 0.656624 0
M  V30 END ATOM
M  V30 BEGIN BOND
M  V30 1 1 1 2
M  V30 2 2 2 3
M  V30 3 2 2 4
M  V30 4 1 2 5
M  V30 5 2 5 6
M  V30 6 1 6 7
M  V30 7 2 7 8
M  V30 8 1 8 9
M  V30 9 1 9 10
M  V30 10 2 10 11
M  V30 11 1 11 12
M  V30 12 2 12 13
M  V30 13 1 13 14
M  V30 14 2 14 15
M  V30 15 1 15 16
M  V30 16 1 15 17
M  V30 17 2 17 18
M  V30 18 1 11 19
M  V30 19 2 19 20
M  V30 20 1 8 21
M  V30 21 2 21 22
M  V30 22 1 22 5
M  V30 23 1 20 9
M  V30 24 1 18 12
M  V30 25 1 1 23
M  V30 26 1 1 24
M  V30 27 1 1 25
M  V30 28 1 6 26
M  V30 29 1 7 27
M  V30 30 1 10 28
M  V30 31 1 13 29
M  V30 32 1 14 30
M  V30 33 1 16 31
M  V30 34 1 17 32
M  V30 35 1 18 33
M  V30 36 1 19 34
M  V30 37 1 21 35
M  V30 38 1 22 36
M  V30 END BOND
M  V30 END CTAB
M  END
>  <Dataset>  (72) 
ChEMBL_Kinases

>  <Ligand_Instance>  (72) 
nan

>  <PDB_ID>  (72) 
nan

>  <Standardized_SMILES>  (72) 
CS(=O)(=O)c1ccc(-n2cc(-c3ccc(O)cc3)cn2)cc1

>  <Name>  (72) 
nan

>  <Pocket>  (72) 
nan

>  <ATP_Site>  (72) 
nan

>  <Peripheral>  (72) 
nan

>  <Num_H_Atoms_ProtBoundConf>  (72) 
nan

>  <Num_Resolved_Atoms>  (72) 
nan

>  <Num_Not_Resolved_Atoms>  (72) 
nan

$$$$
CHEMBL3824264
     RDKit          3D

  0  0  0  0  0  0  0  0  0  0999 V3000
M  V30 BEGIN CTAB
M  V30 COUNTS 52 56 0 0 0
M  V30 BEGIN ATOM
M  V30 1 O -0.288133 -6.718804 -3.210391 0
M  V30 2 C 0.221571 -5.930660 -2.379178 0
M  V30 3 N 1.239119 -6.157336 -1.418912 0
M  V30 4 C 1.479558 -4.941179 -0.695146 0
M  V30 5 C 2.397385 -4.764579 0.323353 0
M  V30 6 C 2.445086 -3.482778 0.876838 0
M  V30 7 C 1.623510 -2.456637 0.430646 0
M  V30 8 N 1.701408 -1.178617 1.026487 0
M  V30 9 C 2.404034 0.043617 0.892774 0
M  V30 10 O 3.210557 -0.054869 -0.068186 0
M  V30 11 C 2.186475 1.189449 1.754728 0
M  V30 12 C 3.007143 2.255495 1.401173 0
M  V30 13 C 2.964766 3.448380 2.090671 0
M  V30 14 C 2.108824 3.632310 3.156341 0
M  V30 15 N 1.330649 2.582603 3.470575 0
M  V30 16 C 0.393757 2.664977 4.572418 0
M  V30 17 C -0.950421 3.169257 4.141934 0
M  V30 18 C -2.026088 2.416497 3.728458 0
M  V30 19 C -3.202037 3.039031 3.363513 0
M  V30 20 C -3.279076 4.405366 3.419323 0
M  V30 21 F -4.480099 4.918868 3.039781 0
M  V30 22 C -2.234531 5.207792 3.825057 0
M  V30 23 F -2.391835 6.552740 3.852687 0
M  V30 24 C -1.069418 4.555074 4.184621 0
M  V30 25 C 1.345668 1.410291 2.823204 0
M  V30 26 O 0.636066 0.429003 3.097428 0
M  V30 27 C 0.735507 -2.719265 -0.591230 0
M  V30 28 C 0.636584 -3.964112 -1.182752 0
M  V30 29 C -0.191566 -4.545237 -2.264056 0
M  V30 30 C -1.097034 -3.867175 -2.948434 0
M  V30 31 C -1.897811 -4.431747 -4.022348 0
M  V30 32 C -1.799813 -5.184049 -5.171817 0
M  V30 33 N -3.011577 -5.390512 -5.714250 0
M  V30 34 C -3.910818 -4.775162 -4.926228 0
M  V30 35 N -3.245665 -4.209541 -3.927349 0
M  V30 36 H 1.668352 -7.116487 -1.351996 0
M  V30 37 H 3.037845 -5.567010 0.669485 0
M  V30 38 H 3.150454 -3.281299 1.685363 0
M  V30 39 H 0.980639 -1.347118 1.745723 0
M  V30 40 H 3.726971 2.257535 0.587950 0
M  V30 41 H 3.588992 4.288930 1.837417 0
M  V30 42 H 2.013672 4.533059 3.748381 0
M  V30 43 H 0.293794 1.665397 5.068176 0
M  V30 44 H 0.829891 3.322300 5.354825 0
M  V30 45 H -1.868307 1.352825 3.719147 0
M  V30 46 H -4.021958 2.396539 3.044104 0
M  V30 47 H -0.253469 5.207165 4.502930 0
M  V30 48 H 0.067726 -1.931311 -0.974063 0
M  V30 49 H -1.230069 -2.810628 -2.669994 0
M  V30 50 H -0.816529 -5.486877 -5.487884 0
M  V30 51 H -4.944358 -4.840125 -5.217312 0
M  V30 52 H -3.851051 -3.687928 -3.230300 0
M  V30 END ATOM
M  V30 BEGIN BOND
M  V30 1 2 1 2
M  V30 2 1 2 3
M  V30 3 1 3 4
M  V30 4 2 4 5
M  V30 5 1 5 6
M  V30 6 2 6 7
M  V30 7 1 7 8
M  V30 8 1 8 9
M  V30 9 2 9 10
M  V30 10 1 9 11
M  V30 11 2 11 12
M  V30 12 1 12 13
M  V30 13 2 13 14
M  V30 14 1 14 15
M  V30 15 1 15 16
M  V30 16 1 16 17
M  V30 17 2 17 18
M  V30 18 1 18 19
M  V30 19 2 19 20
M  V30 20 1 20 21
M  V30 21 1 20 22
M  V30 22 1 22 23
M  V30 23 2 22 24
M  V30 24 1 15 25
M  V30 25 2 25 26
M  V30 26 1 7 27
M  V30 27 2 27 28
M  V30 28 1 28 29
M  V30 29 2 29 30
M  V30 30 1 30 31
M  V30 31 2 31 32
M  V30 32 1 32 33
M  V30 33 2 33 34
M  V30 34 1 34 35
M  V30 35 1 29 2
M  V30 36 1 35 31
M  V30 37 1 28 4
M  V30 38 1 25 11
M  V30 39 1 24 17
M  V30 40 1 3 36
M  V30 41 1 5 37
M  V30 42 1 6 38
M  V30 43 1 8 39
M  V30 44 1 12 40
M  V30 45 1 13 41
M  V30 46 1 14 42
M  V30 47 1 16 43
M  V30 48 1 16 44
M  V30 49 1 18 45
M  V30 50 1 19 46
M  V30 51 1 24 47
M  V30 52 1 27 48
M  V30 53 1 30 49
M  V30 54 1 32 50
M  V30 55 1 34 51
M  V30 56 1 35 52
M  V30 END BOND
M  V30 END CTAB
M  END
>  <Dataset>  (73) 
ChEMBL_Kinases

>  <Ligand_Instance>  (73) 
nan

>  <PDB_ID>  (73) 
nan

>  <Standardized_SMILES>  (73) 
O=C1Nc2ccc(NC(=O)c3cccn(Cc4ccc(F)c(F)c4)c3=O)cc2/C1=C/c1cnc[nH]1

>  <Name>  (73) 
nan

>  <Pocket>  (73) 
nan

>  <ATP_Site>  (73) 
nan

>  <Peripheral>  (73) 
nan

>  <Num_H_Atoms_ProtBoundConf>  (73) 
nan

>  <Num_Resolved_Atoms>  (73) 
nan

>  <Num_Not_Resolved_Atoms>  (73) 
nan

$$$$
CHEMBL3824243
     RDKit          3D

  0  0  0  0  0  0  0  0  0  0999 V3000
M  V30 BEGIN CTAB
M  V30 COUNTS 50 54 0 0 0
M  V30 BEGIN ATOM
M  V30 1 C -2.428880 -0.182254 1.745318 0
M  V30 2 C -1.806544 -0.630901 0.466205 0
M  V30 3 C -0.974339 -1.864000 0.532056 0 CFG=2
M  V30 4 N -0.459461 -2.073306 -0.836540 0
M  V30 5 C 0.477099 -1.076918 -1.219424 0
M  V30 6 N 1.698862 -1.619605 -1.114302 0
M  V30 7 C 2.851619 -0.987824 -1.387418 0
M  V30 8 C 2.809188 0.324163 -1.811390 0
M  V30 9 C 1.554146 0.894486 -1.922868 0
M  V30 10 N 1.373374 2.238868 -2.348959 0
M  V30 11 C 1.522803 3.188125 -1.271932 0
M  V30 12 C 1.838485 2.909356 0.039594 0
M  V30 13 C 1.887164 4.089250 0.774459 0
M  V30 14 C 2.199777 4.280772 2.229728 0
M  V30 15 C 2.240735 3.134673 3.134548 0
M  V30 16 C 3.561144 3.754270 2.671982 0
M  V30 17 N 1.597246 5.044939 -0.127056 0
M  V30 18 N 1.384494 4.521791 -1.321351 0
M  V30 19 N 0.461712 0.195214 -1.632531 0
M  V30 20 C -1.695942 -3.094688 0.890018 0
M  V30 21 C -2.925949 -3.370179 1.402786 0
M  V30 22 C -3.421160 -4.619852 1.695275 0
M  V30 23 C -2.578750 -5.692807 1.440173 0
M  V30 24 N -2.784638 -6.995733 1.623381 0
M  V30 25 C -1.672618 -7.635217 1.229328 0
M  V30 26 C -0.732984 -6.701199 0.781083 0
M  V30 27 C -1.325859 -5.444415 0.920480 0
M  V30 28 N -0.905199 -4.189388 0.657315 0
M  V30 29 H -2.136798 0.893204 1.968896 0
M  V30 30 H -2.182144 -0.796051 2.631107 0
M  V30 31 H -3.553551 -0.128612 1.698266 0
M  V30 32 H -2.661613 -0.837019 -0.238981 0
M  V30 33 H -1.245811 0.217919 0.007014 0
M  V30 34 H -0.124390 -1.787832 1.244843 0
M  V30 35 H -0.650695 -2.807406 -1.573357 0
M  V30 36 H 3.855205 -1.390998 -1.317685 0
M  V30 37 H 3.658557 0.946501 -2.063052 0
M  V30 38 H 1.159313 2.577040 -3.304216 0
M  V30 39 H 2.030333 1.950870 0.495569 0
M  V30 40 H 1.968488 5.310563 2.598110 0
M  V30 41 H 2.003615 2.104331 2.751898 0
M  V30 42 H 1.960722 3.227776 4.210033 0
M  V30 43 H 4.175298 3.229393 1.919413 0
M  V30 44 H 4.122123 4.334196 3.454062 0
M  V30 45 H 1.564042 6.050375 0.155919 0
M  V30 46 H -3.501316 -2.478401 1.561599 0
M  V30 47 H -4.414093 -4.662580 2.093174 0
M  V30 48 H -3.661431 -7.427859 2.005722 0
M  V30 49 H -1.460652 -8.692656 1.226579 0
M  V30 50 H 0.250793 -6.871811 0.404394 0
M  V30 END ATOM
M  V30 BEGIN BOND
M  V30 1 1 1 2
M  V30 2 1 2 3
M  V30 3 1 3 4
M  V30 4 1 4 5
M  V30 5 2 5 6
M  V30 6 1 6 7
M  V30 7 2 7 8
M  V30 8 1 8 9
M  V30 9 1 9 10
M  V30 10 1 10 11
M  V30 11 1 11 12
M  V30 12 2 12 13
M  V30 13 1 13 14
M  V30 14 1 14 15
M  V30 15 1 15 16
M  V30 16 1 13 17
M  V30 17 1 17 18
M  V30 18 2 9 19
M  V30 19 1 3 20
M  V30 20 2 20 21
M  V30 21 1 21 22
M  V30 22 2 22 23
M  V30 23 1 23 24
M  V30 24 1 24 25
M  V30 25 2 25 26
M  V30 26 1 26 27
M  V30 27 2 27 28
M  V30 28 1 19 5
M  V30 29 1 28 20
M  V30 30 2 18 11
M  V30 31 1 27 23
M  V30 32 1 16 14
M  V30 33 1 1 29
M  V30 34 1 1 30
M  V30 35 1 1 31
M  V30 36 1 2 32
M  V30 37 1 2 33
M  V30 38 1 3 34 CFG=1
M  V30 39 1 4 35
M  V30 40 1 7 36
M  V30 41 1 8 37
M  V30 42 1 10 38
M  V30 43 1 12 39
M  V30 44 1 14 40
M  V30 45 1 15 41
M  V30 46 1 15 42
M  V30 47 1 16 43
M  V30 48 1 16 44
M  V30 49 1 17 45
M  V30 50 1 21 46
M  V30 51 1 22 47
M  V30 52 1 24 48
M  V30 53 1 25 49
M  V30 54 1 26 50
M  V30 END BOND
M  V30 END CTAB
M  END
>  <Dataset>  (74) 
ChEMBL_Kinases

>  <Ligand_Instance>  (74) 
nan

>  <PDB_ID>  (74) 
nan

>  <Standardized_SMILES>  (74) 
CC[C@H](Nc1nccc(Nc2cc(C3CC3)[nH]n2)n1)c1ccc2[nH]ccc2n1

>  <Name>  (74) 
nan

>  <Pocket>  (74) 
nan

>  <ATP_Site>  (74) 
nan

>  <Peripheral>  (74) 
nan

>  <Num_H_Atoms_ProtBoundConf>  (74) 
nan

>  <Num_Resolved_Atoms>  (74) 
nan

>  <Num_Not_Resolved_Atoms>  (74) 
nan

$$$$
CHEMBL3824224
     RDKit          3D

  0  0  0  0  0  0  0  0  0  0999 V3000
M  V30 BEGIN CTAB
M  V30 COUNTS 47 51 0 0 0
M  V30 BEGIN ATOM
M  V30 1 C -0.113912 -1.807486 1.590418 0
M  V30 2 C -0.325105 -2.901782 0.563775 0 CFG=2
M  V30 3 N 0.414868 -2.539439 -0.636299 0
M  V30 4 C 1.790255 -2.371101 -0.303494 0
M  V30 5 N 2.679431 -3.406204 -0.247737 0
M  V30 6 C 3.979038 -3.152562 0.069321 0
M  V30 7 C 4.404127 -1.868973 0.333618 0
M  V30 8 C 3.497178 -0.831037 0.274508 0
M  V30 9 N 3.790959 0.562957 0.519147 0
M  V30 10 C 2.820399 1.606555 0.473813 0
M  V30 11 C 2.701844 2.362664 1.640679 0
M  V30 12 C 1.707975 3.308979 1.381689 0
M  V30 13 C 1.224307 4.358199 2.325457 0
M  V30 14 C 2.254272 5.251147 2.916530 0
M  V30 15 C 1.460741 4.286308 3.768810 0
M  V30 16 N 1.280868 3.101467 0.126545 0
M  V30 17 N 1.941313 2.087484 -0.418603 0
M  V30 18 N 2.209572 -1.136066 -0.047177 0
M  V30 19 C -1.768388 -2.996835 0.335799 0
M  V30 20 N -2.549412 -2.392877 -0.556398 0
M  V30 21 C -3.868899 -2.530764 -0.696493 0
M  V30 22 C -4.813981 -1.997891 -1.542664 0
M  V30 23 C -6.050573 -2.541753 -1.182510 0
M  V30 24 N -5.874035 -3.380527 -0.151002 0
M  V30 25 C -4.575488 -3.387599 0.154333 0
M  V30 26 C -3.846166 -4.066967 1.124738 0
M  V30 27 C -2.477477 -3.854238 1.186198 0
M  V30 28 F -1.826581 -4.553080 2.158729 0
M  V30 29 H 0.858466 -1.909230 2.077549 0
M  V30 30 H -0.964564 -1.826269 2.332783 0
M  V30 31 H -0.248815 -0.843192 1.062251 0
M  V30 32 H 0.090189 -3.855466 0.947104 0
M  V30 33 H 0.267283 -2.364797 -1.656825 0
M  V30 34 H 4.725517 -3.929469 0.129221 0
M  V30 35 H 5.408128 -1.566887 0.593396 0
M  V30 36 H 4.781655 0.806098 0.744295 0
M  V30 37 H 3.192281 2.342848 2.599521 0
M  V30 38 H 0.307675 4.894823 1.973970 0
M  V30 39 H 1.999627 6.336135 3.106741 0
M  V30 40 H 3.299940 5.046767 2.688887 0
M  V30 41 H 2.092463 3.553393 4.276464 0
M  V30 42 H 0.683865 4.719514 4.456204 0
M  V30 43 H 0.534452 3.626148 -0.413208 0
M  V30 44 H -4.572925 -1.284656 -2.332819 0
M  V30 45 H -6.947621 -2.254629 -1.725357 0
M  V30 46 H -6.643937 -3.904216 0.291382 0
M  V30 47 H -4.340723 -4.739765 1.808311 0
M  V30 END ATOM
M  V30 BEGIN BOND
M  V30 1 1 1 2
M  V30 2 1 2 3
M  V30 3 1 3 4
M  V30 4 2 4 5
M  V30 5 1 5 6
M  V30 6 2 6 7
M  V30 7 1 7 8
M  V30 8 1 8 9
M  V30 9 1 9 10
M  V30 10 1 10 11
M  V30 11 2 11 12
M  V30 12 1 12 13
M  V30 13 1 13 14
M  V30 14 1 14 15
M  V30 15 1 12 16
M  V30 16 1 16 17
M  V30 17 2 8 18
M  V30 18 1 2 19
M  V30 19 2 19 20
M  V30 20 1 20 21
M  V30 21 1 21 22
M  V30 22 2 22 23
M  V30 23 1 23 24
M  V30 24 1 24 25
M  V30 25 1 25 26
M  V30 26 2 26 27
M  V30 27 1 27 28
M  V30 28 1 18 4
M  V30 29 1 27 19
M  V30 30 2 17 10
M  V30 31 2 25 21
M  V30 32 1 15 13
M  V30 33 1 1 29
M  V30 34 1 1 30
M  V30 35 1 1 31
M  V30 36 1 2 32 CFG=1
M  V30 37 1 3 33
M  V30 38 1 6 34
M  V30 39 1 7 35
M  V30 40 1 9 36
M  V30 41 1 11 37
M  V30 42 1 13 38
M  V30 43 1 14 39
M  V30 44 1 14 40
M  V30 45 1 15 41
M  V30 46 1 15 42
M  V30 47 1 16 43
M  V30 48 1 22 44
M  V30 49 1 23 45
M  V30 50 1 24 46
M  V30 51 1 26 47
M  V30 END BOND
M  V30 END CTAB
M  END
>  <Dataset>  (75) 
ChEMBL_Kinases

>  <Ligand_Instance>  (75) 
nan

>  <PDB_ID>  (75) 
nan

>  <Standardized_SMILES>  (75) 
C[C@H](Nc1nccc(Nc2cc(C3CC3)[nH]n2)n1)c1nc2cc[nH]c2cc1F

>  <Name>  (75) 
nan

>  <Pocket>  (75) 
nan

>  <ATP_Site>  (75) 
nan

>  <Peripheral>  (75) 
nan

>  <Num_H_Atoms_ProtBoundConf>  (75) 
nan

>  <Num_Resolved_Atoms>  (75) 
nan

>  <Num_Not_Resolved_Atoms>  (75) 
nan

$$$$
CHEMBL3823918
     RDKit          3D

  0  0  0  0  0  0  0  0  0  0999 V3000
M  V30 BEGIN CTAB
M  V30 COUNTS 58 61 0 0 0
M  V30 BEGIN ATOM
M  V30 1 C 2.329713 -2.857426 2.316003 0
M  V30 2 C 3.046426 -2.262084 3.529770 0
M  V30 3 C 2.487165 -2.960494 4.753985 0
M  V30 4 C 2.814233 -0.774959 3.587004 0
M  V30 5 O 3.258172 -0.055602 2.489099 0
M  V30 6 C 4.491442 0.119541 1.962553 0
M  V30 7 C 5.784482 -0.273094 2.222616 0
M  V30 8 N 6.834413 0.091109 1.472576 0
M  V30 9 C 6.705778 0.871997 0.403426 0
M  V30 10 C 5.455365 1.321031 0.055137 0
M  V30 11 C 4.350600 0.944687 0.834335 0
M  V30 12 C 3.111275 1.540397 0.277520 0
M  V30 13 C 2.753567 2.789710 -0.195347 0
M  V30 14 N 1.453708 2.687597 -0.568638 0
M  V30 15 N 1.014811 1.446723 -0.345130 0
M  V30 16 C -0.309334 0.997565 -0.625398 0
M  V30 17 C -1.267163 0.932138 0.365550 0
M  V30 18 C -2.545024 0.496568 0.085383 0
M  V30 19 C -2.937902 0.108418 -1.170392 0
M  V30 20 N -4.245190 -0.335680 -1.451120 0
M  V30 21 C -5.356667 -0.452695 -0.535380 0
M  V30 22 C -5.788889 -1.886788 -0.322822 0
M  V30 23 N -5.349169 -2.758193 -1.377894 0
M  V30 24 C -4.119060 -3.447230 -1.071779 0
M  V30 25 C -5.368301 -2.153022 -2.673770 0
M  V30 26 C -4.751258 -0.773906 -2.732504 0
M  V30 27 C -1.977010 0.177561 -2.148268 0
M  V30 28 C -0.701132 0.607640 -1.890701 0
M  V30 29 C 2.011774 0.680201 0.185981 0
M  V30 30 H 1.446847 -2.205963 2.145432 0
M  V30 31 H 2.994935 -2.737940 1.439018 0
M  V30 32 H 2.023090 -3.903846 2.480526 0
M  V30 33 H 4.127393 -2.448806 3.455587 0
M  V30 34 H 2.704243 -2.406605 5.673709 0
M  V30 35 H 1.378672 -3.059540 4.692497 0
M  V30 36 H 2.872170 -4.006310 4.759328 0
M  V30 37 H 1.690307 -0.623736 3.621730 0
M  V30 38 H 3.280997 -0.325810 4.492940 0
M  V30 39 H 5.817713 -0.893696 3.103354 0
M  V30 40 H 7.598863 1.134259 -0.167704 0
M  V30 41 H 5.431596 1.949461 -0.822941 0
M  V30 42 H 3.485259 3.567217 -0.193848 0
M  V30 43 H -0.965395 1.236943 1.360667 0
M  V30 44 H -3.204414 0.487986 0.937250 0
M  V30 45 H -6.226312 0.169598 -0.903406 0
M  V30 46 H -5.071164 -0.051554 0.444665 0
M  V30 47 H -5.472027 -2.284623 0.649696 0
M  V30 48 H -6.898233 -1.902034 -0.331219 0
M  V30 49 H -3.884397 -4.097650 -1.937592 0
M  V30 50 H -4.275822 -4.089080 -0.196783 0
M  V30 51 H -3.269692 -2.775879 -0.851357 0
M  V30 52 H -4.783363 -2.829776 -3.362077 0
M  V30 53 H -6.405315 -2.196689 -3.060878 0
M  V30 54 H -4.022829 -0.685949 -3.545061 0
M  V30 55 H -5.601883 -0.093353 -3.039645 0
M  V30 56 H -2.142718 -0.095165 -3.178864 0
M  V30 57 H 0.067768 0.667991 -2.650058 0
M  V30 58 H 1.861494 -0.359015 0.440504 0
M  V30 END ATOM
M  V30 BEGIN BOND
M  V30 1 1 1 2
M  V30 2 1 2 3
M  V30 3 1 2 4
M  V30 4 1 4 5
M  V30 5 1 5 6
M  V30 6 2 6 7
M  V30 7 1 7 8
M  V30 8 2 8 9
M  V30 9 1 9 10
M  V30 10 2 10 11
M  V30 11 1 11 12
M  V30 12 1 12 13
M  V30 13 2 13 14
M  V30 14 1 14 15
M  V30 15 1 15 16
M  V30 16 2 16 17
M  V30 17 1 17 18
M  V30 18 2 18 19
M  V30 19 1 19 20
M  V30 20 1 20 21
M  V30 21 1 21 22
M  V30 22 1 22 23
M  V30 23 1 23 24
M  V30 24 1 23 25
M  V30 25 1 25 26
M  V30 26 1 19 27
M  V30 27 2 27 28
M  V30 28 1 15 29
M  V30 29 1 11 6
M  V30 30 2 29 12
M  V30 31 1 28 16
M  V30 32 1 26 20
M  V30 33 1 1 30
M  V30 34 1 1 31
M  V30 35 1 1 32
M  V30 36 1 2 33
M  V30 37 1 3 34
M  V30 38 1 3 35
M  V30 39 1 3 36
M  V30 40 1 4 37
M  V30 41 1 4 38
M  V30 42 1 7 39
M  V30 43 1 9 40
M  V30 44 1 10 41
M  V30 45 1 13 42
M  V30 46 1 17 43
M  V30 47 1 18 44
M  V30 48 1 21 45
M  V30 49 1 21 46
M  V30 50 1 22 47
M  V30 51 1 22 48
M  V30 52 1 24 49
M  V30 53 1 24 50
M  V30 54 1 24 51
M  V30 55 1 25 52
M  V30 56 1 25 53
M  V30 57 1 26 54
M  V30 58 1 26 55
M  V30 59 1 27 56
M  V30 60 1 28 57
M  V30 61 1 29 58
M  V30 END BOND
M  V30 END CTAB
M  END
>  <Dataset>  (76) 
ChEMBL_Kinases

>  <Ligand_Instance>  (76) 
nan

>  <PDB_ID>  (76) 
nan

>  <Standardized_SMILES>  (76) 
CC(C)COc1cnccc1-c1cnn(-c2ccc(N3CCN(C)CC3)cc2)c1

>  <Name>  (76) 
nan

>  <Pocket>  (76) 
nan

>  <ATP_Site>  (76) 
nan

>  <Peripheral>  (76) 
nan

>  <Num_H_Atoms_ProtBoundConf>  (76) 
nan

>  <Num_Resolved_Atoms>  (76) 
nan

>  <Num_Not_Resolved_Atoms>  (76) 
nan

$$$$
CHEMBL3824157
     RDKit          3D

  0  0  0  0  0  0  0  0  0  0999 V3000
M  V30 BEGIN CTAB
M  V30 COUNTS 58 62 0 0 0
M  V30 BEGIN ATOM
M  V30 1 C 1.290163 -1.090929 7.129492 0
M  V30 2 N 2.281494 -1.908185 6.455234 0
M  V30 3 C 3.318086 -1.143011 5.853539 0
M  V30 4 C 3.479738 -1.321003 4.370420 0
M  V30 5 N 2.235376 -1.404775 3.661035 0
M  V30 6 C 1.964797 -0.948674 2.337769 0
M  V30 7 C 0.718109 -1.074639 1.754620 0
M  V30 8 C 0.496151 -0.619993 0.468710 0
M  V30 9 C 1.486210 -0.026755 -0.290246 0
M  V30 10 N 1.201732 0.424931 -1.613421 0
M  V30 11 C -0.037730 0.820305 -1.998859 0
M  V30 12 C 0.028082 1.197583 -3.340424 0
M  V30 13 C -1.142601 1.685635 -4.096687 0
M  V30 14 C -1.058837 2.801850 -4.919289 0
M  V30 15 C -2.216629 3.183420 -5.590037 0
M  V30 16 N -3.389845 2.529672 -5.477358 0
M  V30 17 C -3.460165 1.450593 -4.678628 0
M  V30 18 C -2.353109 1.006711 -3.977079 0
M  V30 19 O -2.390586 -0.089504 -3.154523 0
M  V30 20 C -3.502488 -0.894704 -2.906376 0
M  V30 21 C -3.166132 -2.000746 -1.953606 0
M  V30 22 C -2.707311 -3.224519 -2.381675 0
M  V30 23 C -2.411169 -4.212240 -1.459407 0
M  V30 24 N -2.572843 -3.975560 -0.130124 0
M  V30 25 C -3.022660 -2.771339 0.262593 0
M  V30 26 C -3.340113 -1.734714 -0.591614 0
M  V30 27 C 1.349926 1.009091 -3.726828 0
M  V30 28 N 2.021268 0.536943 -2.635728 0
M  V30 29 C 2.742167 0.111986 0.267864 0
M  V30 30 C 2.934873 -0.352191 1.556398 0
M  V30 31 C 1.137890 -2.028541 4.389259 0
M  V30 32 C 1.630797 -2.822088 5.571233 0
M  V30 33 H 0.297484 -1.218758 6.682362 0
M  V30 34 H 1.323029 -1.427779 8.199782 0
M  V30 35 H 1.628579 -0.019684 7.130439 0
M  V30 36 H 4.287524 -1.475314 6.328254 0
M  V30 37 H 3.152610 -0.080731 6.091929 0
M  V30 38 H 4.041037 -0.466889 3.938700 0
M  V30 39 H 4.049569 -2.249051 4.108181 0
M  V30 40 H -0.100027 -1.530207 2.295980 0
M  V30 41 H -0.474999 -0.713543 0.003060 0
M  V30 42 H -0.930094 0.846206 -1.391439 0
M  V30 43 H -0.128566 3.333574 -5.018826 0
M  V30 44 H -2.180533 4.051123 -6.239044 0
M  V30 45 H -4.364456 0.873701 -4.536188 0
M  V30 46 H -4.363448 -0.363547 -2.488440 0
M  V30 47 H -3.750048 -1.418428 -3.868155 0
M  V30 48 H -2.575665 -3.422202 -3.434252 0
M  V30 49 H -2.048728 -5.190939 -1.725574 0
M  V30 50 H -3.162403 -2.550288 1.312159 0
M  V30 51 H -3.700797 -0.778770 -0.218103 0
M  V30 52 H 1.683302 1.227353 -4.733367 0
M  V30 53 H 3.531805 0.573452 -0.308591 0
M  V30 54 H 3.938781 -0.209437 1.922906 0
M  V30 55 H 0.334726 -1.332963 4.645835 0
M  V30 56 H 0.679407 -2.786755 3.701046 0
M  V30 57 H 0.721764 -3.209459 6.084009 0
M  V30 58 H 2.310112 -3.613126 5.248344 0
M  V30 END ATOM
M  V30 BEGIN BOND
M  V30 1 1 1 2
M  V30 2 1 2 3
M  V30 3 1 3 4
M  V30 4 1 4 5
M  V30 5 1 5 6
M  V30 6 2 6 7
M  V30 7 1 7 8
M  V30 8 2 8 9
M  V30 9 1 9 10
M  V30 10 1 10 11
M  V30 11 2 11 12
M  V30 12 1 12 13
M  V30 13 2 13 14
M  V30 14 1 14 15
M  V30 15 2 15 16
M  V30 16 1 16 17
M  V30 17 2 17 18
M  V30 18 1 18 19
M  V30 19 1 19 20
M  V30 20 1 20 21
M  V30 21 2 21 22
M  V30 22 1 22 23
M  V30 23 2 23 24
M  V30 24 1 24 25
M  V30 25 2 25 26
M  V30 26 1 12 27
M  V30 27 2 27 28
M  V30 28 1 9 29
M  V30 29 2 29 30
M  V30 30 1 5 31
M  V30 31 1 31 32
M  V30 32 1 32 2
M  V30 33 1 30 6
M  V30 34 1 28 10
M  V30 35 1 18 13
M  V30 36 1 26 21
M  V30 37 1 1 33
M  V30 38 1 1 34
M  V30 39 1 1 35
M  V30 40 1 3 36
M  V30 41 1 3 37
M  V30 42 1 4 38
M  V30 43 1 4 39
M  V30 44 1 7 40
M  V30 45 1 8 41
M  V30 46 1 11 42
M  V30 47 1 14 43
M  V30 48 1 15 44
M  V30 49 1 17 45
M  V30 50 1 20 46
M  V30 51 1 20 47
M  V30 52 1 22 48
M  V30 53 1 23 49
M  V30 54 1 25 50
M  V30 55 1 26 51
M  V30 56 1 27 52
M  V30 57 1 29 53
M  V30 58 1 30 54
M  V30 59 1 31 55
M  V30 60 1 31 56
M  V30 61 1 32 57
M  V30 62 1 32 58
M  V30 END BOND
M  V30 END CTAB
M  END
>  <Dataset>  (77) 
ChEMBL_Kinases

>  <Ligand_Instance>  (77) 
nan

>  <PDB_ID>  (77) 
nan

>  <Standardized_SMILES>  (77) 
CN1CCN(c2ccc(-n3cc(-c4ccncc4OCc4ccncc4)cn3)cc2)CC1

>  <Name>  (77) 
nan

>  <Pocket>  (77) 
nan

>  <ATP_Site>  (77) 
nan

>  <Peripheral>  (77) 
nan

>  <Num_H_Atoms_ProtBoundConf>  (77) 
nan

>  <Num_Resolved_Atoms>  (77) 
nan

>  <Num_Not_Resolved_Atoms>  (77) 
nan

$$$$
CHEMBL3824119
     RDKit          3D

  0  0  0  0  0  0  0  0  0  0999 V3000
M  V30 BEGIN CTAB
M  V30 COUNTS 59 63 0 0 0
M  V30 BEGIN ATOM
M  V30 1 O 2.535480 -1.604163 2.660917 0
M  V30 2 C 2.667046 -2.296381 3.742900 0
M  V30 3 C 3.565951 -1.205575 3.946124 0
M  V30 4 N 3.479223 -0.213579 2.860770 0
M  V30 5 C 2.329942 0.491377 2.739460 0
M  V30 6 O 1.325078 0.367004 3.531698 0
M  V30 7 C 1.368346 1.389861 2.262325 0
M  V30 8 C 2.348063 1.678539 1.165161 0
M  V30 9 C 2.230673 2.587597 0.055125 0
M  V30 10 C 1.040266 3.335028 -0.054742 0
M  V30 11 N 0.127041 3.099658 0.924795 0
M  V30 12 C -1.162929 3.708399 1.117187 0
M  V30 13 C -2.288265 3.001571 0.489833 0
M  V30 14 C -3.098748 2.147072 1.231183 0
M  V30 15 C -4.185534 1.445002 0.705745 0
M  V30 16 C -4.415595 1.658835 -0.645468 0
M  V30 17 F -5.470068 0.991505 -1.192745 0
M  V30 18 C -3.656898 2.489455 -1.444177 0
M  V30 19 F -3.945274 2.644016 -2.757772 0
M  V30 20 C -2.600156 3.146675 -0.846903 0
M  V30 21 C 0.487985 2.215027 1.822281 0
M  V30 22 O -0.291605 1.885227 2.826938 0
M  V30 23 N 1.830701 -3.427909 3.696432 0
M  V30 24 C 0.936057 -3.911520 2.721244 0
M  V30 25 C 0.029195 -4.815605 3.224820 0
M  V30 26 C -0.876933 -5.371439 2.314824 0
M  V30 27 C -0.909578 -5.065761 0.949363 0
M  V30 28 C 0.070417 -4.134656 0.583544 0
M  V30 29 C 0.996172 -3.543328 1.426525 0
M  V30 30 C -0.083166 -3.925711 -0.879213 0
M  V30 31 C 0.587354 -3.170902 -1.721835 0
M  V30 32 C 0.389332 -3.010286 -3.155988 0
M  V30 33 C 0.100512 -3.606066 -4.308973 0
M  V30 34 N 0.045379 -2.719656 -5.338742 0
M  V30 35 C 0.307156 -1.488440 -4.852871 0
M  V30 36 N 0.510490 -1.686332 -3.544088 0
M  V30 37 C -1.185278 -4.775761 -1.283785 0
M  V30 38 O -1.711714 -4.961112 -2.408249 0
M  V30 39 N -1.688967 -5.474688 -0.156288 0
M  V30 40 H 3.442753 -0.650160 4.904806 0
M  V30 41 H 4.652366 -1.491632 3.939686 0
M  V30 42 H 4.039377 0.174386 2.079947 0
M  V30 43 H 3.380295 1.407176 0.770654 0
M  V30 44 H 2.776515 2.957905 -0.834659 0
M  V30 45 H 0.627059 4.068864 -0.715792 0
M  V30 46 H -1.375413 3.946846 2.202220 0
M  V30 47 H -1.121053 4.742280 0.655165 0
M  V30 48 H -2.945486 1.963146 2.293577 0
M  V30 49 H -4.789184 0.790675 1.316324 0
M  V30 50 H -1.958863 3.824547 -1.433004 0
M  V30 51 H 2.204391 -3.718495 4.642606 0
M  V30 52 H -0.012069 -5.103035 4.261356 0
M  V30 53 H -1.606969 -6.088475 2.698515 0
M  V30 54 H 1.698749 -2.844832 1.004131 0
M  V30 55 H 1.390695 -2.634573 -1.183649 0
M  V30 56 H -0.037598 -4.655944 -4.360142 0
M  V30 57 H 0.313315 -0.642823 -5.501679 0
M  V30 58 H 0.733398 -0.772457 -3.026020 0
M  V30 59 H -2.480556 -6.161314 -0.111851 0
M  V30 END ATOM
M  V30 BEGIN BOND
M  V30 1 2 1 2
M  V30 2 1 2 3
M  V30 3 1 3 4
M  V30 4 1 4 5
M  V30 5 2 5 6
M  V30 6 1 5 7
M  V30 7 2 7 8
M  V30 8 1 8 9
M  V30 9 2 9 10
M  V30 10 1 10 11
M  V30 11 1 11 12
M  V30 12 1 12 13
M  V30 13 2 13 14
M  V30 14 1 14 15
M  V30 15 2 15 16
M  V30 16 1 16 17
M  V30 17 1 16 18
M  V30 18 1 18 19
M  V30 19 2 18 20
M  V30 20 1 11 21
M  V30 21 2 21 22
M  V30 22 1 2 23
M  V30 23 1 23 24
M  V30 24 2 24 25
M  V30 25 1 25 26
M  V30 26 2 26 27
M  V30 27 1 27 28
M  V30 28 2 28 29
M  V30 29 1 28 30
M  V30 30 2 30 31
M  V30 31 1 31 32
M  V30 32 2 32 33
M  V30 33 1 33 34
M  V30 34 2 34 35
M  V30 35 1 35 36
M  V30 36 1 30 37
M  V30 37 2 37 38
M  V30 38 1 37 39
M  V30 39 1 21 7
M  V30 40 1 29 24
M  V30 41 1 36 32
M  V30 42 1 20 13
M  V30 43 1 39 27
M  V30 44 1 3 40
M  V30 45 1 3 41
M  V30 46 1 4 42
M  V30 47 1 8 43
M  V30 48 1 9 44
M  V30 49 1 10 45
M  V30 50 1 12 46
M  V30 51 1 12 47
M  V30 52 1 14 48
M  V30 53 1 15 49
M  V30 54 1 20 50
M  V30 55 1 23 51
M  V30 56 1 25 52
M  V30 57 1 26 53
M  V30 58 1 29 54
M  V30 59 1 31 55
M  V30 60 1 33 56
M  V30 61 1 35 57
M  V30 62 1 36 58
M  V30 63 1 39 59
M  V30 END BOND
M  V30 END CTAB
M  END
>  <Dataset>  (78) 
ChEMBL_Kinases

>  <Ligand_Instance>  (78) 
nan

>  <PDB_ID>  (78) 
nan

>  <Standardized_SMILES>  (78) 
O=C(CNC(=O)c1cccn(Cc2ccc(F)c(F)c2)c1=O)Nc1ccc2c(c1)/C(=C/c1cnc[nH]1)C(=O)N2

>  <Name>  (78) 
nan

>  <Pocket>  (78) 
nan

>  <ATP_Site>  (78) 
nan

>  <Peripheral>  (78) 
nan

>  <Num_H_Atoms_ProtBoundConf>  (78) 
nan

>  <Num_Resolved_Atoms>  (78) 
nan

>  <Num_Not_Resolved_Atoms>  (78) 
nan

$$$$
CHEMBL495118
     RDKit          3D

  0  0  0  0  0  0  0  0  0  0999 V3000
M  V30 BEGIN CTAB
M  V30 COUNTS 49 53 0 0 0
M  V30 BEGIN ATOM
M  V30 1 C -2.759000 -7.556652 2.642122 0
M  V30 2 N -2.030875 -7.134787 1.451764 0
M  V30 3 C -1.695504 -5.782950 1.153659 0
M  V30 4 N -2.025380 -4.742160 1.959186 0
M  V30 5 O -1.592849 -3.619595 1.440540 0
M  V30 6 C -0.978143 -3.831643 0.312810 0
M  V30 7 C -0.337299 -3.062956 -0.648961 0
M  V30 8 C -0.337995 -1.630252 -0.338091 0
M  V30 9 C 0.711881 -1.112053 0.399151 0
M  V30 10 C 0.728602 0.243651 0.703629 0
M  V30 11 C -0.326299 0.991631 0.238493 0
M  V30 12 C -0.278094 2.332888 0.558341 0
M  V30 13 N 0.723798 3.020373 1.305020 0
M  V30 14 C 1.200710 2.868063 2.641621 0
M  V30 15 C 2.693955 2.905608 2.799652 0
M  V30 16 O 3.325158 3.772383 1.948161 0
M  V30 17 C 2.898460 3.643589 0.627729 0
M  V30 18 C 1.429391 4.090218 0.631994 0 CFG=2
M  V30 19 C 1.411539 5.386218 1.416424 0
M  V30 20 N -1.299887 3.122441 0.121619 0
M  V30 21 N -2.311119 2.639542 -0.585001 0
M  V30 22 C -2.398584 1.341267 -0.918840 0
M  V30 23 C -1.381356 0.493343 -0.497522 0
M  V30 24 C -1.404056 -0.851308 -0.803162 0
M  V30 25 C 0.226654 -3.642862 -1.766872 0
M  V30 26 Cl 0.999214 -2.527337 -2.885491 0
M  V30 27 C 0.155799 -5.007546 -1.937111 0
M  V30 28 C -0.470798 -5.810096 -1.007731 0
M  V30 29 C -1.021943 -5.208468 0.092334 0
M  V30 30 H -2.403597 -6.919856 3.478788 0
M  V30 31 H -3.837095 -7.345721 2.517482 0
M  V30 32 H -2.532186 -8.630487 2.811751 0
M  V30 33 H -1.711882 -7.848893 0.735937 0
M  V30 34 H 1.496660 -1.767827 0.723625 0
M  V30 35 H 1.525298 0.657592 1.267226 0
M  V30 36 H 0.765168 1.973353 3.122089 0
M  V30 37 H 0.819665 3.767753 3.208354 0
M  V30 38 H 2.961638 3.170690 3.838966 0
M  V30 39 H 3.084578 1.883454 2.616830 0
M  V30 40 H 3.452008 4.354137 0.012212 0
M  V30 41 H 3.013712 2.585138 0.336160 0
M  V30 42 H 1.070628 4.253014 -0.404472 0
M  V30 43 H 1.994505 5.223900 2.343964 0
M  V30 44 H 1.997381 6.116579 0.825150 0
M  V30 45 H 0.380364 5.735620 1.617215 0
M  V30 46 H -3.230062 0.921030 -1.504864 0
M  V30 47 H -2.204613 -1.291374 -1.375091 0
M  V30 48 H 0.616993 -5.397847 -2.833156 0
M  V30 49 H -0.522243 -6.878257 -1.148035 0
M  V30 END ATOM
M  V30 BEGIN BOND
M  V30 1 1 1 2
M  V30 2 1 2 3
M  V30 3 2 3 4
M  V30 4 1 4 5
M  V30 5 1 5 6
M  V30 6 2 6 7
M  V30 7 1 7 8
M  V30 8 2 8 9
M  V30 9 1 9 10
M  V30 10 2 10 11
M  V30 11 1 11 12
M  V30 12 1 12 13
M  V30 13 1 13 14
M  V30 14 1 14 15
M  V30 15 1 15 16
M  V30 16 1 16 17
M  V30 17 1 17 18
M  V30 18 1 18 19
M  V30 19 2 12 20
M  V30 20 1 20 21
M  V30 21 2 21 22
M  V30 22 1 22 23
M  V30 23 2 23 24
M  V30 24 1 7 25
M  V30 25 1 25 26
M  V30 26 2 25 27
M  V30 27 1 27 28
M  V30 28 2 28 29
M  V30 29 1 29 3
M  V30 30 1 29 6
M  V30 31 1 24 8
M  V30 32 1 23 11
M  V30 33 1 18 13
M  V30 34 1 1 30
M  V30 35 1 1 31
M  V30 36 1 1 32
M  V30 37 1 2 33
M  V30 38 1 9 34
M  V30 39 1 10 35
M  V30 40 1 14 36
M  V30 41 1 14 37
M  V30 42 1 15 38
M  V30 43 1 15 39
M  V30 44 1 17 40
M  V30 45 1 17 41
M  V30 46 1 18 42 CFG=3
M  V30 47 1 19 43
M  V30 48 1 19 44
M  V30 49 1 19 45
M  V30 50 1 22 46
M  V30 51 1 24 47
M  V30 52 1 27 48
M  V30 53 1 28 49
M  V30 END BOND
M  V30 END CTAB
M  END
>  <Dataset>  (79) 
ChEMBL_Kinases

>  <Ligand_Instance>  (79) 
nan

>  <PDB_ID>  (79) 
nan

>  <Standardized_SMILES>  (79) 
CNc1noc2c(-c3ccc4c(N5CCOC[C@@H]5C)nncc4c3)c(Cl)ccc12

>  <Name>  (79) 
nan

>  <Pocket>  (79) 
nan

>  <ATP_Site>  (79) 
nan

>  <Peripheral>  (79) 
nan

>  <Num_H_Atoms_ProtBoundConf>  (79) 
nan

>  <Num_Resolved_Atoms>  (79) 
nan

>  <Num_Not_Resolved_Atoms>  (79) 
nan

$$$$
CHEMBL3824074
     RDKit          3D

  0  0  0  0  0  0  0  0  0  0999 V3000
M  V30 BEGIN CTAB
M  V30 COUNTS 47 50 0 0 0
M  V30 BEGIN ATOM
M  V30 1 C -3.613732 -5.907450 3.222163 0
M  V30 2 C -4.500435 -4.928726 2.830195 0
M  V30 3 C -4.150092 -3.774644 2.173779 0
M  V30 4 C -2.807689 -3.637195 1.914618 0
M  V30 5 N -2.416338 -2.431416 1.225697 0
M  V30 6 C -1.442386 -2.376764 0.277510 0
M  V30 7 C -1.378297 -1.054049 -0.127046 0
M  V30 8 C -0.480879 -0.456360 -1.141606 0
M  V30 9 C -0.436842 -1.267362 -2.286409 0
M  V30 10 C 0.359521 -0.849679 -3.332090 0
M  V30 11 N 1.071957 0.288682 -3.271748 0
M  V30 12 C 1.001702 1.036057 -2.158161 0
M  V30 13 C 0.250424 0.741647 -1.040434 0
M  V30 14 O 0.010142 1.280759 0.139725 0
M  V30 15 C 0.315914 2.333314 0.924059 0
M  V30 16 C 1.702825 2.562677 1.387572 0
M  V30 17 C 2.141489 1.341610 2.204963 0
M  V30 18 C 3.627249 1.095369 2.039724 0
M  V30 19 N 4.361303 2.342381 2.139900 0
M  V30 20 C 4.062011 3.252153 1.047630 0
M  V30 21 C 2.751007 2.816236 0.373055 0
M  V30 22 C -2.328342 -0.323508 0.594567 0
M  V30 23 N -2.933492 -1.217684 1.406882 0
M  V30 24 C -1.794059 -4.539537 2.248678 0
M  V30 25 C -2.293060 -5.662238 2.909306 0
M  V30 26 H -3.877396 -6.819066 3.738742 0
M  V30 27 H -5.564438 -5.092355 3.064543 0
M  V30 28 H -4.848662 -3.023565 1.875797 0
M  V30 29 H -0.827639 -3.186654 -0.101732 0
M  V30 30 H -0.969147 -2.195453 -2.432184 0
M  V30 31 H 0.444708 -1.413611 -4.237293 0
M  V30 32 H 1.537426 1.963562 -2.050396 0
M  V30 33 H -0.338994 2.459081 1.828675 0
M  V30 34 H 0.044507 3.270258 0.327354 0
M  V30 35 H 1.704775 3.398289 2.153684 0
M  V30 36 H 1.953709 1.483918 3.286958 0
M  V30 37 H 1.585111 0.445135 1.862315 0
M  V30 38 H 3.933612 0.476530 2.907494 0
M  V30 39 H 3.876084 0.504717 1.133626 0
M  V30 40 H 5.385781 2.197045 2.191420 0
M  V30 41 H 3.978660 4.306025 1.386671 0
M  V30 42 H 4.852293 3.148232 0.283656 0
M  V30 43 H 3.040051 1.923162 -0.215848 0
M  V30 44 H 2.457972 3.612575 -0.332021 0
M  V30 45 H -2.534922 0.740022 0.516534 0
M  V30 46 H -0.769720 -4.389490 2.027013 0
M  V30 47 H -1.553585 -6.416898 3.204060 0
M  V30 END ATOM
M  V30 BEGIN BOND
M  V30 1 2 1 2
M  V30 2 1 2 3
M  V30 3 2 3 4
M  V30 4 1 4 5
M  V30 5 1 5 6
M  V30 6 2 6 7
M  V30 7 1 7 8
M  V30 8 2 8 9
M  V30 9 1 9 10
M  V30 10 2 10 11
M  V30 11 1 11 12
M  V30 12 2 12 13
M  V30 13 1 13 14
M  V30 14 1 14 15
M  V30 15 1 15 16
M  V30 16 1 16 17
M  V30 17 1 17 18
M  V30 18 1 18 19
M  V30 19 1 19 20
M  V30 20 1 20 21
M  V30 21 1 7 22
M  V30 22 2 22 23
M  V30 23 1 4 24
M  V30 24 2 24 25
M  V30 25 1 25 1
M  V30 26 1 23 5
M  V30 27 1 13 8
M  V30 28 1 21 16
M  V30 29 1 1 26
M  V30 30 1 2 27
M  V30 31 1 3 28
M  V30 32 1 6 29
M  V30 33 1 9 30
M  V30 34 1 10 31
M  V30 35 1 12 32
M  V30 36 1 15 33
M  V30 37 1 15 34
M  V30 38 1 16 35
M  V30 39 1 17 36
M  V30 40 1 17 37
M  V30 41 1 18 38
M  V30 42 1 18 39
M  V30 43 1 19 40
M  V30 44 1 20 41
M  V30 45 1 20 42
M  V30 46 1 21 43
M  V30 47 1 21 44
M  V30 48 1 22 45
M  V30 49 1 24 46
M  V30 50 1 25 47
M  V30 END BOND
M  V30 END CTAB
M  END
>  <Dataset>  (80) 
ChEMBL_Kinases

>  <Ligand_Instance>  (80) 
nan

>  <PDB_ID>  (80) 
nan

>  <Standardized_SMILES>  (80) 
c1ccc(-n2cc(-c3ccncc3OCC3CCNCC3)cn2)cc1

>  <Name>  (80) 
nan

>  <Pocket>  (80) 
nan

>  <ATP_Site>  (80) 
nan

>  <Peripheral>  (80) 
nan

>  <Num_H_Atoms_ProtBoundConf>  (80) 
nan

>  <Num_Resolved_Atoms>  (80) 
nan

>  <Num_Not_Resolved_Atoms>  (80) 
nan

$$$$
CHEMBL3824068
     RDKit          3D

  0  0  0  0  0  0  0  0  0  0999 V3000
M  V30 BEGIN CTAB
M  V30 COUNTS 64 68 0 0 0
M  V30 BEGIN ATOM
M  V30 1 C -0.209310 -0.848401 6.029426 0
M  V30 2 N 0.344689 -2.159601 6.249417 0
M  V30 3 C 1.733124 -2.155677 6.573797 0
M  V30 4 C 2.644196 -2.454506 5.437699 0
M  V30 5 N 1.883834 -2.710950 4.232790 0
M  V30 6 C 2.027386 -2.014701 3.007174 0
M  V30 7 C 2.971056 -1.029679 2.844683 0
M  V30 8 C 3.115239 -0.345916 1.654976 0
M  V30 9 C 2.314837 -0.618343 0.562961 0
M  V30 10 N 2.440803 0.071876 -0.678163 0
M  V30 11 C 1.384510 0.781368 -1.155134 0
M  V30 12 C 1.713703 1.360036 -2.346835 0
M  V30 13 C 0.988226 2.210262 -3.284603 0
M  V30 14 C 1.673929 3.314821 -3.767654 0
M  V30 15 C 1.012754 4.157136 -4.669458 0
M  V30 16 N -0.264800 3.846737 -5.022420 0
M  V30 17 C -0.885975 2.771976 -4.531587 0
M  V30 18 C -0.306278 1.893181 -3.640339 0
M  V30 19 O -0.978268 0.784619 -3.148225 0
M  V30 20 C -2.314172 0.511539 -3.554281 0
M  V30 21 C -2.789509 -0.733181 -2.877346 0
M  V30 22 C -4.209666 -1.094977 -3.258729 0
M  V30 23 C -5.026457 -1.454911 -2.027971 0
M  V30 24 N -4.307650 -2.310129 -1.134134 0
M  V30 25 C -3.036254 -1.828041 -0.701875 0
M  V30 26 C -2.679807 -0.548213 -1.376474 0
M  V30 27 C 3.038835 0.970383 -2.586827 0
M  V30 28 N 3.432910 0.190645 -1.545696 0
M  V30 29 C 1.363019 -1.606489 0.715176 0
M  V30 30 C 1.235691 -2.279098 1.916119 0
M  V30 31 C 0.957438 -3.795770 4.495329 0
M  V30 32 C -0.126467 -3.166735 5.381698 0
M  V30 33 H 0.406509 -0.100814 6.571611 0
M  V30 34 H -0.092019 -0.591343 4.944910 0
M  V30 35 H -1.283164 -0.795572 6.259166 0
M  V30 36 H 1.909831 -2.883534 7.388368 0
M  V30 37 H 1.944668 -1.156703 7.046240 0
M  V30 38 H 3.185493 -3.419275 5.662457 0
M  V30 39 H 3.411976 -1.675587 5.347332 0
M  V30 40 H 3.647705 -0.723548 3.601682 0
M  V30 41 H 3.852538 0.431738 1.510618 0
M  V30 42 H 0.412281 0.920792 -0.732879 0
M  V30 43 H 2.682408 3.538926 -3.473907 0
M  V30 44 H 1.574443 5.013606 -5.030712 0
M  V30 45 H -1.914239 2.593334 -4.866545 0
M  V30 46 H -2.910904 1.363288 -3.113330 0
M  V30 47 H -2.438064 0.508414 -4.640741 0
M  V30 48 H -2.137433 -1.571435 -3.193168 0
M  V30 49 H -4.208234 -1.978639 -3.917536 0
M  V30 50 H -4.712416 -0.273694 -3.772919 0
M  V30 51 H -5.459728 -0.541432 -1.545218 0
M  V30 52 H -5.897574 -2.034657 -2.406487 0
M  V30 53 H -4.901039 -2.555716 -0.330385 0
M  V30 54 H -3.098329 -1.606576 0.397144 0
M  V30 55 H -2.218228 -2.564625 -0.842150 0
M  V30 56 H -1.646741 -0.224304 -1.166325 0
M  V30 57 H -3.362687 0.262100 -1.074446 0
M  V30 58 H 3.736300 1.177143 -3.403279 0
M  V30 59 H 0.734981 -1.822376 -0.137519 0
M  V30 60 H 0.461055 -3.026870 1.920272 0
M  V30 61 H 1.450505 -4.636505 5.031381 0
M  V30 62 H 0.457676 -4.155291 3.575396 0
M  V30 63 H -0.593102 -3.965156 6.021235 0
M  V30 64 H -0.925568 -2.800330 4.709955 0
M  V30 END ATOM
M  V30 BEGIN BOND
M  V30 1 1 1 2
M  V30 2 1 2 3
M  V30 3 1 3 4
M  V30 4 1 4 5
M  V30 5 1 5 6
M  V30 6 2 6 7
M  V30 7 1 7 8
M  V30 8 2 8 9
M  V30 9 1 9 10
M  V30 10 1 10 11
M  V30 11 2 11 12
M  V30 12 1 12 13
M  V30 13 2 13 14
M  V30 14 1 14 15
M  V30 15 2 15 16
M  V30 16 1 16 17
M  V30 17 2 17 18
M  V30 18 1 18 19
M  V30 19 1 19 20
M  V30 20 1 20 21
M  V30 21 1 21 22
M  V30 22 1 22 23
M  V30 23 1 23 24
M  V30 24 1 24 25
M  V30 25 1 25 26
M  V30 26 1 12 27
M  V30 27 2 27 28
M  V30 28 1 9 29
M  V30 29 2 29 30
M  V30 30 1 5 31
M  V30 31 1 31 32
M  V30 32 1 32 2
M  V30 33 1 30 6
M  V30 34 1 28 10
M  V30 35 1 18 13
M  V30 36 1 26 21
M  V30 37 1 1 33
M  V30 38 1 1 34
M  V30 39 1 1 35
M  V30 40 1 3 36
M  V30 41 1 3 37
M  V30 42 1 4 38
M  V30 43 1 4 39
M  V30 44 1 7 40
M  V30 45 1 8 41
M  V30 46 1 11 42
M  V30 47 1 14 43
M  V30 48 1 15 44
M  V30 49 1 17 45
M  V30 50 1 20 46
M  V30 51 1 20 47
M  V30 52 1 21 48
M  V30 53 1 22 49
M  V30 54 1 22 50
M  V30 55 1 23 51
M  V30 56 1 23 52
M  V30 57 1 24 53
M  V30 58 1 25 54
M  V30 59 1 25 55
M  V30 60 1 26 56
M  V30 61 1 26 57
M  V30 62 1 27 58
M  V30 63 1 29 59
M  V30 64 1 30 60
M  V30 65 1 31 61
M  V30 66 1 31 62
M  V30 67 1 32 63
M  V30 68 1 32 64
M  V30 END BOND
M  V30 END CTAB
M  END
>  <Dataset>  (81) 
ChEMBL_Kinases

>  <Ligand_Instance>  (81) 
nan

>  <PDB_ID>  (81) 
nan

>  <Standardized_SMILES>  (81) 
CN1CCN(c2ccc(-n3cc(-c4ccncc4OCC4CCNCC4)cn3)cc2)CC1

>  <Name>  (81) 
nan

>  <Pocket>  (81) 
nan

>  <ATP_Site>  (81) 
nan

>  <Peripheral>  (81) 
nan

>  <Num_H_Atoms_ProtBoundConf>  (81) 
nan

>  <Num_Resolved_Atoms>  (81) 
nan

>  <Num_Not_Resolved_Atoms>  (81) 
nan

$$$$
CHEMBL3824061
     RDKit          3D

  0  0  0  0  0  0  0  0  0  0999 V3000
M  V30 BEGIN CTAB
M  V30 COUNTS 47 51 0 0 0
M  V30 BEGIN ATOM
M  V30 1 C -0.095952 -1.068477 -0.794609 0
M  V30 2 C -0.436144 -1.451302 0.658097 0 CFG=2
M  V30 3 N 0.187105 -2.708867 1.013869 0
M  V30 4 C 1.551383 -2.406331 0.787928 0
M  V30 5 N 2.314820 -2.607963 -0.300101 0
M  V30 6 C 3.620301 -2.214347 -0.322136 0
M  V30 7 C 4.156121 -1.600195 0.799383 0
M  V30 8 C 3.377450 -1.386659 1.924852 0
M  V30 9 N 3.911110 -0.692578 3.086006 0
M  V30 10 C 3.132008 0.523741 2.995562 0
M  V30 11 C 2.952986 1.328428 1.859383 0
M  V30 12 C 2.090381 2.401134 2.151609 0
M  V30 13 C 1.720933 3.394868 1.098103 0 CFG=1
M  V30 14 C 2.561642 3.455822 -0.102769 0
M  V30 15 C 1.233630 2.740742 -0.244975 0 CFG=2
M  V30 16 F 0.192104 3.353479 -0.888990 0
M  V30 17 N 1.786537 2.191194 3.458335 0
M  V30 18 N 2.387848 1.115913 3.928829 0
M  V30 19 N 2.078399 -1.809006 1.869532 0
M  V30 20 C -1.913197 -1.552271 0.715493 0
M  V30 21 C -2.711589 -0.573807 1.303682 0
M  V30 22 C -4.090609 -0.727490 1.284283 0
M  V30 23 C -4.658598 -1.832758 0.692357 0
M  V30 24 N -5.931875 -2.286556 0.499991 0
M  V30 25 C -5.844998 -3.472244 -0.165242 0
M  V30 26 C -4.529475 -3.822521 -0.424555 0
M  V30 27 C -3.800195 -2.777066 0.122102 0
M  V30 28 N -2.465584 -2.631762 0.137525 0
M  V30 29 H -0.863876 -0.336359 -1.082105 0
M  V30 30 H 0.937467 -0.729603 -0.902783 0
M  V30 31 H -0.193263 -2.029950 -1.365663 0
M  V30 32 H -0.128483 -0.634543 1.351640 0
M  V30 33 H -0.405270 -3.497312 1.330732 0
M  V30 34 H 4.225110 -2.370898 -1.192628 0
M  V30 35 H 5.198993 -1.263834 0.824839 0
M  V30 36 H 4.627952 -0.915845 3.804243 0
M  V30 37 H 3.473322 1.077958 0.945850 0
M  V30 38 H 1.088445 4.235264 1.447900 0
M  V30 39 H 3.515499 2.874905 -0.148192 0
M  V30 40 H 2.562107 4.438653 -0.648561 0
M  V30 41 H 1.327011 1.626066 -0.271673 0
M  V30 42 H 1.144534 2.860702 3.901913 0
M  V30 43 H -2.251192 0.277760 1.761949 0
M  V30 44 H -4.745497 0.025237 1.738419 0
M  V30 45 H -6.740055 -1.735780 0.841694 0
M  V30 46 H -6.758436 -4.018939 -0.427165 0
M  V30 47 H -4.200827 -4.710873 -0.932356 0
M  V30 END ATOM
M  V30 BEGIN BOND
M  V30 1 1 1 2
M  V30 2 1 2 3
M  V30 3 1 3 4
M  V30 4 2 4 5
M  V30 5 1 5 6
M  V30 6 2 6 7
M  V30 7 1 7 8
M  V30 8 1 8 9
M  V30 9 1 9 10
M  V30 10 1 10 11
M  V30 11 2 11 12
M  V30 12 1 12 13
M  V30 13 1 13 14
M  V30 14 1 14 15
M  V30 15 1 15 16
M  V30 16 1 12 17
M  V30 17 1 17 18
M  V30 18 2 8 19
M  V30 19 1 2 20
M  V30 20 2 20 21
M  V30 21 1 21 22
M  V30 22 2 22 23
M  V30 23 1 23 24
M  V30 24 1 24 25
M  V30 25 2 25 26
M  V30 26 1 26 27
M  V30 27 2 27 28
M  V30 28 1 19 4
M  V30 29 1 28 20
M  V30 30 2 18 10
M  V30 31 1 27 23
M  V30 32 1 15 13
M  V30 33 1 1 29
M  V30 34 1 1 30
M  V30 35 1 1 31
M  V30 36 1 2 32 CFG=1
M  V30 37 1 3 33
M  V30 38 1 6 34
M  V30 39 1 7 35
M  V30 40 1 9 36
M  V30 41 1 11 37
M  V30 42 1 13 38 CFG=1
M  V30 43 1 14 39
M  V30 44 1 14 40
M  V30 45 1 15 41 CFG=1
M  V30 46 1 17 42
M  V30 47 1 21 43
M  V30 48 1 22 44
M  V30 49 1 24 45
M  V30 50 1 25 46
M  V30 51 1 26 47
M  V30 END BOND
M  V30 END CTAB
M  END
>  <Dataset>  (82) 
ChEMBL_Kinases

>  <Ligand_Instance>  (82) 
nan

>  <PDB_ID>  (82) 
nan

>  <Standardized_SMILES>  (82) 
C[C@H](Nc1nccc(Nc2cc([C@H]3C[C@@H]3F)[nH]n2)n1)c1ccc2[nH]ccc2n1

>  <Name>  (82) 
nan

>  <Pocket>  (82) 
nan

>  <ATP_Site>  (82) 
nan

>  <Peripheral>  (82) 
nan

>  <Num_H_Atoms_ProtBoundConf>  (82) 
nan

>  <Num_Resolved_Atoms>  (82) 
nan

>  <Num_Not_Resolved_Atoms>  (82) 
nan

$$$$
CHEMBL3823975
     RDKit          3D

  0  0  0  0  0  0  0  0  0  0999 V3000
M  V30 BEGIN CTAB
M  V30 COUNTS 67 71 0 0 0
M  V30 BEGIN ATOM
M  V30 1 C 5.158510 -3.021906 2.365655 0
M  V30 2 N 6.226542 -2.140353 2.757088 0
M  V30 3 C 6.874887 -1.520809 1.636190 0
M  V30 4 C 5.914646 -0.789008 0.710431 0
M  V30 5 N 5.009027 -0.028918 1.546051 0
M  V30 6 C 3.770356 0.453106 1.041716 0
M  V30 7 C 3.504856 0.191577 -0.285794 0
M  V30 8 C 2.322292 0.624585 -0.852050 0
M  V30 9 C 1.389216 1.327982 -0.088554 0
M  V30 10 N 0.137777 1.819684 -0.576633 0
M  V30 11 C -0.991147 1.600194 0.150411 0
M  V30 12 C -1.992353 2.193622 -0.591520 0
M  V30 13 C -3.412303 2.202002 -0.179000 0
M  V30 14 C -3.981759 3.473427 -0.341586 0
M  V30 15 C -5.314124 3.673493 -0.003123 0
M  V30 16 N -6.008500 2.642752 0.467519 0
M  V30 17 C -5.474650 1.443419 0.622018 0
M  V30 18 C -4.170169 1.128808 0.321010 0
M  V30 19 O -3.367217 0.033926 0.369898 0
M  V30 20 C -3.598368 -1.262463 0.767543 0
M  V30 21 C -4.631337 -2.014240 0.002755 0 CFG=1
M  V30 22 C -4.236866 -2.098013 -1.459715 0
M  V30 23 C -2.861062 -2.663580 -1.544897 0
M  V30 24 C -2.653929 -3.975332 -0.862449 0 CFG=2
M  V30 25 N -3.014018 -5.111170 -1.699950 0
M  V30 26 C -3.341224 -4.085689 0.462752 0
M  V30 27 C -4.699183 -3.451365 0.482721 0
M  V30 28 C -1.476122 2.755670 -1.736290 0
M  V30 29 N -0.136884 2.493038 -1.678504 0
M  V30 30 C 1.695933 1.571676 1.249358 0
M  V30 31 C 2.876882 1.144413 1.832108 0
M  V30 32 C 5.551816 0.138313 2.878126 0
M  V30 33 C 5.679935 -1.146738 3.650282 0
M  V30 34 H 4.172700 -2.526519 2.320720 0
M  V30 35 H 5.379233 -3.555799 1.428312 0
M  V30 36 H 5.047653 -3.813563 3.159783 0
M  V30 37 H 7.403235 -2.335163 1.068059 0
M  V30 38 H 7.662840 -0.838617 2.005118 0
M  V30 39 H 5.393416 -1.509972 0.047602 0
M  V30 40 H 6.523523 -0.050485 0.150478 0
M  V30 41 H 4.117727 -0.334335 -1.003614 0
M  V30 42 H 2.027231 0.469029 -1.875475 0
M  V30 43 H -1.126268 1.089322 1.090092 0
M  V30 44 H -3.461149 4.341472 -0.719152 0
M  V30 45 H -5.809401 4.648266 -0.110586 0
M  V30 46 H -5.985498 0.572603 1.004291 0
M  V30 47 H -3.905308 -1.232898 1.841008 0
M  V30 48 H -2.612873 -1.814607 0.684311 0
M  V30 49 H -5.615352 -1.570161 0.131191 0
M  V30 50 H -4.230675 -1.099024 -1.892963 0
M  V30 51 H -4.960150 -2.760323 -1.990618 0
M  V30 52 H -2.093886 -1.899342 -1.283290 0
M  V30 53 H -2.672642 -2.858398 -2.641969 0
M  V30 54 H -1.557790 -4.070322 -0.653377 0
M  V30 55 H -4.013234 -5.053905 -1.923637 0
M  V30 56 H -2.374960 -5.270811 -2.491232 0
M  V30 57 H -2.701267 -3.755312 1.307427 0
M  V30 58 H -3.518424 -5.185531 0.643325 0
M  V30 59 H -5.358945 -4.016907 -0.207144 0
M  V30 60 H -5.092431 -3.524288 1.515495 0
M  V30 61 H -2.011649 3.289784 -2.514326 0
M  V30 62 H 0.981941 2.122541 1.875457 0
M  V30 63 H 3.072705 1.351770 2.860113 0
M  V30 64 H 4.927862 0.817645 3.490686 0
M  V30 65 H 6.542890 0.665044 2.798437 0
M  V30 66 H 4.730449 -1.466198 4.076661 0
M  V30 67 H 6.377802 -0.927316 4.500025 0
M  V30 END ATOM
M  V30 BEGIN BOND
M  V30 1 1 1 2
M  V30 2 1 2 3
M  V30 3 1 3 4
M  V30 4 1 4 5
M  V30 5 1 5 6
M  V30 6 2 6 7
M  V30 7 1 7 8
M  V30 8 2 8 9
M  V30 9 1 9 10
M  V30 10 1 10 11
M  V30 11 2 11 12
M  V30 12 1 12 13
M  V30 13 2 13 14
M  V30 14 1 14 15
M  V30 15 2 15 16
M  V30 16 1 16 17
M  V30 17 2 17 18
M  V30 18 1 18 19
M  V30 19 1 19 20
M  V30 20 1 20 21
M  V30 21 1 21 22
M  V30 22 1 22 23
M  V30 23 1 23 24
M  V30 24 1 24 25
M  V30 25 1 24 26
M  V30 26 1 26 27
M  V30 27 1 12 28
M  V30 28 2 28 29
M  V30 29 1 9 30
M  V30 30 2 30 31
M  V30 31 1 5 32
M  V30 32 1 32 33
M  V30 33 1 33 2
M  V30 34 1 31 6
M  V30 35 1 29 10
M  V30 36 1 18 13
M  V30 37 1 27 21
M  V30 38 1 1 34
M  V30 39 1 1 35
M  V30 40 1 1 36
M  V30 41 1 3 37
M  V30 42 1 3 38
M  V30 43 1 4 39
M  V30 44 1 4 40
M  V30 45 1 7 41
M  V30 46 1 8 42
M  V30 47 1 11 43
M  V30 48 1 14 44
M  V30 49 1 15 45
M  V30 50 1 17 46
M  V30 51 1 20 47
M  V30 52 1 20 48
M  V30 53 1 21 49 CFG=3
M  V30 54 1 22 50
M  V30 55 1 22 51
M  V30 56 1 23 52
M  V30 57 1 23 53
M  V30 58 1 24 54 CFG=1
M  V30 59 1 25 55
M  V30 60 1 25 56
M  V30 61 1 26 57
M  V30 62 1 26 58
M  V30 63 1 27 59
M  V30 64 1 27 60
M  V30 65 1 28 61
M  V30 66 1 30 62
M  V30 67 1 31 63
M  V30 68 1 32 64
M  V30 69 1 32 65
M  V30 70 1 33 66
M  V30 71 1 33 67
M  V30 END BOND
M  V30 END CTAB
M  END
>  <Dataset>  (83) 
ChEMBL_Kinases

>  <Ligand_Instance>  (83) 
nan

>  <PDB_ID>  (83) 
nan

>  <Standardized_SMILES>  (83) 
CN1CCN(c2ccc(-n3cc(-c4ccncc4OC[C@H]4CC[C@H](N)CC4)cn3)cc2)CC1

>  <Name>  (83) 
nan

>  <Pocket>  (83) 
nan

>  <ATP_Site>  (83) 
nan

>  <Peripheral>  (83) 
nan

>  <Num_H_Atoms_ProtBoundConf>  (83) 
nan

>  <Num_Resolved_Atoms>  (83) 
nan

>  <Num_Not_Resolved_Atoms>  (83) 
nan

$$$$
CHEMBL382397
     RDKit          3D

  0  0  0  0  0  0  0  0  0  0999 V3000
M  V30 BEGIN CTAB
M  V30 COUNTS 47 50 0 0 0
M  V30 BEGIN ATOM
M  V30 1 N 0.736921 -4.750934 2.752502 0
M  V30 2 C 0.498059 -4.009004 1.510029 0 CFG=2
M  V30 3 C 0.833113 -2.581234 1.713668 0
M  V30 4 O 0.701422 -1.793438 0.575463 0
M  V30 5 C 0.924238 -0.446153 0.431762 0
M  V30 6 C 0.663546 -0.094321 -0.903102 0
M  V30 7 N 0.798801 1.183596 -1.353169 0
M  V30 8 C 1.197452 2.151289 -0.489050 0
M  V30 9 C 1.458427 1.839470 0.818082 0
M  V30 10 C 1.891985 2.832345 1.790992 0
M  V30 11 C 2.660992 3.836796 1.212715 0
M  V30 12 C 3.149123 4.856843 2.003593 0
M  V30 13 C 2.878278 4.885419 3.364128 0
M  V30 14 F 3.337614 5.868618 4.178207 0
M  V30 15 C 2.103796 3.874020 3.946581 0
M  V30 16 C 1.623072 2.860776 3.141837 0
M  V30 17 C 1.326877 0.553509 1.288612 0
M  V30 18 C -0.884125 -4.352697 1.087488 0
M  V30 19 C -1.413402 -3.716003 -0.109492 0
M  V30 20 C -1.374774 -4.215607 -1.402666 0
M  V30 21 N -1.930415 -3.334883 -2.254198 0
M  V30 22 C -2.335688 -2.259747 -1.533263 0
M  V30 23 C -2.974567 -1.094915 -1.934730 0
M  V30 24 C -3.327679 -0.102739 -1.018100 0
M  V30 25 C -3.026980 -0.299951 0.316545 0
M  V30 26 C -2.391837 -1.459393 0.704883 0
M  V30 27 C -2.030143 -2.460711 -0.189478 0
M  V30 28 H 1.600790 -4.439366 3.232902 0
M  V30 29 H -0.122380 -4.630150 3.330319 0
M  V30 30 H 1.267595 -4.416817 0.799668 0
M  V30 31 H 0.167836 -2.167121 2.526029 0
M  V30 32 H 1.853619 -2.540930 2.161515 0
M  V30 33 H 0.335441 -0.736439 -1.731597 0
M  V30 34 H 1.302172 3.163058 -0.854200 0
M  V30 35 H 2.920768 3.892571 0.158706 0
M  V30 36 H 3.754984 5.652957 1.560764 0
M  V30 37 H 1.887081 3.882408 4.990944 0
M  V30 38 H 1.010265 2.031331 3.508444 0
M  V30 39 H 1.496152 0.159488 2.278133 0
M  V30 40 H -0.900258 -5.484463 0.966198 0
M  V30 41 H -1.595314 -4.195767 1.955878 0
M  V30 42 H -0.958549 -5.176587 -1.689706 0
M  V30 43 H -2.053894 -3.412843 -3.293254 0
M  V30 44 H -3.232997 -0.893844 -2.983549 0
M  V30 45 H -3.823689 0.814840 -1.280252 0
M  V30 46 H -3.274381 0.433983 1.096207 0
M  V30 47 H -2.139263 -1.651531 1.738605 0
M  V30 END ATOM
M  V30 BEGIN BOND
M  V30 1 1 1 2
M  V30 2 1 2 3
M  V30 3 1 3 4
M  V30 4 1 4 5
M  V30 5 2 5 6
M  V30 6 1 6 7
M  V30 7 2 7 8
M  V30 8 1 8 9
M  V30 9 1 9 10
M  V30 10 2 10 11
M  V30 11 1 11 12
M  V30 12 2 12 13
M  V30 13 1 13 14
M  V30 14 1 13 15
M  V30 15 2 15 16
M  V30 16 2 9 17
M  V30 17 1 2 18
M  V30 18 1 18 19
M  V30 19 2 19 20
M  V30 20 1 20 21
M  V30 21 1 21 22
M  V30 22 2 22 23
M  V30 23 1 23 24
M  V30 24 2 24 25
M  V30 25 1 25 26
M  V30 26 2 26 27
M  V30 27 1 17 5
M  V30 28 1 27 19
M  V30 29 1 16 10
M  V30 30 1 27 22
M  V30 31 1 1 28
M  V30 32 1 1 29
M  V30 33 1 2 30 CFG=3
M  V30 34 1 3 31
M  V30 35 1 3 32
M  V30 36 1 6 33
M  V30 37 1 8 34
M  V30 38 1 11 35
M  V30 39 1 12 36
M  V30 40 1 15 37
M  V30 41 1 16 38
M  V30 42 1 17 39
M  V30 43 1 18 40
M  V30 44 1 18 41
M  V30 45 1 20 42
M  V30 46 1 21 43
M  V30 47 1 23 44
M  V30 48 1 24 45
M  V30 49 1 25 46
M  V30 50 1 26 47
M  V30 END BOND
M  V30 END CTAB
M  END
>  <Dataset>  (84) 
ChEMBL_Kinases

>  <Ligand_Instance>  (84) 
nan

>  <PDB_ID>  (84) 
nan

>  <Standardized_SMILES>  (84) 
N[C@H](COc1cncc(-c2ccc(F)cc2)c1)Cc1c[nH]c2ccccc12

>  <Name>  (84) 
nan

>  <Pocket>  (84) 
nan

>  <ATP_Site>  (84) 
nan

>  <Peripheral>  (84) 
nan

>  <Num_H_Atoms_ProtBoundConf>  (84) 
nan

>  <Num_Resolved_Atoms>  (84) 
nan

>  <Num_Not_Resolved_Atoms>  (84) 
nan

$$$$
CHEMBL3823933
     RDKit          3D

  0  0  0  0  0  0  0  0  0  0999 V3000
M  V30 BEGIN CTAB
M  V30 COUNTS 67 66 0 0 0
M  V30 BEGIN ATOM
M  V30 1 C 2.110602 -6.366635 2.060677 0
M  V30 2 C 3.275635 -5.492009 1.607970 0
M  V30 3 C 3.043948 -4.059918 1.953892 0
M  V30 4 C 4.209365 -3.165690 1.497560 0
M  V30 5 C 3.839432 -1.784985 1.902803 0
M  V30 6 C 4.832312 -0.712129 1.551411 0
M  V30 7 C 5.088436 -0.603711 0.082664 0
M  V30 8 C 3.824583 -0.296884 -0.697351 0
M  V30 9 O 3.263038 0.945857 -0.276918 0
M  V30 10 C 2.075615 1.367145 -0.848300 0
M  V30 11 O 1.482608 0.682519 -1.720285 0
M  V30 12 C 1.364436 2.624005 -0.529882 0
M  V30 13 C -0.069962 2.351266 -0.105350 0 CFG=1
M  V30 14 O -0.727453 1.698888 -1.136802 0
M  V30 15 C -1.826151 2.420086 -1.613389 0
M  V30 16 C -2.430777 1.577429 -2.717709 0
M  V30 17 C -2.849967 0.268841 -2.157166 0
M  V30 18 C -3.890218 0.317149 -1.079619 0
M  V30 19 C -4.159232 -1.109253 -0.664479 0
M  V30 20 C -5.181959 -1.270492 0.404823 0
M  V30 21 C -4.876380 -0.592925 1.703873 0
M  V30 22 C -6.059894 -0.908112 2.631737 0
M  V30 23 C -0.092489 1.559688 1.192522 0 CFG=1
M  V30 24 C -1.464605 1.468933 1.802220 0
M  V30 25 O 0.523278 0.324271 1.065334 0
M  V30 26 H 1.120154 -5.854832 1.881983 0
M  V30 27 H 2.060907 -7.323417 1.506818 0
M  V30 28 H 2.157330 -6.585480 3.142421 0
M  V30 29 H 4.175493 -5.891541 2.107653 0
M  V30 30 H 3.409820 -5.600691 0.513078 0
M  V30 31 H 2.098735 -3.724775 1.497097 0
M  V30 32 H 2.898787 -3.983219 3.056654 0
M  V30 33 H 5.148693 -3.495898 1.944980 0
M  V30 34 H 4.249945 -3.301255 0.383901 0
M  V30 35 H 2.868776 -1.520127 1.424294 0
M  V30 36 H 3.626750 -1.792174 2.989338 0
M  V30 37 H 5.794684 -0.976136 2.037936 0
M  V30 38 H 4.498914 0.267340 1.940185 0
M  V30 39 H 5.629759 -1.463626 -0.318928 0
M  V30 40 H 5.739147 0.291558 -0.062406 0
M  V30 41 H 4.049525 -0.183378 -1.787683 0
M  V30 42 H 3.099295 -1.137291 -0.627650 0
M  V30 43 H 1.874153 3.232263 0.253205 0
M  V30 44 H 1.351322 3.241982 -1.450126 0
M  V30 45 H -0.597305 3.305270 0.088326 0
M  V30 46 H -2.582033 2.589766 -0.837227 0
M  V30 47 H -1.506860 3.385686 -2.067710 0
M  V30 48 H -3.238239 2.117572 -3.250445 0
M  V30 49 H -1.595345 1.365193 -3.438390 0
M  V30 50 H -3.145211 -0.472896 -2.933723 0
M  V30 51 H -1.917995 -0.187760 -1.704001 0
M  V30 52 H -3.596597 0.959283 -0.256794 0
M  V30 53 H -4.817797 0.747647 -1.510367 0
M  V30 54 H -4.563397 -1.640583 -1.569476 0
M  V30 55 H -3.208053 -1.626245 -0.449310 0
M  V30 56 H -6.203436 -0.980927 0.070047 0
M  V30 57 H -5.254185 -2.363634 0.633248 0
M  V30 58 H -4.886061 0.526140 1.640952 0
M  V30 59 H -3.982090 -1.002301 2.201711 0
M  V30 60 H -6.940882 -0.385637 2.157918 0
M  V30 61 H -6.224947 -2.007459 2.687981 0
M  V30 62 H -5.873721 -0.450501 3.616461 0
M  V30 63 H 0.544227 2.142275 1.893856 0
M  V30 64 H -2.044351 2.363130 1.490364 0
M  V30 65 H -2.028579 0.563522 1.492439 0
M  V30 66 H -1.347483 1.509696 2.910234 0
M  V30 67 H -0.135284 -0.400086 0.895692 0
M  V30 END ATOM
M  V30 BEGIN BOND
M  V30 1 1 1 2
M  V30 2 1 2 3
M  V30 3 1 3 4
M  V30 4 1 4 5
M  V30 5 1 5 6
M  V30 6 1 6 7
M  V30 7 1 7 8
M  V30 8 1 8 9
M  V30 9 1 9 10
M  V30 10 2 10 11
M  V30 11 1 10 12
M  V30 12 1 12 13
M  V30 13 1 13 14
M  V30 14 1 14 15
M  V30 15 1 15 16
M  V30 16 1 16 17
M  V30 17 1 17 18
M  V30 18 1 18 19
M  V30 19 1 19 20
M  V30 20 1 20 21
M  V30 21 1 21 22
M  V30 22 1 13 23
M  V30 23 1 23 24
M  V30 24 1 23 25
M  V30 25 1 1 26
M  V30 26 1 1 27
M  V30 27 1 1 28
M  V30 28 1 2 29
M  V30 29 1 2 30
M  V30 30 1 3 31
M  V30 31 1 3 32
M  V30 32 1 4 33
M  V30 33 1 4 34
M  V30 34 1 5 35
M  V30 35 1 5 36
M  V30 36 1 6 37
M  V30 37 1 6 38
M  V30 38 1 7 39
M  V30 39 1 7 40
M  V30 40 1 8 41
M  V30 41 1 8 42
M  V30 42 1 12 43
M  V30 43 1 12 44
M  V30 44 1 13 45 CFG=1
M  V30 45 1 15 46
M  V30 46 1 15 47
M  V30 47 1 16 48
M  V30 48 1 16 49
M  V30 49 1 17 50
M  V30 50 1 17 51
M  V30 51 1 18 52
M  V30 52 1 18 53
M  V30 53 1 19 54
M  V30 54 1 19 55
M  V30 55 1 20 56
M  V30 56 1 20 57
M  V30 57 1 21 58
M  V30 58 1 21 59
M  V30 59 1 22 60
M  V30 60 1 22 61
M  V30 61 1 22 62
M  V30 62 1 23 63 CFG=1
M  V30 63 1 24 64
M  V30 64 1 24 65
M  V30 65 1 24 66
M  V30 66 1 25 67
M  V30 END BOND
M  V30 END CTAB
M  END
>  <Dataset>  (85) 
ChEMBL_Kinases

>  <Ligand_Instance>  (85) 
nan

>  <PDB_ID>  (85) 
nan

>  <Standardized_SMILES>  (85) 
CCCCCCCCOC(=O)C[C@@H](OCCCCCCCC)[C@@H](C)O

>  <Name>  (85) 
nan

>  <Pocket>  (85) 
nan

>  <ATP_Site>  (85) 
nan

>  <Peripheral>  (85) 
nan

>  <Num_H_Atoms_ProtBoundConf>  (85) 
nan

>  <Num_Resolved_Atoms>  (85) 
nan

>  <Num_Not_Resolved_Atoms>  (85) 
nan

$$$$
CHEMBL3823929
     RDKit          3D

  0  0  0  0  0  0  0  0  0  0999 V3000
M  V30 BEGIN CTAB
M  V30 COUNTS 58 62 0 0 0
M  V30 BEGIN ATOM
M  V30 1 C 5.777236 -2.825904 2.163586 0
M  V30 2 C 6.186432 -1.797581 1.166081 0
M  V30 3 O 7.399189 -1.541244 0.940164 0
M  V30 4 N 5.146709 -1.097395 0.459828 0
M  V30 5 C 3.731988 -1.344463 0.675401 0
M  V30 6 C 3.199285 -1.768091 -0.659264 0
M  V30 7 C 3.250947 -0.563747 -1.571064 0
M  V30 8 N 2.098577 0.294125 -1.315894 0
M  V30 9 N 2.154248 1.504481 -0.751739 0
M  V30 10 C 0.902094 2.016051 -0.667685 0
M  V30 11 C 0.564504 3.365603 -0.087171 0
M  V30 12 C 0.028789 1.063129 -1.212347 0
M  V30 13 N -1.364414 1.360370 -1.242242 0
M  V30 14 C -2.337097 1.068135 -0.249295 0
M  V30 15 N -2.334044 2.053963 0.695824 0
M  V30 16 C -3.149828 2.055513 1.760531 0
M  V30 17 C -4.031329 1.019322 1.911588 0
M  V30 18 Cl -5.129504 0.990107 3.244116 0
M  V30 19 C -4.076107 -0.003201 0.987775 0
M  V30 20 C -4.950895 -1.158101 0.975087 0
M  V30 21 C -5.702653 -1.414768 -0.167791 0
M  V30 22 N -6.436666 -2.549956 0.034479 0
M  V30 23 C -6.163301 -3.007959 1.269269 0
M  V30 24 C -6.575181 -4.102128 2.036992 0
M  V30 25 C -6.087886 -4.309682 3.304388 0
M  V30 26 C -5.182536 -3.415217 3.804630 0
M  V30 27 C -4.790175 -2.345474 3.035155 0
M  V30 28 N -5.276966 -2.164420 1.809472 0
M  V30 29 N -3.222899 0.091674 -0.034655 0
M  V30 30 C 0.819621 0.005553 -1.603785 0
M  V30 31 C 0.239965 -1.187083 -2.222752 0
M  V30 32 C 4.510962 0.208608 -1.547710 0
M  V30 33 C 5.512789 -0.101617 -0.508657 0
M  V30 34 H 4.952373 -3.468901 1.772738 0
M  V30 35 H 6.621307 -3.528008 2.380401 0
M  V30 36 H 5.423687 -2.342185 3.102678 0
M  V30 37 H 3.526640 -2.021474 1.503382 0
M  V30 38 H 3.276603 -0.371898 0.945282 0
M  V30 39 H 3.676959 -2.659580 -1.060325 0
M  V30 40 H 2.114191 -2.007978 -0.514135 0
M  V30 41 H 3.095469 -0.974573 -2.596479 0
M  V30 42 H -0.201058 3.879780 -0.703034 0
M  V30 43 H 0.288248 3.268926 0.977672 0
M  V30 44 H 1.488211 3.972699 -0.140841 0
M  V30 45 H -1.538369 1.847510 -2.154857 0
M  V30 46 H -3.158811 2.823786 2.512279 0
M  V30 47 H -5.806656 -0.915423 -1.124085 0
M  V30 48 H -7.294082 -4.729007 1.519612 0
M  V30 49 H -6.443516 -5.174106 3.850361 0
M  V30 50 H -4.826055 -3.633150 4.823625 0
M  V30 51 H -4.067800 -1.701427 3.496853 0
M  V30 52 H -0.255732 -1.803094 -1.460413 0
M  V30 53 H -0.446733 -0.900743 -3.054487 0
M  V30 54 H 1.004148 -1.837023 -2.711430 0
M  V30 55 H 4.247977 1.303342 -1.435794 0
M  V30 56 H 5.021219 0.183829 -2.554645 0
M  V30 57 H 5.857654 0.819770 0.051154 0
M  V30 58 H 6.476883 -0.467529 -0.970561 0
M  V30 END ATOM
M  V30 BEGIN BOND
M  V30 1 1 1 2
M  V30 2 2 2 3
M  V30 3 1 2 4
M  V30 4 1 4 5
M  V30 5 1 5 6
M  V30 6 1 6 7
M  V30 7 1 7 8
M  V30 8 1 8 9
M  V30 9 2 9 10
M  V30 10 1 10 11
M  V30 11 1 10 12
M  V30 12 1 12 13
M  V30 13 1 13 14
M  V30 14 2 14 15
M  V30 15 1 15 16
M  V30 16 2 16 17
M  V30 17 1 17 18
M  V30 18 1 17 19
M  V30 19 1 19 20
M  V30 20 2 20 21
M  V30 21 1 21 22
M  V30 22 2 22 23
M  V30 23 1 23 24
M  V30 24 2 24 25
M  V30 25 1 25 26
M  V30 26 2 26 27
M  V30 27 1 27 28
M  V30 28 2 19 29
M  V30 29 2 12 30
M  V30 30 1 30 31
M  V30 31 1 7 32
M  V30 32 1 32 33
M  V30 33 1 33 4
M  V30 34 1 30 8
M  V30 35 1 29 14
M  V30 36 1 28 20
M  V30 37 1 28 23
M  V30 38 1 1 34
M  V30 39 1 1 35
M  V30 40 1 1 36
M  V30 41 1 5 37
M  V30 42 1 5 38
M  V30 43 1 6 39
M  V30 44 1 6 40
M  V30 45 1 7 41
M  V30 46 1 11 42
M  V30 47 1 11 43
M  V30 48 1 11 44
M  V30 49 1 13 45
M  V30 50 1 16 46
M  V30 51 1 21 47
M  V30 52 1 24 48
M  V30 53 1 25 49
M  V30 54 1 26 50
M  V30 55 1 27 51
M  V30 56 1 31 52
M  V30 57 1 31 53
M  V30 58 1 31 54
M  V30 59 1 32 55
M  V30 60 1 32 56
M  V30 61 1 33 57
M  V30 62 1 33 58
M  V30 END BOND
M  V30 END CTAB
M  END
>  <Dataset>  (86) 
ChEMBL_Kinases

>  <Ligand_Instance>  (86) 
nan

>  <PDB_ID>  (86) 
nan

>  <Standardized_SMILES>  (86) 
CC(=O)N1CCC(n2nc(C)c(Nc3ncc(Cl)c(-c4cnc5ccccn45)n3)c2C)CC1

>  <Name>  (86) 
nan

>  <Pocket>  (86) 
nan

>  <ATP_Site>  (86) 
nan

>  <Peripheral>  (86) 
nan

>  <Num_H_Atoms_ProtBoundConf>  (86) 
nan

>  <Num_Resolved_Atoms>  (86) 
nan

>  <Num_Not_Resolved_Atoms>  (86) 
nan

$$$$
CHEMBL3823920
     RDKit          3D

  0  0  0  0  0  0  0  0  0  0999 V3000
M  V30 BEGIN CTAB
M  V30 COUNTS 34 36 0 0 0
M  V30 BEGIN ATOM
M  V30 1 C -0.296538 -4.885883 4.357694 0
M  V30 2 S -0.799925 -5.264797 2.687342 0
M  V30 3 O -2.165028 -5.894431 2.754000 0
M  V30 4 O 0.143256 -6.291541 2.145799 0
M  V30 5 C -0.828597 -3.820930 1.701809 0
M  V30 6 C 0.344445 -3.508990 1.048086 0
M  V30 7 C 0.334089 -2.356129 0.256343 0
M  V30 8 C -0.821957 -1.581686 0.154049 0
M  V30 9 N -0.635512 -0.450416 -0.696018 0
M  V30 10 C 0.034697 0.604964 -0.149249 0
M  V30 11 C 0.114443 1.590964 -1.113509 0
M  V30 12 C 0.738638 2.908246 -1.005274 0
M  V30 13 C 1.841668 3.030620 -0.185212 0
M  V30 14 C 2.492438 4.236576 -0.024400 0
M  V30 15 N 2.040182 5.339602 -0.689240 0
M  V30 16 C 0.950584 5.199184 -1.493785 0
M  V30 17 C 0.262955 4.009997 -1.687929 0
M  V30 18 C -0.519937 1.101665 -2.240500 0
M  V30 19 N -0.966455 -0.148456 -1.950362 0
M  V30 20 C -1.971908 -1.940308 0.831334 0
M  V30 21 C -1.986502 -3.073508 1.618772 0
M  V30 22 H 0.771804 -5.209944 4.525106 0
M  V30 23 H -0.376413 -3.796960 4.564204 0
M  V30 24 H -0.882844 -5.433863 5.114082 0
M  V30 25 H 1.233625 -4.129102 1.143943 0
M  V30 26 H 1.277237 -2.132844 -0.250320 0
M  V30 27 H 0.471174 0.773108 0.828207 0
M  V30 28 H 2.260737 2.212816 0.372261 0
M  V30 29 H 3.360686 4.433044 0.592347 0
M  V30 30 H 0.544478 6.041443 -2.048866 0
M  V30 31 H -0.585480 3.934525 -2.324166 0
M  V30 32 H -0.670057 1.567970 -3.203639 0
M  V30 33 H -2.812783 -1.274995 0.686328 0
M  V30 34 H -2.898805 -3.333429 2.139009 0
M  V30 END ATOM
M  V30 BEGIN BOND
M  V30 1 1 1 2
M  V30 2 2 2 3
M  V30 3 2 2 4
M  V30 4 1 2 5
M  V30 5 2 5 6
M  V30 6 1 6 7
M  V30 7 2 7 8
M  V30 8 1 8 9
M  V30 9 1 9 10
M  V30 10 2 10 11
M  V30 11 1 11 12
M  V30 12 2 12 13
M  V30 13 1 13 14
M  V30 14 2 14 15
M  V30 15 1 15 16
M  V30 16 2 16 17
M  V30 17 1 11 18
M  V30 18 2 18 19
M  V30 19 1 8 20
M  V30 20 2 20 21
M  V30 21 1 21 5
M  V30 22 1 19 9
M  V30 23 1 17 12
M  V30 24 1 1 22
M  V30 25 1 1 23
M  V30 26 1 1 24
M  V30 27 1 6 25
M  V30 28 1 7 26
M  V30 29 1 10 27
M  V30 30 1 13 28
M  V30 31 1 14 29
M  V30 32 1 16 30
M  V30 33 1 17 31
M  V30 34 1 18 32
M  V30 35 1 20 33
M  V30 36 1 21 34
M  V30 END BOND
M  V30 END CTAB
M  END
>  <Dataset>  (87) 
ChEMBL_Kinases

>  <Ligand_Instance>  (87) 
nan

>  <PDB_ID>  (87) 
nan

>  <Standardized_SMILES>  (87) 
CS(=O)(=O)c1ccc(-n2cc(-c3ccncc3)cn2)cc1

>  <Name>  (87) 
nan

>  <Pocket>  (87) 
nan

>  <ATP_Site>  (87) 
nan

>  <Peripheral>  (87) 
nan

>  <Num_H_Atoms_ProtBoundConf>  (87) 
nan

>  <Num_Resolved_Atoms>  (87) 
nan

>  <Num_Not_Resolved_Atoms>  (87) 
nan

$$$$
CHEMBL3824174
     RDKit          3D

  0  0  0  0  0  0  0  0  0  0999 V3000
M  V30 BEGIN CTAB
M  V30 COUNTS 45 48 0 0 0
M  V30 BEGIN ATOM
M  V30 1 C -0.169212 -7.223519 0.840901 0
M  V30 2 N 0.604873 -6.239701 0.158303 0
M  V30 3 C -0.193651 -5.336997 -0.641469 0
M  V30 4 C 0.652964 -4.240385 -1.259294 0
M  V30 5 N 1.317172 -3.417374 -0.300680 0
M  V30 6 C 1.201693 -2.020461 -0.129098 0
M  V30 7 C 0.349666 -1.330932 -0.960387 0
M  V30 8 C 0.221743 0.046878 -0.807881 0
M  V30 9 C 0.945787 0.724812 0.173598 0
M  V30 10 N 0.816549 2.135475 0.331777 0
M  V30 11 C -0.118025 2.547251 1.208720 0
M  V30 12 C -0.066254 3.946268 1.198896 0
M  V30 13 C -0.830929 4.974201 1.935213 0
M  V30 14 C -0.195591 6.056503 2.518816 0
M  V30 15 C -0.937281 7.011010 3.206759 0
M  V30 16 N -2.260631 6.860364 3.289849 0
M  V30 17 C -2.892901 5.812866 2.727322 0
M  V30 18 C -2.212531 4.815000 2.020773 0
M  V30 19 F -2.893260 3.774742 1.469153 0
M  V30 20 C 0.928364 4.323204 0.287831 0
M  V30 21 N 1.436939 3.158813 -0.215013 0
M  V30 22 C 1.802370 0.013478 1.005387 0
M  V30 23 C 1.912379 -1.354611 0.834356 0
M  V30 24 C 2.138621 -4.341719 0.458794 0
M  V30 25 C 1.295117 -5.428512 1.137269 0
M  V30 26 H -1.094339 -7.512976 0.303255 0
M  V30 27 H 0.401191 -8.139897 1.035319 0
M  V30 28 H -0.468294 -6.805331 1.832897 0
M  V30 29 H -0.887313 -4.838485 0.077548 0
M  V30 30 H -0.728756 -5.849596 -1.439239 0
M  V30 31 H -0.013350 -3.720341 -1.969037 0
M  V30 32 H 1.379551 -4.792715 -1.926909 0
M  V30 33 H -0.253103 -1.724501 -1.740184 0
M  V30 34 H -0.421605 0.661820 -1.415057 0
M  V30 35 H -0.828322 2.049460 1.853116 0
M  V30 36 H 0.896210 6.094463 2.396979 0
M  V30 37 H -0.365569 7.826136 3.633891 0
M  V30 38 H -3.971642 5.743575 2.828084 0
M  V30 39 H 1.322667 5.281142 -0.051315 0
M  V30 40 H 2.348149 0.563720 1.753758 0
M  V30 41 H 2.594054 -1.837127 1.514205 0
M  V30 42 H 2.653292 -3.849580 1.308597 0
M  V30 43 H 2.899337 -4.840892 -0.210691 0
M  V30 44 H 0.532453 -4.899145 1.731108 0
M  V30 45 H 1.980252 -6.049389 1.713926 0
M  V30 END ATOM
M  V30 BEGIN BOND
M  V30 1 1 1 2
M  V30 2 1 2 3
M  V30 3 1 3 4
M  V30 4 1 4 5
M  V30 5 1 5 6
M  V30 6 2 6 7
M  V30 7 1 7 8
M  V30 8 2 8 9
M  V30 9 1 9 10
M  V30 10 1 10 11
M  V30 11 2 11 12
M  V30 12 1 12 13
M  V30 13 2 13 14
M  V30 14 1 14 15
M  V30 15 2 15 16
M  V30 16 1 16 17
M  V30 17 2 17 18
M  V30 18 1 18 19
M  V30 19 1 12 20
M  V30 20 2 20 21
M  V30 21 1 9 22
M  V30 22 2 22 23
M  V30 23 1 5 24
M  V30 24 1 24 25
M  V30 25 1 25 2
M  V30 26 1 23 6
M  V30 27 1 21 10
M  V30 28 1 18 13
M  V30 29 1 1 26
M  V30 30 1 1 27
M  V30 31 1 1 28
M  V30 32 1 3 29
M  V30 33 1 3 30
M  V30 34 1 4 31
M  V30 35 1 4 32
M  V30 36 1 7 33
M  V30 37 1 8 34
M  V30 38 1 11 35
M  V30 39 1 14 36
M  V30 40 1 15 37
M  V30 41 1 17 38
M  V30 42 1 20 39
M  V30 43 1 22 40
M  V30 44 1 23 41
M  V30 45 1 24 42
M  V30 46 1 24 43
M  V30 47 1 25 44
M  V30 48 1 25 45
M  V30 END BOND
M  V30 END CTAB
M  END
>  <Dataset>  (88) 
ChEMBL_Kinases

>  <Ligand_Instance>  (88) 
nan

>  <PDB_ID>  (88) 
nan

>  <Standardized_SMILES>  (88) 
CN1CCN(c2ccc(-n3cc(-c4ccncc4F)cn3)cc2)CC1

>  <Name>  (88) 
nan

>  <Pocket>  (88) 
nan

>  <ATP_Site>  (88) 
nan

>  <Peripheral>  (88) 
nan

>  <Num_H_Atoms_ProtBoundConf>  (88) 
nan

>  <Num_Resolved_Atoms>  (88) 
nan

>  <Num_Not_Resolved_Atoms>  (88) 
nan

$$$$
CHEMBL4867310
     RDKit          3D

  0  0  0  0  0  0  0  0  0  0999 V3000
M  V30 BEGIN CTAB
M  V30 COUNTS 28 29 0 0 0
M  V30 BEGIN ATOM
M  V30 1 C 0.969189 -4.503411 4.533082 0
M  V30 2 O 2.157048 -3.708783 4.493585 0
M  V30 3 C 2.204671 -2.613284 3.561334 0
M  V30 4 N 2.986972 -1.827835 3.305965 0
M  V30 5 C 2.961849 -0.842201 2.429676 0
M  V30 6 C 1.806167 -0.715231 1.680557 0
M  V30 7 C 1.342625 0.209421 0.615600 0
M  V30 8 C 2.121396 1.235901 0.147379 0
M  V30 9 C 1.544277 2.001951 -0.841496 0
M  V30 10 N 0.307421 1.749228 -1.303175 0
M  V30 11 C -0.439970 0.736615 -0.829763 0
M  V30 12 N -1.746771 0.474628 -1.321963 0
M  V30 13 C -2.216667 1.361108 -2.357006 0
M  V30 14 C -2.485327 -0.638948 -0.755354 0
M  V30 15 N 0.118194 -0.032239 0.151095 0
M  V30 16 S 0.771314 -2.149886 2.364547 0
M  V30 17 H 0.210150 -4.021013 5.172367 0
M  V30 18 H 0.527457 -4.445471 3.495294 0
M  V30 19 H 1.152954 -5.561057 4.726169 0
M  V30 20 H 3.761264 -0.128828 2.246822 0
M  V30 21 H 3.072889 1.283641 0.630878 0
M  V30 22 H 2.198360 2.808313 -1.185952 0
M  V30 23 H -1.983682 2.428743 -2.084295 0
M  V30 24 H -1.715623 1.186873 -3.326186 0
M  V30 25 H -3.316575 1.311364 -2.496803 0
M  V30 26 H -2.486335 -0.654570 0.346804 0
M  V30 27 H -2.066682 -1.578459 -1.212871 0
M  V30 28 H -3.550958 -0.619556 -1.083682 0
M  V30 END ATOM
M  V30 BEGIN BOND
M  V30 1 1 1 2
M  V30 2 1 2 3
M  V30 3 2 3 4
M  V30 4 1 4 5
M  V30 5 2 5 6
M  V30 6 1 6 7
M  V30 7 2 7 8
M  V30 8 1 8 9
M  V30 9 2 9 10
M  V30 10 1 10 11
M  V30 11 1 11 12
M  V30 12 1 12 13
M  V30 13 1 12 14
M  V30 14 2 11 15
M  V30 15 1 6 16
M  V30 16 1 16 3
M  V30 17 1 15 7
M  V30 18 1 1 17
M  V30 19 1 1 18
M  V30 20 1 1 19
M  V30 21 1 5 20
M  V30 22 1 8 21
M  V30 23 1 9 22
M  V30 24 1 13 23
M  V30 25 1 13 24
M  V30 26 1 13 25
M  V30 27 1 14 26
M  V30 28 1 14 27
M  V30 29 1 14 28
M  V30 END BOND
M  V30 END CTAB
M  END
>  <Dataset>  (89) 
ChEMBL_Kinases

>  <Ligand_Instance>  (89) 
nan

>  <PDB_ID>  (89) 
nan

>  <Standardized_SMILES>  (89) 
COc1ncc(-c2ccnc(N(C)C)n2)s1

>  <Name>  (89) 
nan

>  <Pocket>  (89) 
nan

>  <ATP_Site>  (89) 
nan

>  <Peripheral>  (89) 
nan

>  <Num_H_Atoms_ProtBoundConf>  (89) 
nan

>  <Num_Resolved_Atoms>  (89) 
nan

>  <Num_Not_Resolved_Atoms>  (89) 
nan

$$$$
CHEMBL4867333
     RDKit          3D

  0  0  0  0  0  0  0  0  0  0999 V3000
M  V30 BEGIN CTAB
M  V30 COUNTS 55 59 0 0 0
M  V30 BEGIN ATOM
M  V30 1 O 2.141406 -4.254834 -3.045566 0
M  V30 2 C 0.991611 -3.833825 -2.752765 0
M  V30 3 C 0.819263 -3.330729 -1.381533 0
M  V30 4 C 0.312039 -4.246950 -0.500166 0
M  V30 5 C 0.125487 -3.838765 0.806558 0
M  V30 6 C 0.456950 -2.543250 1.150206 0
M  V30 7 C 0.976118 -1.605708 0.248191 0
M  V30 8 C 1.304196 -0.267770 0.658415 0
M  V30 9 C 1.599892 0.867130 1.019908 0
M  V30 10 C 1.953199 2.190301 1.466871 0
M  V30 11 C 2.935636 2.794848 0.738019 0
M  V30 12 C 3.373788 4.050620 1.058851 0
M  V30 13 C 2.790050 4.699561 2.152221 0
M  V30 14 C 1.815479 4.032271 2.830219 0
M  V30 15 C 1.328310 2.774193 2.563812 0
M  V30 16 N 0.316122 2.088694 3.276268 0
M  V30 17 C -0.380655 2.537228 4.404908 0
M  V30 18 N -0.200196 3.674277 5.061058 0
M  V30 19 C -0.888853 4.067510 6.137072 0
M  V30 20 N -1.862321 3.299081 6.656361 0
M  V30 21 C -2.117937 2.113330 6.048270 0
M  V30 22 C -3.121793 1.341991 6.590865 0
M  V30 23 C -3.406020 0.136604 5.989209 0
M  V30 24 C -2.644084 -0.205483 4.867663 0
M  V30 25 Cl -3.065582 -1.751471 4.160779 0
M  V30 26 N -1.674207 0.557339 4.357981 0
M  V30 27 C -1.379241 1.755111 4.942111 0
M  V30 28 C 1.152960 -2.043690 -1.058205 0
M  V30 29 N 0.054223 -3.916049 -3.798998 0
M  V30 30 C 0.624420 -4.484116 -5.025362 0
M  V30 31 C -0.354561 -4.296859 -6.140431 0
M  V30 32 N -1.670013 -4.709392 -5.646996 0
M  V30 33 C -2.195541 -3.700204 -4.751626 0
M  V30 34 C -1.299894 -3.457663 -3.570713 0
M  V30 35 H 0.052870 -5.255416 -0.762612 0
M  V30 36 H -0.275625 -4.515600 1.569040 0
M  V30 37 H 0.337407 -2.162538 2.147591 0
M  V30 38 H 3.412629 2.327786 -0.114408 0
M  V30 39 H 4.145043 4.544628 0.499620 0
M  V30 40 H 3.130184 5.686800 2.410532 0
M  V30 41 H 1.407512 4.582565 3.657103 0
M  V30 42 H 0.079253 1.137455 2.895469 0
M  V30 43 H -0.698146 5.024229 6.645462 0
M  V30 44 H -3.659132 1.678644 7.453861 0
M  V30 45 H -4.187788 -0.459450 6.416055 0
M  V30 46 H 1.550174 -1.358498 -1.790950 0
M  V30 47 H 1.623204 -4.069406 -5.202199 0
M  V30 48 H 0.685583 -5.582838 -4.820722 0
M  V30 49 H -0.352247 -3.260432 -6.491100 0
M  V30 50 H -0.119793 -5.024723 -6.952205 0
M  V30 51 H -1.485282 -5.565674 -5.051036 0
M  V30 52 H -2.276070 -2.770768 -5.349738 0
M  V30 53 H -3.232039 -3.971235 -4.463142 0
M  V30 54 H -1.280136 -2.368614 -3.374381 0
M  V30 55 H -1.722769 -4.051176 -2.728444 0
M  V30 END ATOM
M  V30 BEGIN BOND
M  V30 1 2 1 2
M  V30 2 1 2 3
M  V30 3 2 3 4
M  V30 4 1 4 5
M  V30 5 2 5 6
M  V30 6 1 6 7
M  V30 7 1 7 8
M  V30 8 3 8 9
M  V30 9 1 9 10
M  V30 10 2 10 11
M  V30 11 1 11 12
M  V30 12 2 12 13
M  V30 13 1 13 14
M  V30 14 2 14 15
M  V30 15 1 15 16
M  V30 16 1 16 17
M  V30 17 2 17 18
M  V30 18 1 18 19
M  V30 19 2 19 20
M  V30 20 1 20 21
M  V30 21 2 21 22
M  V30 22 1 22 23
M  V30 23 2 23 24
M  V30 24 1 24 25
M  V30 25 1 24 26
M  V30 26 2 26 27
M  V30 27 2 7 28
M  V30 28 1 2 29
M  V30 29 1 29 30
M  V30 30 1 30 31
M  V30 31 1 31 32
M  V30 32 1 32 33
M  V30 33 1 33 34
M  V30 34 1 28 3
M  V30 35 1 34 29
M  V30 36 1 15 10
M  V30 37 1 27 17
M  V30 38 1 27 21
M  V30 39 1 4 35
M  V30 40 1 5 36
M  V30 41 1 6 37
M  V30 42 1 11 38
M  V30 43 1 12 39
M  V30 44 1 13 40
M  V30 45 1 14 41
M  V30 46 1 16 42
M  V30 47 1 19 43
M  V30 48 1 22 44
M  V30 49 1 23 45
M  V30 50 1 28 46
M  V30 51 1 30 47
M  V30 52 1 30 48
M  V30 53 1 31 49
M  V30 54 1 31 50
M  V30 55 1 32 51
M  V30 56 1 33 52
M  V30 57 1 33 53
M  V30 58 1 34 54
M  V30 59 1 34 55
M  V30 END BOND
M  V30 END CTAB
M  END
>  <Dataset>  (90) 
ChEMBL_Kinases

>  <Ligand_Instance>  (90) 
nan

>  <PDB_ID>  (90) 
nan

>  <Standardized_SMILES>  (90) 
O=C(c1cccc(C#Cc2ccccc2Nc2ncnc3ccc(Cl)nc23)c1)N1CCNCC1

>  <Name>  (90) 
nan

>  <Pocket>  (90) 
nan

>  <ATP_Site>  (90) 
nan

>  <Peripheral>  (90) 
nan

>  <Num_H_Atoms_ProtBoundConf>  (90) 
nan

>  <Num_Resolved_Atoms>  (90) 
nan

>  <Num_Not_Resolved_Atoms>  (90) 
nan

$$$$
CHEMBL4867336
     RDKit          3D

  0  0  0  0  0  0  0  0  0  0999 V3000
M  V30 BEGIN CTAB
M  V30 COUNTS 28 30 0 0 0
M  V30 BEGIN ATOM
M  V30 1 O 3.051893 -1.676605 5.118597 0
M  V30 2 C 2.502811 -0.780835 4.432153 0
M  V30 3 O 2.652327 0.442477 5.028189 0
M  V30 4 C 1.798296 -0.984696 3.173343 0
M  V30 5 C 1.690459 -2.249838 2.635250 0
M  V30 6 C 1.004524 -2.395348 1.424811 0
M  V30 7 C 0.450343 -1.313301 0.782996 0
M  V30 8 C 0.573547 -0.063596 1.343075 0
M  V30 9 C 1.253478 0.120016 2.553911 0
M  V30 10 C 0.048559 1.073193 0.766938 0
M  V30 11 C -0.614047 0.863478 -0.420981 0
M  V30 12 N -1.167727 2.008773 -1.045023 0 CHG=1 VAL=4
M  V30 13 O -1.534597 3.029766 -0.468095 0
M  V30 14 O -1.525722 2.536572 -2.258683 0 CHG=-1 VAL=1
M  V30 15 C -0.765247 -0.363899 -1.022234 0
M  V30 16 C -1.429411 -0.572833 -2.212194 0
M  V30 17 C -1.556644 -1.824906 -2.779650 0
M  V30 18 N -0.999587 -2.865747 -2.122149 0
M  V30 19 C -0.342622 -2.707474 -0.958654 0
M  V30 20 C -0.216537 -1.459417 -0.394152 0
M  V30 21 H 2.609383 0.622000 6.038086 0
M  V30 22 H 2.139942 -3.084863 3.168946 0
M  V30 23 H 0.970934 -3.405840 1.083866 0
M  V30 24 H 1.363804 1.087885 3.012279 0
M  V30 25 H 0.154642 2.049039 1.221664 0
M  V30 26 H -1.864008 0.279982 -2.713068 0
M  V30 27 H -2.078554 -1.980358 -3.712344 0
M  V30 28 H 0.035366 -3.636611 -0.574269 0
M  V30 END ATOM
M  V30 BEGIN BOND
M  V30 1 2 1 2
M  V30 2 1 2 3
M  V30 3 1 2 4
M  V30 4 2 4 5
M  V30 5 1 5 6
M  V30 6 2 6 7
M  V30 7 1 7 8
M  V30 8 2 8 9
M  V30 9 1 8 10
M  V30 10 2 10 11
M  V30 11 1 11 12
M  V30 12 2 12 13
M  V30 13 1 12 14
M  V30 14 1 11 15
M  V30 15 2 15 16
M  V30 16 1 16 17
M  V30 17 2 17 18
M  V30 18 1 18 19
M  V30 19 2 19 20
M  V30 20 1 9 4
M  V30 21 1 20 15
M  V30 22 1 20 7
M  V30 23 1 3 21
M  V30 24 1 5 22
M  V30 25 1 6 23
M  V30 26 1 9 24
M  V30 27 1 10 25
M  V30 28 1 16 26
M  V30 29 1 17 27
M  V30 30 1 19 28
M  V30 END BOND
M  V30 END CTAB
M  END
>  <Dataset>  (91) 
ChEMBL_Kinases

>  <Ligand_Instance>  (91) 
nan

>  <PDB_ID>  (91) 
nan

>  <Standardized_SMILES>  (91) 
O=C(O)c1ccc2c(c1)cc([N+](=O)[O-])c1ccncc12

>  <Name>  (91) 
nan

>  <Pocket>  (91) 
nan

>  <ATP_Site>  (91) 
nan

>  <Peripheral>  (91) 
nan

>  <Num_H_Atoms_ProtBoundConf>  (91) 
nan

>  <Num_Resolved_Atoms>  (91) 
nan

>  <Num_Not_Resolved_Atoms>  (91) 
nan

$$$$
CHEMBL4867342
     RDKit          3D

  0  0  0  0  0  0  0  0  0  0999 V3000
M  V30 BEGIN CTAB
M  V30 COUNTS 59 63 0 0 0
M  V30 BEGIN ATOM
M  V30 1 C 2.980690 -0.628610 6.521522 0
M  V30 2 N 2.584695 0.608802 5.844571 0
M  V30 3 C 2.470783 1.694458 6.797847 0
M  V30 4 C 3.641739 0.911367 4.899926 0
M  V30 5 C 3.358551 2.169187 4.126714 0
M  V30 6 N 2.141148 2.121873 3.354604 0
M  V30 7 C 2.104137 1.678449 2.070154 0
M  V30 8 C 0.808056 1.756191 1.608093 0
M  V30 9 C 0.219927 1.406858 0.302500 0
M  V30 10 C 0.727042 0.371240 -0.465834 0
M  V30 11 C 0.116956 0.112040 -1.677270 0
M  V30 12 C -0.958084 0.822040 -2.155681 0
M  V30 13 C -1.517340 0.515380 -3.376600 0
M  V30 14 N -1.032638 -0.536928 -4.204427 0
M  V30 15 C -0.907982 -1.954352 -4.078358 0
M  V30 16 C -0.239374 -2.668033 -5.050445 0
M  V30 17 C -0.188858 -4.026714 -4.836360 0
M  V30 18 N -0.737623 -4.635355 -3.775264 0
M  V30 19 C -1.391488 -3.975945 -2.816396 0
M  V30 20 C -1.952206 -4.713818 -1.710978 0
M  V30 21 C -1.787718 -6.080078 -1.692070 0
M  V30 22 C -2.316357 -6.815143 -0.642351 0
M  V30 23 C -3.015387 -6.229228 0.408101 0
M  V30 24 F -3.526237 -6.963873 1.428359 0
M  V30 25 C -3.167493 -4.871843 0.370307 0
M  V30 26 C -2.645995 -4.143297 -0.665888 0
M  V30 27 C -1.474905 -2.607703 -2.976717 0
M  V30 28 C -2.589733 1.268844 -3.805237 0
M  V30 29 C -3.072963 2.295966 -3.016981 0
M  V30 30 N -2.491368 2.554923 -1.831245 0
M  V30 31 C -1.427793 1.843640 -1.355846 0
M  V30 32 C -0.872740 2.169889 -0.125635 0
M  V30 33 C 0.086878 2.265928 2.681919 0
M  V30 34 N 0.918528 2.475613 3.718940 0
M  V30 35 H 3.571975 -0.406143 7.452289 0
M  V30 36 H 3.519286 -1.278237 5.814131 0
M  V30 37 H 2.040398 -1.131619 6.800314 0
M  V30 38 H 1.646291 2.357391 6.418725 0
M  V30 39 H 2.195556 1.325744 7.807742 0
M  V30 40 H 3.398960 2.315842 6.803281 0
M  V30 41 H 4.546386 1.150302 5.530691 0
M  V30 42 H 3.890951 0.059620 4.256554 0
M  V30 43 H 3.215401 3.002756 4.857285 0
M  V30 44 H 4.224863 2.357262 3.456732 0
M  V30 45 H 2.899384 1.302352 1.416636 0
M  V30 46 H 1.562115 -0.160327 -0.064748 0
M  V30 47 H 0.539854 -0.698295 -2.253742 0
M  V30 48 H -0.713920 -0.080402 -5.088280 0
M  V30 49 H 0.200192 -2.174562 -5.902098 0
M  V30 50 H 0.332461 -4.623008 -5.586316 0
M  V30 51 H -1.270842 -6.656287 -2.438824 0
M  V30 52 H -2.211333 -7.894200 -0.585670 0
M  V30 53 H -3.703851 -4.379893 1.166589 0
M  V30 54 H -2.790339 -3.078935 -0.653324 0
M  V30 55 H -1.999386 -2.033913 -2.216602 0
M  V30 56 H -3.107404 1.120082 -4.743804 0
M  V30 57 H -3.903659 2.957713 -3.237861 0
M  V30 58 H -1.274198 2.989858 0.484087 0
M  V30 59 H -0.985122 2.450191 2.641788 0
M  V30 END ATOM
M  V30 BEGIN BOND
M  V30 1 1 1 2
M  V30 2 1 2 3
M  V30 3 1 2 4
M  V30 4 1 4 5
M  V30 5 1 5 6
M  V30 6 1 6 7
M  V30 7 2 7 8
M  V30 8 1 8 9
M  V30 9 2 9 10
M  V30 10 1 10 11
M  V30 11 2 11 12
M  V30 12 1 12 13
M  V30 13 1 13 14
M  V30 14 1 14 15
M  V30 15 2 15 16
M  V30 16 1 16 17
M  V30 17 2 17 18
M  V30 18 1 18 19
M  V30 19 1 19 20
M  V30 20 2 20 21
M  V30 21 1 21 22
M  V30 22 2 22 23
M  V30 23 1 23 24
M  V30 24 1 23 25
M  V30 25 2 25 26
M  V30 26 2 19 27
M  V30 27 2 13 28
M  V30 28 1 28 29
M  V30 29 2 29 30
M  V30 30 1 30 31
M  V30 31 2 31 32
M  V30 32 1 8 33
M  V30 33 2 33 34
M  V30 34 1 34 6
M  V30 35 1 32 9
M  V30 36 1 31 12
M  V30 37 1 27 15
M  V30 38 1 26 20
M  V30 39 1 1 35
M  V30 40 1 1 36
M  V30 41 1 1 37
M  V30 42 1 3 38
M  V30 43 1 3 39
M  V30 44 1 3 40
M  V30 45 1 4 41
M  V30 46 1 4 42
M  V30 47 1 5 43
M  V30 48 1 5 44
M  V30 49 1 7 45
M  V30 50 1 10 46
M  V30 51 1 11 47
M  V30 52 1 14 48
M  V30 53 1 16 49
M  V30 54 1 17 50
M  V30 55 1 21 51
M  V30 56 1 22 52
M  V30 57 1 25 53
M  V30 58 1 26 54
M  V30 59 1 27 55
M  V30 60 1 28 56
M  V30 61 1 29 57
M  V30 62 1 32 58
M  V30 63 1 33 59
M  V30 END BOND
M  V30 END CTAB
M  END
>  <Dataset>  (92) 
ChEMBL_Kinases

>  <Ligand_Instance>  (92) 
nan

>  <PDB_ID>  (92) 
nan

>  <Standardized_SMILES>  (92) 
CN(C)CCn1cc(-c2ccc3c(Nc4ccnc(-c5ccc(F)cc5)c4)ccnc3c2)cn1

>  <Name>  (92) 
nan

>  <Pocket>  (92) 
nan

>  <ATP_Site>  (92) 
nan

>  <Peripheral>  (92) 
nan

>  <Num_H_Atoms_ProtBoundConf>  (92) 
nan

>  <Num_Resolved_Atoms>  (92) 
nan

>  <Num_Not_Resolved_Atoms>  (92) 
nan

$$$$
CHEMBL89697
     RDKit          3D

  0  0  0  0  0  0  0  0  0  0999 V3000
M  V30 BEGIN CTAB
M  V30 COUNTS 28 30 0 0 0
M  V30 BEGIN ATOM
M  V30 1 C -2.377842 -2.217656 3.790507 0
M  V30 2 C -0.990407 -1.863227 3.371539 0
M  V30 3 C -0.047814 -1.307154 4.208749 0
M  V30 4 C 1.043544 -1.177092 3.347865 0
M  V30 5 C 0.739888 -1.638248 2.076185 0
M  V30 6 C 1.842179 -1.533497 1.138892 0
M  V30 7 C 1.980996 -0.954922 -0.029097 0
M  V30 8 C 3.110094 -0.877076 -0.952772 0
M  V30 9 O 4.191572 -1.460409 -0.709665 0
M  V30 10 N 2.675932 -0.069613 -2.035905 0
M  V30 11 C 1.338965 0.339068 -1.799101 0
M  V30 12 C 0.530355 1.136197 -2.573892 0
M  V30 13 C -0.749803 1.444114 -2.173105 0
M  V30 14 C -1.203950 0.930116 -0.967764 0
M  V30 15 C -0.359398 0.137326 -0.227249 0
M  V30 16 C 0.905265 -0.180683 -0.602021 0
M  V30 17 O -0.519118 -2.039856 2.171661 0
M  V30 18 H -2.948869 -2.713867 2.985002 0
M  V30 19 H -2.358665 -2.874253 4.689973 0
M  V30 20 H -2.904813 -1.285435 4.127992 0
M  V30 21 H -0.216936 -1.073198 5.243351 0
M  V30 22 H 1.942276 -0.739586 3.831051 0
M  V30 23 H 2.777617 -2.043612 1.429063 0
M  V30 24 H 3.346754 0.112396 -2.819101 0
M  V30 25 H 0.900902 1.529055 -3.509338 0
M  V30 26 H -1.339018 2.073548 -2.819224 0
M  V30 27 H -2.226441 1.237032 -0.750898 0
M  V30 28 H -0.877661 -0.142453 0.659912 0
M  V30 END ATOM
M  V30 BEGIN BOND
M  V30 1 1 1 2
M  V30 2 2 2 3
M  V30 3 1 3 4
M  V30 4 2 4 5
M  V30 5 1 5 6
M  V30 6 2 6 7
M  V30 7 1 7 8
M  V30 8 2 8 9
M  V30 9 1 8 10
M  V30 10 1 10 11
M  V30 11 2 11 12
M  V30 12 1 12 13
M  V30 13 2 13 14
M  V30 14 1 14 15
M  V30 15 2 15 16
M  V30 16 1 5 17
M  V30 17 1 17 2
M  V30 18 1 16 7
M  V30 19 1 16 11
M  V30 20 1 1 18
M  V30 21 1 1 19
M  V30 22 1 1 20
M  V30 23 1 3 21
M  V30 24 1 4 22
M  V30 25 1 6 23
M  V30 26 1 10 24
M  V30 27 1 12 25
M  V30 28 1 13 26
M  V30 29 1 14 27
M  V30 30 1 15 28
M  V30 END BOND
M  V30 END CTAB
M  END
>  <Dataset>  (93) 
ChEMBL_Kinases

>  <Ligand_Instance>  (93) 
nan

>  <PDB_ID>  (93) 
nan

>  <Standardized_SMILES>  (93) 
Cc1ccc(/C=C2/C(=O)Nc3ccccc32)o1

>  <Name>  (93) 
nan

>  <Pocket>  (93) 
nan

>  <ATP_Site>  (93) 
nan

>  <Peripheral>  (93) 
nan

>  <Num_H_Atoms_ProtBoundConf>  (93) 
nan

>  <Num_Resolved_Atoms>  (93) 
nan

>  <Num_Not_Resolved_Atoms>  (93) 
nan

$$$$
CHEMBL4867422
     RDKit          3D

  0  0  0  0  0  0  0  0  0  0999 V3000
M  V30 BEGIN CTAB
M  V30 COUNTS 51 54 0 0 0
M  V30 BEGIN ATOM
M  V30 1 C 4.750530 -4.602996 3.015059 0
M  V30 2 N 4.608955 -3.754649 4.164875 0
M  V30 3 N 5.171639 -4.034987 5.325653 0
M  V30 4 C 4.876853 -3.076223 6.224114 0
M  V30 5 C 4.090884 -2.182159 5.535162 0
M  V30 6 C 3.927540 -2.615716 4.242624 0
M  V30 7 C 3.161017 -1.935470 3.215465 0
M  V30 8 C 3.562480 -1.724980 1.911229 0
M  V30 9 C 2.717319 -1.050071 1.022084 0
M  V30 10 C 1.485951 -0.595691 1.446260 0
M  V30 11 C 0.659439 0.100536 0.460358 0
M  V30 12 O 1.128634 0.237018 -0.700057 0
M  V30 13 N -0.632584 0.629679 0.728136 0
M  V30 14 C -1.400169 1.302013 -0.270352 0 CFG=2
M  V30 15 C -1.658546 2.756821 -0.010293 0
M  V30 16 N -2.506490 3.234448 -1.084923 0
M  V30 17 C -3.781619 2.600308 -1.122434 0
M  V30 18 C -3.859445 1.361850 -0.305194 0
M  V30 19 C -2.659904 0.508701 -0.521718 0 CFG=1
M  V30 20 C -2.662051 -0.200319 -1.816982 0
M  V30 21 C -2.999014 -1.553905 -1.849830 0
M  V30 22 C -3.032374 -2.338895 -3.003707 0
M  V30 23 C -2.708503 -1.732076 -4.198901 0
M  V30 24 F -2.734368 -2.474342 -5.330788 0
M  V30 25 C -2.367614 -0.395656 -4.222984 0
M  V30 26 F -2.044832 0.216958 -5.399838 0
M  V30 27 C -2.351735 0.330090 -3.050764 0
M  V30 28 C 1.074141 -0.800213 2.747046 0
M  V30 29 C 1.911926 -1.472571 3.639301 0
M  V30 30 F 1.442946 -1.641611 4.913037 0
M  V30 31 H 4.030485 -4.378590 2.200284 0
M  V30 32 H 5.776928 -4.483384 2.620601 0
M  V30 33 H 4.645174 -5.656042 3.365964 0
M  V30 34 H 5.198016 -3.031360 7.266686 0
M  V30 35 H 3.674349 -1.284127 5.957279 0
M  V30 36 H 4.538284 -2.102768 1.632804 0
M  V30 37 H 3.102259 -0.920358 0.005922 0
M  V30 38 H -1.025632 0.518870 1.688480 0
M  V30 39 H -0.751762 1.286585 -1.196278 0
M  V30 40 H -0.707125 3.288042 -0.080744 0
M  V30 41 H -2.161248 2.997123 0.922765 0
M  V30 42 H -2.629436 4.267079 -1.003740 0
M  V30 43 H -4.025328 2.376626 -2.199321 0
M  V30 44 H -4.598087 3.297050 -0.791977 0
M  V30 45 H -4.814730 0.826547 -0.447544 0
M  V30 46 H -3.887729 1.652277 0.786483 0
M  V30 47 H -2.759165 -0.324582 0.251256 0
M  V30 48 H -3.263658 -2.093869 -0.951524 0
M  V30 49 H -3.294938 -3.367525 -2.983719 0
M  V30 50 H -2.080654 1.354738 -3.100097 0
M  V30 51 H 0.110690 -0.444931 3.079441 0
M  V30 END ATOM
M  V30 BEGIN BOND
M  V30 1 1 1 2
M  V30 2 1 2 3
M  V30 3 2 3 4
M  V30 4 1 4 5
M  V30 5 2 5 6
M  V30 6 1 6 7
M  V30 7 2 7 8
M  V30 8 1 8 9
M  V30 9 2 9 10
M  V30 10 1 10 11
M  V30 11 2 11 12
M  V30 12 1 11 13
M  V30 13 1 13 14
M  V30 14 1 14 15
M  V30 15 1 15 16
M  V30 16 1 16 17
M  V30 17 1 17 18
M  V30 18 1 18 19
M  V30 19 1 19 20
M  V30 20 2 20 21
M  V30 21 1 21 22
M  V30 22 2 22 23
M  V30 23 1 23 24
M  V30 24 1 23 25
M  V30 25 1 25 26
M  V30 26 2 25 27
M  V30 27 1 10 28
M  V30 28 2 28 29
M  V30 29 1 29 30
M  V30 30 1 6 2
M  V30 31 1 29 7
M  V30 32 1 19 14
M  V30 33 1 27 20
M  V30 34 1 1 31
M  V30 35 1 1 32
M  V30 36 1 1 33
M  V30 37 1 4 34
M  V30 38 1 5 35
M  V30 39 1 8 36
M  V30 40 1 9 37
M  V30 41 1 13 38
M  V30 42 1 14 39 CFG=3
M  V30 43 1 15 40
M  V30 44 1 15 41
M  V30 45 1 16 42
M  V30 46 1 17 43
M  V30 47 1 17 44
M  V30 48 1 18 45
M  V30 49 1 18 46
M  V30 50 1 19 47 CFG=1
M  V30 51 1 21 48
M  V30 52 1 22 49
M  V30 53 1 27 50
M  V30 54 1 28 51
M  V30 END BOND
M  V30 END CTAB
M  END
>  <Dataset>  (94) 
ChEMBL_Kinases

>  <Ligand_Instance>  (94) 
nan

>  <PDB_ID>  (94) 
nan

>  <Standardized_SMILES>  (94) 
Cn1nccc1-c1ccc(C(=O)N[C@@H]2CNCC[C@H]2c2ccc(F)c(F)c2)cc1F

>  <Name>  (94) 
nan

>  <Pocket>  (94) 
nan

>  <ATP_Site>  (94) 
nan

>  <Peripheral>  (94) 
nan

>  <Num_H_Atoms_ProtBoundConf>  (94) 
nan

>  <Num_Resolved_Atoms>  (94) 
nan

>  <Num_Not_Resolved_Atoms>  (94) 
nan

$$$$
CHEMBL4867504
     RDKit          3D

  0  0  0  0  0  0  0  0  0  0999 V3000
M  V30 BEGIN CTAB
M  V30 COUNTS 81 85 0 0 0
M  V30 BEGIN ATOM
M  V30 1 C 2.881580 -4.526424 3.197202 0
M  V30 2 O 2.000404 -3.423015 3.184336 0
M  V30 3 C 0.912036 -3.317687 2.343471 0
M  V30 4 C 0.517554 -4.243444 1.405686 0
M  V30 5 C -0.576377 -4.100027 0.584877 0
M  V30 6 N -0.907938 -5.104188 -0.361499 0
M  V30 7 C 0.022428 -6.168881 -0.661203 0
M  V30 8 C -0.612679 -7.119011 -1.643050 0
M  V30 9 N -1.212278 -6.518660 -2.784509 0
M  V30 10 C -0.535788 -6.709420 -4.028979 0
M  V30 11 C -1.748984 -5.214609 -2.562829 0
M  V30 12 C -2.158525 -5.167823 -1.084380 0
M  V30 13 C -1.318446 -2.943374 0.724073 0
M  V30 14 C -0.930149 -2.009647 1.662204 0
M  V30 15 C 0.163904 -2.143444 2.488872 0
M  V30 16 N 0.469683 -1.136252 3.442853 0
M  V30 17 C -0.187794 0.120023 3.578701 0
M  V30 18 N -0.424269 0.441542 4.861737 0
M  V30 19 C -1.019706 1.586322 5.222252 0
M  V30 20 C -1.406511 2.472468 4.247272 0
M  V30 21 C -2.009132 3.633530 4.628259 0
M  V30 22 C -2.267214 3.976949 6.047826 0
M  V30 23 C -2.372967 4.488752 3.581107 0
M  V30 24 C -2.111009 4.121371 2.289234 0
M  V30 25 O -2.497836 4.996054 1.466103 0
M  V30 26 N -1.503732 2.944006 1.969936 0
M  V30 27 C -1.325466 2.813649 0.550264 0 CFG=1
M  V30 28 C -0.645909 4.073003 -0.011428 0
M  V30 29 C 0.509609 3.761871 -0.906381 0
M  V30 30 C 0.128953 2.803477 -2.010574 0 CFG=1
M  V30 31 N 1.369192 2.313659 -2.606063 0
M  V30 32 C 1.814321 2.458350 -3.941119 0
M  V30 33 O 1.112343 3.069696 -4.774195 0
M  V30 34 C 3.143904 1.834473 -4.231446 0
M  V30 35 C 4.230838 2.431452 -3.386023 0
M  V30 36 C 3.010692 0.380760 -3.804868 0
M  V30 37 C -0.648115 1.648579 -1.470663 0
M  V30 38 C -0.597916 1.624407 0.066400 0
M  V30 39 C -1.155075 2.125038 2.943472 0
M  V30 40 N -0.565915 0.990447 2.591885 0
M  V30 41 H 2.394140 -5.488979 2.943915 0
M  V30 42 H 3.686906 -4.374949 2.445528 0
M  V30 43 H 3.377091 -4.559675 4.191779 0
M  V30 44 H 1.118624 -5.146765 1.317504 0
M  V30 45 H 0.231583 -6.779295 0.253310 0
M  V30 46 H 0.944543 -5.752712 -1.116758 0
M  V30 47 H -1.420905 -7.722211 -1.139851 0
M  V30 48 H 0.176220 -7.847522 -1.991616 0
M  V30 49 H -1.203960 -7.224852 -4.764725 0
M  V30 50 H -0.308456 -5.686255 -4.447571 0
M  V30 51 H 0.433815 -7.228657 -3.889960 0
M  V30 52 H -0.929807 -4.478864 -2.708160 0
M  V30 53 H -2.613442 -4.961643 -3.210269 0
M  V30 54 H -2.858775 -4.361559 -0.885073 0
M  V30 55 H -2.698856 -6.123615 -0.843857 0
M  V30 56 H -2.185021 -2.747154 0.128199 0
M  V30 57 H -1.525665 -1.116718 1.762336 0
M  V30 58 H 1.265063 -1.375795 4.095794 0
M  V30 59 H -1.198306 1.820602 6.269818 0
M  V30 60 H -1.340086 4.284235 6.548143 0
M  V30 61 H -3.016682 4.814332 6.097689 0
M  V30 62 H -2.748369 3.157473 6.621312 0
M  V30 63 H -2.857168 5.419437 3.888609 0
M  V30 64 H -2.341006 2.803182 0.103679 0
M  V30 65 H -1.345709 4.719637 -0.554440 0
M  V30 66 H -0.279069 4.660133 0.856529 0
M  V30 67 H 1.435240 3.438517 -0.372870 0
M  V30 68 H 0.785285 4.722637 -1.408116 0
M  V30 69 H -0.496260 3.341871 -2.758310 0
M  V30 70 H 1.888994 1.819919 -1.849522 0
M  V30 71 H 3.325807 1.915441 -5.317827 0
M  V30 72 H 5.194439 2.075927 -3.827762 0
M  V30 73 H 4.157476 2.053212 -2.361822 0
M  V30 74 H 4.274011 3.542752 -3.441500 0
M  V30 75 H 1.966682 0.018600 -3.940398 0
M  V30 76 H 3.232958 0.327559 -2.732728 0
M  V30 77 H 3.723967 -0.255114 -4.363680 0
M  V30 78 H -0.207403 0.677702 -1.784261 0
M  V30 79 H -1.713479 1.634744 -1.832737 0
M  V30 80 H -1.181326 0.714280 0.316850 0
M  V30 81 H 0.469676 1.579232 0.325175 0
M  V30 END ATOM
M  V30 BEGIN BOND
M  V30 1 1 1 2
M  V30 2 1 2 3
M  V30 3 2 3 4
M  V30 4 1 4 5
M  V30 5 1 5 6
M  V30 6 1 6 7
M  V30 7 1 7 8
M  V30 8 1 8 9
M  V30 9 1 9 10
M  V30 10 1 9 11
M  V30 11 1 11 12
M  V30 12 2 5 13
M  V30 13 1 13 14
M  V30 14 2 14 15
M  V30 15 1 15 16
M  V30 16 1 16 17
M  V30 17 2 17 18
M  V30 18 1 18 19
M  V30 19 2 19 20
M  V30 20 1 20 21
M  V30 21 1 21 22
M  V30 22 2 21 23
M  V30 23 1 23 24
M  V30 24 2 24 25
M  V30 25 1 24 26
M  V30 26 1 26 27
M  V30 27 1 27 28
M  V30 28 1 28 29
M  V30 29 1 29 30
M  V30 30 1 30 31
M  V30 31 1 31 32
M  V30 32 2 32 33
M  V30 33 1 32 34
M  V30 34 1 34 35
M  V30 35 1 34 36
M  V30 36 1 30 37
M  V30 37 1 37 38
M  V30 38 1 26 39
M  V30 39 2 39 40
M  V30 40 1 15 3
M  V30 41 1 40 17
M  V30 42 1 12 6
M  V30 43 1 39 20
M  V30 44 1 38 27
M  V30 45 1 1 41
M  V30 46 1 1 42
M  V30 47 1 1 43
M  V30 48 1 4 44
M  V30 49 1 7 45
M  V30 50 1 7 46
M  V30 51 1 8 47
M  V30 52 1 8 48
M  V30 53 1 10 49
M  V30 54 1 10 50
M  V30 55 1 10 51
M  V30 56 1 11 52
M  V30 57 1 11 53
M  V30 58 1 12 54
M  V30 59 1 12 55
M  V30 60 1 13 56
M  V30 61 1 14 57
M  V30 62 1 16 58
M  V30 63 1 19 59
M  V30 64 1 22 60
M  V30 65 1 22 61
M  V30 66 1 22 62
M  V30 67 1 23 63
M  V30 68 1 27 64 CFG=3
M  V30 69 1 28 65
M  V30 70 1 28 66
M  V30 71 1 29 67
M  V30 72 1 29 68
M  V30 73 1 30 69 CFG=3
M  V30 74 1 31 70
M  V30 75 1 34 71
M  V30 76 1 35 72
M  V30 77 1 35 73
M  V30 78 1 35 74
M  V30 79 1 36 75
M  V30 80 1 36 76
M  V30 81 1 36 77
M  V30 82 1 37 78
M  V30 83 1 37 79
M  V30 84 1 38 80
M  V30 85 1 38 81
M  V30 END BOND
M  V30 END CTAB
M  END
>  <Dataset>  (95) 
ChEMBL_Kinases

>  <Ligand_Instance>  (95) 
nan

>  <PDB_ID>  (95) 
nan

>  <Standardized_SMILES>  (95) 
COc1cc(N2CCN(C)CC2)ccc1Nc1ncc2c(C)cc(=O)n([C@H]3CC[C@@H](NC(=O)C(C)C)CC3)c2n1

>  <Name>  (95) 
nan

>  <Pocket>  (95) 
nan

>  <ATP_Site>  (95) 
nan

>  <Peripheral>  (95) 
nan

>  <Num_H_Atoms_ProtBoundConf>  (95) 
nan

>  <Num_Resolved_Atoms>  (95) 
nan

>  <Num_Not_Resolved_Atoms>  (95) 
nan

$$$$
CHEMBL4867552
     RDKit          3D

  0  0  0  0  0  0  0  0  0  0999 V3000
M  V30 BEGIN CTAB
M  V30 COUNTS 51 53 0 0 0
M  V30 BEGIN ATOM
M  V30 1 C 0.371287 -4.391093 0.308751 0
M  V30 2 C 1.115362 -4.237843 1.590408 0
M  V30 3 C 0.819519 -3.027623 2.362959 0
M  V30 4 C 1.724220 -1.956676 2.355127 0
M  V30 5 C 1.464681 -0.789142 3.089112 0
M  V30 6 N 2.526201 0.185250 2.932690 0
M  V30 7 C 2.176973 0.974053 1.832476 0
M  V30 8 O 1.089403 0.639791 1.301414 0
M  V30 9 N 2.883900 2.064659 1.271986 0
M  V30 10 C 2.604086 2.906005 0.168575 0
M  V30 11 C 3.478683 3.893318 -0.112543 0
M  V30 12 C 3.250922 4.741136 -1.183030 0
M  V30 13 C 2.141728 4.611685 -1.987891 0
M  V30 14 C 1.219569 3.602397 -1.723734 0
M  V30 15 C -0.001323 3.398602 -2.544174 0
M  V30 16 F -0.942496 2.732017 -1.774302 0
M  V30 17 F -0.514253 4.630675 -2.908076 0
M  V30 18 F 0.240049 2.636531 -3.669107 0
M  V30 19 C 1.501080 2.783789 -0.638165 0
M  V30 20 C 0.313792 -0.653836 3.842070 0
M  V30 21 C -0.587131 -1.700548 3.859151 0
M  V30 22 Cl -2.029131 -1.500298 4.820535 0
M  V30 23 C -0.314420 -2.843587 3.129349 0
M  V30 24 O -1.275282 -3.846429 3.203087 0
M  V30 25 C -2.350993 -3.852549 2.313491 0
M  V30 26 C -2.459072 -2.841171 1.352223 0
M  V30 27 C -3.533169 -2.869508 0.483227 0
M  V30 28 N -3.522258 -1.778488 -0.449237 0
M  V30 29 C -2.860496 -1.876864 -1.738343 0
M  V30 30 N -4.478065 -3.826082 0.520759 0
M  V30 31 C -4.345305 -4.785506 1.458101 0
M  V30 32 N -3.301552 -4.802811 2.341503 0
M  V30 33 H -0.485283 -5.074969 0.471773 0
M  V30 34 H -0.031485 -3.447642 -0.093166 0
M  V30 35 H 1.018651 -4.919177 -0.435416 0
M  V30 36 H 2.205907 -4.254333 1.356846 0
M  V30 37 H 0.939432 -5.137507 2.217440 0
M  V30 38 H 2.619873 -2.102058 1.748692 0
M  V30 39 H 3.445207 0.437292 3.411194 0
M  V30 40 H 3.772311 2.216618 1.834358 0
M  V30 41 H 4.367250 4.092282 0.434003 0
M  V30 42 H 3.924865 5.529784 -1.427650 0
M  V30 43 H 1.934406 5.262544 -2.838313 0
M  V30 44 H 0.768488 2.016611 -0.465478 0
M  V30 45 H 0.225951 0.276861 4.356989 0
M  V30 46 H -1.685792 -2.088004 1.346203 0
M  V30 47 H -3.964216 -0.849441 -0.305039 0
M  V30 48 H -2.805066 -2.958798 -1.985607 0
M  V30 49 H -1.873468 -1.401393 -1.673680 0
M  V30 50 H -3.439567 -1.382744 -2.538422 0
M  V30 51 H -5.096272 -5.562485 1.501540 0
M  V30 END ATOM
M  V30 BEGIN BOND
M  V30 1 1 1 2
M  V30 2 1 2 3
M  V30 3 2 3 4
M  V30 4 1 4 5
M  V30 5 1 5 6
M  V30 6 1 6 7
M  V30 7 2 7 8
M  V30 8 1 7 9
M  V30 9 1 9 10
M  V30 10 2 10 11
M  V30 11 1 11 12
M  V30 12 2 12 13
M  V30 13 1 13 14
M  V30 14 1 14 15
M  V30 15 1 15 16
M  V30 16 1 15 17
M  V30 17 1 15 18
M  V30 18 2 14 19
M  V30 19 2 5 20
M  V30 20 1 20 21
M  V30 21 1 21 22
M  V30 22 2 21 23
M  V30 23 1 23 24
M  V30 24 1 24 25
M  V30 25 2 25 26
M  V30 26 1 26 27
M  V30 27 1 27 28
M  V30 28 1 28 29
M  V30 29 2 27 30
M  V30 30 1 30 31
M  V30 31 2 31 32
M  V30 32 1 23 3
M  V30 33 1 32 25
M  V30 34 1 19 10
M  V30 35 1 1 33
M  V30 36 1 1 34
M  V30 37 1 1 35
M  V30 38 1 2 36
M  V30 39 1 2 37
M  V30 40 1 4 38
M  V30 41 1 6 39
M  V30 42 1 9 40
M  V30 43 1 11 41
M  V30 44 1 12 42
M  V30 45 1 13 43
M  V30 46 1 19 44
M  V30 47 1 20 45
M  V30 48 1 26 46
M  V30 49 1 28 47
M  V30 50 1 29 48
M  V30 51 1 29 49
M  V30 52 1 29 50
M  V30 53 1 31 51
M  V30 END BOND
M  V30 END CTAB
M  END
>  <Dataset>  (96) 
ChEMBL_Kinases

>  <Ligand_Instance>  (96) 
nan

>  <PDB_ID>  (96) 
nan

>  <Standardized_SMILES>  (96) 
CCc1cc(NC(=O)Nc2cccc(C(F)(F)F)c2)cc(Cl)c1Oc1cc(NC)ncn1

>  <Name>  (96) 
nan

>  <Pocket>  (96) 
nan

>  <ATP_Site>  (96) 
nan

>  <Peripheral>  (96) 
nan

>  <Num_H_Atoms_ProtBoundConf>  (96) 
nan

>  <Num_Resolved_Atoms>  (96) 
nan

>  <Num_Not_Resolved_Atoms>  (96) 
nan

$$$$
CHEMBL4867596
     RDKit          3D

  0  0  0  0  0  0  0  0  0  0999 V3000
M  V30 BEGIN CTAB
M  V30 COUNTS 32 34 0 0 0
M  V30 BEGIN ATOM
M  V30 1 C -0.850715 -3.309345 4.339345 0
M  V30 2 N -0.434198 -2.631238 3.128482 0
M  V30 3 C 0.052114 -3.423269 2.074667 0
M  V30 4 O -0.012566 -4.618874 2.513154 0
M  V30 5 C 0.553711 -3.191104 0.747555 0
M  V30 6 C 0.963919 -4.322567 0.059916 0
M  V30 7 N 1.399591 -3.897457 -1.163178 0
M  V30 8 C 1.286793 -2.583842 -1.278736 0
M  V30 9 C 1.555842 -1.637514 -2.244757 0
M  V30 10 C 1.307506 -0.296149 -2.030452 0
M  V30 11 C 0.776954 0.074952 -0.810308 0
M  V30 12 C 0.483792 1.492156 -0.507999 0
M  V30 13 C 1.079361 2.671525 -0.904705 0
M  V30 14 N 0.429533 3.705622 -0.344825 0
M  V30 15 N -0.569164 3.225146 0.402516 0
M  V30 16 C -1.570042 3.931231 1.217902 0
M  V30 17 C -0.570057 1.877610 0.329389 0
M  V30 18 C 0.525129 -0.906727 0.123157 0
M  V30 19 N 0.778930 -2.199924 -0.118964 0
M  V30 20 H -0.008435 -3.758333 4.879891 0
M  V30 21 H -1.329311 -2.586330 5.043389 0
M  V30 22 H -1.673255 -4.056926 4.136460 0
M  V30 23 H -0.445811 -1.615797 2.930248 0
M  V30 24 H 1.057808 -5.409223 0.154319 0
M  V30 25 H 1.972762 -1.965352 -3.192090 0
M  V30 26 H 1.519202 0.460799 -2.793080 0
M  V30 27 H 1.933805 2.679511 -1.565344 0
M  V30 28 H -1.411316 5.018954 1.107825 0
M  V30 29 H -2.578003 3.585012 0.995285 0
M  V30 30 H -1.389110 3.707442 2.311649 0
M  V30 31 H -1.250211 1.189793 0.818618 0
M  V30 32 H 0.113325 -0.554078 1.048044 0
M  V30 END ATOM
M  V30 BEGIN BOND
M  V30 1 1 1 2
M  V30 2 1 2 3
M  V30 3 2 3 4
M  V30 4 1 3 5
M  V30 5 2 5 6
M  V30 6 1 6 7
M  V30 7 2 7 8
M  V30 8 1 8 9
M  V30 9 2 9 10
M  V30 10 1 10 11
M  V30 11 1 11 12
M  V30 12 1 12 13
M  V30 13 2 13 14
M  V30 14 1 14 15
M  V30 15 1 15 16
M  V30 16 1 15 17
M  V30 17 2 11 18
M  V30 18 1 18 19
M  V30 19 1 19 5
M  V30 20 1 19 8
M  V30 21 2 17 12
M  V30 22 1 1 20
M  V30 23 1 1 21
M  V30 24 1 1 22
M  V30 25 1 2 23
M  V30 26 1 6 24
M  V30 27 1 9 25
M  V30 28 1 10 26
M  V30 29 1 13 27
M  V30 30 1 16 28
M  V30 31 1 16 29
M  V30 32 1 16 30
M  V30 33 1 17 31
M  V30 34 1 18 32
M  V30 END BOND
M  V30 END CTAB
M  END
>  <Dataset>  (97) 
ChEMBL_Kinases

>  <Ligand_Instance>  (97) 
nan

>  <PDB_ID>  (97) 
nan

>  <Standardized_SMILES>  (97) 
CNC(=O)c1cnc2ccc(-c3cnn(C)c3)cn12

>  <Name>  (97) 
nan

>  <Pocket>  (97) 
nan

>  <ATP_Site>  (97) 
nan

>  <Peripheral>  (97) 
nan

>  <Num_H_Atoms_ProtBoundConf>  (97) 
nan

>  <Num_Resolved_Atoms>  (97) 
nan

>  <Num_Not_Resolved_Atoms>  (97) 
nan

$$$$
CHEMBL4867633
     RDKit          3D

  0  0  0  0  0  0  0  0  0  0999 V3000
M  V30 BEGIN CTAB
M  V30 COUNTS 56 60 0 0 0
M  V30 BEGIN ATOM
M  V30 1 N 0.692754 -3.875447 3.634414 0
M  V30 2 C 1.603123 -3.271560 3.241983 0
M  V30 3 C 2.733682 -2.524747 2.735012 0
M  V30 4 C 3.972705 -3.149978 2.704693 0
M  V30 5 C 5.041246 -2.427940 2.219456 0
M  V30 6 C 4.883252 -1.130002 1.779900 0
M  V30 7 N 5.943362 -0.430116 1.304154 0
M  V30 8 C 5.759313 0.827426 0.884434 0
M  V30 9 N 4.553629 1.420167 0.919659 0
M  V30 10 C 3.460091 0.808336 1.370293 0
M  V30 11 N 2.184683 1.451205 1.402851 0
M  V30 12 C 2.125937 2.808135 0.919956 0
M  V30 13 C 0.761882 3.401189 0.974132 0
M  V30 14 C -0.189850 2.626082 0.144583 0
M  V30 15 C -0.194880 3.046671 -1.188810 0
M  V30 16 C -1.007088 2.483977 -2.166535 0
M  V30 17 C -1.858108 1.454403 -1.813748 0
M  V30 18 C -2.686215 0.858877 -2.743389 0
M  V30 19 C -3.528309 -0.169560 -2.364008 0
M  V30 20 C -3.514112 -0.580832 -1.027659 0
M  V30 21 C -4.376682 -1.671158 -0.523140 0
M  V30 22 O -5.595512 -1.913547 -0.448639 0
M  V30 23 N -3.579223 -2.737205 0.030407 0
M  V30 24 C -4.199566 -3.940861 0.599893 0
M  V30 25 C -3.946871 -5.026448 -0.421763 0
M  V30 26 O -2.643210 -4.964914 -0.872141 0
M  V30 27 C -1.788302 -4.290364 -0.031347 0
M  V30 28 C -2.123316 -2.820974 0.124634 0
M  V30 29 C -2.685852 0.007381 -0.074619 0
M  V30 30 C -1.857602 1.034712 -0.497336 0
M  V30 31 C -1.051544 1.598170 0.458188 0
M  V30 32 C 3.656638 -0.485607 1.800635 0
M  V30 33 C 2.619695 -1.227073 2.286380 0
M  V30 34 H 4.052964 -4.168308 3.058562 0
M  V30 35 H 6.017669 -2.887392 2.183450 0
M  V30 36 H 6.614094 1.393687 0.500047 0
M  V30 37 H 1.310464 1.046689 1.735790 0
M  V30 38 H 2.529161 2.761476 -0.131773 0
M  V30 39 H 2.836985 3.389592 1.548046 0
M  V30 40 H 0.441252 3.398126 2.058886 0
M  V30 41 H 0.743888 4.470750 0.696558 0
M  V30 42 H 0.434403 3.852963 -1.589949 0
M  V30 43 H -1.017801 2.796391 -3.180971 0
M  V30 44 H -2.671989 1.202579 -3.772207 0
M  V30 45 H -4.193146 -0.669598 -3.041776 0
M  V30 46 H -3.687895 -4.270220 1.529102 0
M  V30 47 H -5.256454 -3.803108 0.825902 0
M  V30 48 H -4.596263 -4.759232 -1.306590 0
M  V30 49 H -4.218673 -6.023736 -0.079160 0
M  V30 50 H -0.778185 -4.336930 -0.511619 0
M  V30 51 H -1.656363 -4.777536 0.954109 0
M  V30 52 H -1.775269 -2.534721 1.156100 0
M  V30 53 H -1.609568 -2.246366 -0.657409 0
M  V30 54 H -2.687628 -0.319430 0.942730 0
M  V30 55 H -1.012615 1.320031 1.496469 0
M  V30 56 H 1.638722 -0.829968 2.346026 0
M  V30 END ATOM
M  V30 BEGIN BOND
M  V30 1 3 1 2
M  V30 2 1 2 3
M  V30 3 2 3 4
M  V30 4 1 4 5
M  V30 5 2 5 6
M  V30 6 1 6 7
M  V30 7 2 7 8
M  V30 8 1 8 9
M  V30 9 2 9 10
M  V30 10 1 10 11
M  V30 11 1 11 12
M  V30 12 1 12 13
M  V30 13 1 13 14
M  V30 14 2 14 15
M  V30 15 1 15 16
M  V30 16 2 16 17
M  V30 17 1 17 18
M  V30 18 2 18 19
M  V30 19 1 19 20
M  V30 20 1 20 21
M  V30 21 2 21 22
M  V30 22 1 21 23
M  V30 23 1 23 24
M  V30 24 1 24 25
M  V30 25 1 25 26
M  V30 26 1 26 27
M  V30 27 1 27 28
M  V30 28 2 20 29
M  V30 29 1 29 30
M  V30 30 2 30 31
M  V30 31 1 10 32
M  V30 32 2 32 33
M  V30 33 1 33 3
M  V30 34 1 32 6
M  V30 35 1 31 14
M  V30 36 1 30 17
M  V30 37 1 28 23
M  V30 38 1 4 34
M  V30 39 1 5 35
M  V30 40 1 8 36
M  V30 41 1 11 37
M  V30 42 1 12 38
M  V30 43 1 12 39
M  V30 44 1 13 40
M  V30 45 1 13 41
M  V30 46 1 15 42
M  V30 47 1 16 43
M  V30 48 1 18 44
M  V30 49 1 19 45
M  V30 50 1 24 46
M  V30 51 1 24 47
M  V30 52 1 25 48
M  V30 53 1 25 49
M  V30 54 1 27 50
M  V30 55 1 27 51
M  V30 56 1 28 52
M  V30 57 1 28 53
M  V30 58 1 29 54
M  V30 59 1 31 55
M  V30 60 1 33 56
M  V30 END BOND
M  V30 END CTAB
M  END
>  <Dataset>  (98) 
ChEMBL_Kinases

>  <Ligand_Instance>  (98) 
nan

>  <PDB_ID>  (98) 
nan

>  <Standardized_SMILES>  (98) 
N#Cc1ccc2ncnc(NCCc3ccc4ccc(C(=O)N5CCOCC5)cc4c3)c2c1

>  <Name>  (98) 
nan

>  <Pocket>  (98) 
nan

>  <ATP_Site>  (98) 
nan

>  <Peripheral>  (98) 
nan

>  <Num_H_Atoms_ProtBoundConf>  (98) 
nan

>  <Num_Resolved_Atoms>  (98) 
nan

>  <Num_Not_Resolved_Atoms>  (98) 
nan

$$$$
CHEMBL3702238
     RDKit          3D

  0  0  0  0  0  0  0  0  0  0999 V3000
M  V30 BEGIN CTAB
M  V30 COUNTS 62 67 0 0 0
M  V30 BEGIN ATOM
M  V30 1 C 3.318600 0.243390 5.129864 0
M  V30 2 C 3.247825 -1.191114 4.597892 0
M  V30 3 C 3.958703 -2.053915 5.642316 0
M  V30 4 C 3.978380 -1.274304 3.283804 0
M  V30 5 N 3.157726 -1.745611 2.199214 0
M  V30 6 C 2.833975 -1.234647 0.898829 0
M  V30 7 C 1.617177 -0.542756 0.960726 0
M  V30 8 C 1.033898 0.063076 -0.160252 0
M  V30 9 C 1.779626 -0.089546 -1.337671 0
M  V30 10 N 1.253440 0.488985 -2.535497 0
M  V30 11 C 0.023253 1.181971 -2.403649 0
M  V30 12 N -0.322398 2.508585 -2.385663 0
M  V30 13 C -1.593237 2.869855 -2.217900 0
M  V30 14 C -2.653630 2.013105 -2.052228 0
M  V30 15 C -4.007777 2.063982 -1.866166 0
M  V30 16 C -4.850639 3.143275 -1.776833 0
M  V30 17 C -6.183245 2.806878 -1.585977 0
M  V30 18 N -6.651292 1.553908 -1.490773 0
M  V30 19 C -5.803573 0.489510 -1.580588 0
M  V30 20 C -4.473312 0.793507 -1.770999 0
M  V30 21 N -3.418481 -0.069162 -1.895792 0
M  V30 22 C -3.426427 -1.507130 -1.842327 0 CFG=2
M  V30 23 C -2.491850 -2.019375 -0.737018 0
M  V30 24 C -2.401056 -3.474598 -1.138694 0
M  V30 25 N -2.657380 -3.569005 -2.547700 0
M  V30 26 C -2.844256 -2.198524 -3.028160 0
M  V30 27 C -2.275545 0.660573 -2.072813 0
M  V30 28 N -0.981223 0.306501 -2.244389 0
M  V30 29 N 2.945367 -0.754087 -1.386836 0
M  V30 30 C 3.501002 -1.333535 -0.308937 0
M  V30 31 C 2.647402 -2.997911 2.723315 0
M  V30 32 C 1.726837 -2.848436 3.889370 0
M  V30 33 N 1.878253 -1.596185 4.561099 0
M  V30 34 H 3.184725 0.261572 6.225437 0
M  V30 35 H 4.301593 0.626769 4.857373 0
M  V30 36 H 2.487471 0.793697 4.622504 0
M  V30 37 H 4.091836 -3.066405 5.220100 0
M  V30 38 H 3.316676 -2.137020 6.536562 0
M  V30 39 H 4.938208 -1.650825 5.908208 0
M  V30 40 H 4.412607 -0.271665 3.043131 0
M  V30 41 H 4.869273 -1.946276 3.367493 0
M  V30 42 H 1.000823 -0.396604 1.849011 0
M  V30 43 H 0.114427 0.589308 -0.127774 0
M  V30 44 H 1.766943 0.389533 -3.439129 0
M  V30 45 H -1.819075 3.924378 -2.211179 0
M  V30 46 H -4.455416 4.143683 -1.854229 0
M  V30 47 H -6.888087 3.648451 -1.510768 0
M  V30 48 H -6.119161 -0.544996 -1.511662 0
M  V30 49 H -4.411779 -1.922946 -1.631321 0
M  V30 50 H -1.523734 -1.544280 -0.893885 0
M  V30 51 H -2.925829 -1.867610 0.256118 0
M  V30 52 H -1.436611 -3.933711 -0.836736 0
M  V30 53 H -3.178386 -4.005358 -0.555578 0
M  V30 54 H -1.793823 -3.994578 -2.975582 0
M  V30 55 H -3.475628 -2.157438 -3.926906 0
M  V30 56 H -1.816450 -1.804093 -3.220362 0
M  V30 57 H 4.417352 -1.890689 -0.201790 0
M  V30 58 H 2.058926 -3.467598 1.881893 0
M  V30 59 H 3.471838 -3.740418 2.932340 0
M  V30 60 H 0.654694 -2.962218 3.559312 0
M  V30 61 H 1.868359 -3.675408 4.635582 0
M  V30 62 H 1.220903 -0.906756 4.165974 0
M  V30 END ATOM
M  V30 BEGIN BOND
M  V30 1 1 1 2
M  V30 2 1 2 3
M  V30 3 1 2 4
M  V30 4 1 4 5
M  V30 5 1 5 6
M  V30 6 2 6 7
M  V30 7 1 7 8
M  V30 8 2 8 9
M  V30 9 1 9 10
M  V30 10 1 10 11
M  V30 11 2 11 12
M  V30 12 1 12 13
M  V30 13 2 13 14
M  V30 14 1 14 15
M  V30 15 2 15 16
M  V30 16 1 16 17
M  V30 17 2 17 18
M  V30 18 1 18 19
M  V30 19 2 19 20
M  V30 20 1 20 21
M  V30 21 1 21 22
M  V30 22 1 22 23
M  V30 23 1 23 24
M  V30 24 1 24 25
M  V30 25 1 25 26
M  V30 26 1 21 27
M  V30 27 2 27 28
M  V30 28 1 9 29
M  V30 29 2 29 30
M  V30 30 1 5 31
M  V30 31 1 31 32
M  V30 32 1 32 33
M  V30 33 1 33 2
M  V30 34 1 30 6
M  V30 35 1 28 11
M  V30 36 1 27 14
M  V30 37 1 20 15
M  V30 38 1 26 22
M  V30 39 1 1 34
M  V30 40 1 1 35
M  V30 41 1 1 36
M  V30 42 1 3 37
M  V30 43 1 3 38
M  V30 44 1 3 39
M  V30 45 1 4 40
M  V30 46 1 4 41
M  V30 47 1 7 42
M  V30 48 1 8 43
M  V30 49 1 10 44
M  V30 50 1 13 45
M  V30 51 1 16 46
M  V30 52 1 17 47
M  V30 53 1 19 48
M  V30 54 1 22 49 CFG=1
M  V30 55 1 23 50
M  V30 56 1 23 51
M  V30 57 1 24 52
M  V30 58 1 24 53
M  V30 59 1 25 54
M  V30 60 1 26 55
M  V30 61 1 26 56
M  V30 62 1 30 57
M  V30 63 1 31 58
M  V30 64 1 31 59
M  V30 65 1 32 60
M  V30 66 1 32 61
M  V30 67 1 33 62
M  V30 END BOND
M  V30 END CTAB
M  END
>  <Dataset>  (99) 
ChEMBL_Kinases

>  <Ligand_Instance>  (99) 
nan

>  <PDB_ID>  (99) 
nan

>  <Standardized_SMILES>  (99) 
CC1(C)CN(c2ccc(Nc3ncc4c5ccncc5n([C@@H]5CCNC5)c4n3)nc2)CCN1

>  <Name>  (99) 
nan

>  <Pocket>  (99) 
nan

>  <ATP_Site>  (99) 
nan

>  <Peripheral>  (99) 
nan

>  <Num_H_Atoms_ProtBoundConf>  (99) 
nan

>  <Num_Resolved_Atoms>  (99) 
nan

>  <Num_Not_Resolved_Atoms>  (99) 
nan

$$$$
CHEMBL4867689
     RDKit          3D

  0  0  0  0  0  0  0  0  0  0999 V3000
M  V30 BEGIN CTAB
M  V30 COUNTS 71 75 0 0 0
M  V30 BEGIN ATOM
M  V30 1 C 2.778044 -1.656706 4.898038 0
M  V30 2 O 3.789084 -0.833990 5.429087 0
M  V30 3 C 4.754339 -0.295540 4.593834 0
M  V30 4 C 5.733930 0.512713 5.168414 0
M  V30 5 C 6.696955 1.051121 4.342000 0
M  V30 6 F 7.689056 1.855411 4.845585 0
M  V30 7 C 6.756406 0.842990 2.980308 0
M  V30 8 C 5.779693 0.037920 2.411484 0
M  V30 9 C 5.610396 -0.348116 0.985587 0 CFG=1
M  V30 10 C 6.062720 -1.814984 0.915667 0
M  V30 11 O 5.991504 -2.328701 -0.362983 0
M  V30 12 N 4.246526 -0.230669 0.544508 0
M  V30 13 C 3.901360 0.482414 -0.633308 0
M  V30 14 O 4.923898 0.992408 -1.229618 0
M  V30 15 C 2.747378 0.861653 -1.445872 0 CFG=1
M  V30 16 C 3.004761 0.371315 -2.878501 0
M  V30 17 N 1.473034 0.353497 -1.057204 0
M  V30 18 C 0.906798 -0.948455 -0.838931 0
M  V30 19 C -0.517101 -0.725718 -0.502864 0
M  V30 20 N -1.441679 -1.666905 -0.232980 0
M  V30 21 C -2.714452 -1.349167 0.068492 0
M  V30 22 C -3.105620 -0.016602 0.107419 0
M  V30 23 C -4.472786 0.380653 0.426221 0
M  V30 24 N -5.438796 -0.323427 -0.190158 0
M  V30 25 C -6.745512 -0.145388 -0.059385 0
M  V30 26 N -7.703147 -0.939462 -0.750094 0
M  V30 27 C -7.260636 -1.993563 -1.633490 0
M  V30 28 C -6.443586 -3.039213 -0.882381 0
M  V30 29 C -5.434932 -3.633424 -1.849246 0
M  V30 30 O -6.128425 -3.839973 -3.042558 0
M  V30 31 C -6.086949 -2.599702 -3.705856 0
M  V30 32 C -6.494094 -1.473130 -2.813822 0
M  V30 33 N -7.152201 0.836400 0.772255 0
M  V30 34 C -6.257716 1.595465 1.434592 0
M  V30 35 C -4.903178 1.385438 1.276971 0
M  V30 36 Cl -3.614457 2.283080 2.064281 0
M  V30 37 C -2.150303 0.939170 -0.170721 0
M  V30 38 C -0.848569 0.611607 -0.478997 0
M  V30 39 C 0.414494 1.299349 -0.830304 0
M  V30 40 O 0.332663 2.577237 -0.866008 0
M  V30 41 C 4.795479 -0.517474 3.228156 0
M  V30 42 H 2.310569 -2.192729 5.769848 0
M  V30 43 H 2.041466 -1.137018 4.278732 0
M  V30 44 H 3.220950 -2.465508 4.248650 0
M  V30 45 H 5.753872 0.724957 6.242701 0
M  V30 46 H 7.459836 1.218819 2.281829 0
M  V30 47 H 6.289089 0.188373 0.300899 0
M  V30 48 H 5.434773 -2.369861 1.636547 0
M  V30 49 H 7.136805 -1.889545 1.215000 0
M  V30 50 H 5.305294 -1.824889 -0.883175 0
M  V30 51 H 3.366068 -0.593072 0.955636 0
M  V30 52 H 2.681290 1.993240 -1.532740 0
M  V30 53 H 2.093829 0.389497 -3.480185 0
M  V30 54 H 3.277392 -0.696410 -2.759985 0
M  V30 55 H 3.847798 0.875464 -3.352683 0
M  V30 56 H 0.976171 -1.604340 -1.733725 0
M  V30 57 H 1.389848 -1.398541 0.044963 0
M  V30 58 H -3.468534 -2.075291 0.287032 0
M  V30 59 H -8.715492 -0.763921 -0.621331 0
M  V30 60 H -8.137381 -2.538898 -2.049050 0
M  V30 61 H -7.122468 -3.842711 -0.510040 0
M  V30 62 H -5.928314 -2.638194 -0.011858 0
M  V30 63 H -4.629291 -2.870411 -1.953362 0
M  V30 64 H -5.002432 -4.574732 -1.455704 0
M  V30 65 H -6.685258 -2.671381 -4.615853 0
M  V30 66 H -4.995442 -2.474620 -3.967528 0
M  V30 67 H -7.211880 -0.845873 -3.403216 0
M  V30 68 H -5.632727 -0.832939 -2.541233 0
M  V30 69 H -6.477280 2.406974 2.123627 0
M  V30 70 H -2.396310 1.991609 -0.155330 0
M  V30 71 H 3.980657 -1.167009 2.873513 0
M  V30 END ATOM
M  V30 BEGIN BOND
M  V30 1 1 1 2
M  V30 2 1 2 3
M  V30 3 2 3 4
M  V30 4 1 4 5
M  V30 5 1 5 6
M  V30 6 2 5 7
M  V30 7 1 7 8
M  V30 8 1 8 9
M  V30 9 1 9 10
M  V30 10 1 10 11
M  V30 11 1 9 12
M  V30 12 1 12 13
M  V30 13 2 13 14
M  V30 14 1 13 15
M  V30 15 1 15 16
M  V30 16 1 15 17
M  V30 17 1 17 18
M  V30 18 1 18 19
M  V30 19 2 19 20
M  V30 20 1 20 21
M  V30 21 2 21 22
M  V30 22 1 22 23
M  V30 23 2 23 24
M  V30 24 1 24 25
M  V30 25 1 25 26
M  V30 26 1 26 27
M  V30 27 1 27 28
M  V30 28 1 28 29
M  V30 29 1 29 30
M  V30 30 1 30 31
M  V30 31 1 31 32
M  V30 32 2 25 33
M  V30 33 1 33 34
M  V30 34 2 34 35
M  V30 35 1 35 36
M  V30 36 1 22 37
M  V30 37 2 37 38
M  V30 38 1 38 39
M  V30 39 2 39 40
M  V30 40 2 8 41
M  V30 41 1 41 3
M  V30 42 1 39 17
M  V30 43 1 38 19
M  V30 44 1 35 23
M  V30 45 1 32 27
M  V30 46 1 1 42
M  V30 47 1 1 43
M  V30 48 1 1 44
M  V30 49 1 4 45
M  V30 50 1 7 46
M  V30 51 1 9 47 CFG=3
M  V30 52 1 10 48
M  V30 53 1 10 49
M  V30 54 1 11 50
M  V30 55 1 12 51
M  V30 56 1 15 52 CFG=3
M  V30 57 1 16 53
M  V30 58 1 16 54
M  V30 59 1 16 55
M  V30 60 1 18 56
M  V30 61 1 18 57
M  V30 62 1 21 58
M  V30 63 1 26 59
M  V30 64 1 27 60
M  V30 65 1 28 61
M  V30 66 1 28 62
M  V30 67 1 29 63
M  V30 68 1 29 64
M  V30 69 1 31 65
M  V30 70 1 31 66
M  V30 71 1 32 67
M  V30 72 1 32 68
M  V30 73 1 34 69
M  V30 74 1 37 70
M  V30 75 1 41 71
M  V30 END BOND
M  V30 END CTAB
M  END
>  <Dataset>  (100) 
ChEMBL_Kinases

>  <Ligand_Instance>  (100) 
nan

>  <PDB_ID>  (100) 
nan

>  <Standardized_SMILES>  (100) 
COc1cc(F)cc([C@@H](CO)NC(=O)[C@@H](C)N2Cc3ncc(-c4nc(NC5CCOCC5)ncc4Cl)cc3C2=O)c1

>  <Name>  (100) 
nan

>  <Pocket>  (100) 
nan

>  <ATP_Site>  (100) 
nan

>  <Peripheral>  (100) 
nan

>  <Num_H_Atoms_ProtBoundConf>  (100) 
nan

>  <Num_Resolved_Atoms>  (100) 
nan

>  <Num_Not_Resolved_Atoms>  (100) 
nan

$$$$
CHEMBL4867741
     RDKit          3D

  0  0  0  0  0  0  0  0  0  0999 V3000
M  V30 BEGIN CTAB
M  V30 COUNTS 40 41 0 0 0
M  V30 BEGIN ATOM
M  V30 1 N 0.343941 -6.586519 3.172619 0
M  V30 2 C 0.827526 -5.641823 2.712809 0
M  V30 3 C 1.406537 -4.459481 2.145035 0
M  V30 4 C 2.752006 -4.170792 2.244580 0
M  V30 5 C 3.294947 -3.029925 1.694749 0
M  V30 6 C 2.538483 -2.102631 1.010864 0
M  V30 7 N 3.035265 -0.932067 0.426382 0
M  V30 8 C 2.382799 0.125146 -0.214324 0
M  V30 9 N 3.095632 1.132999 -0.751423 0
M  V30 10 C 2.542481 2.181204 -1.376556 0
M  V30 11 C 1.171441 2.234491 -1.477356 0
M  V30 12 C 0.572741 3.403746 -2.176332 0
M  V30 13 F 1.523452 4.292161 -2.632221 0
M  V30 14 F -0.280158 4.071349 -1.345892 0
M  V30 15 F -0.107097 2.903116 -3.283053 0
M  V30 16 C 0.407656 1.242404 -0.951452 0
M  V30 17 N -1.026426 1.291051 -1.060756 0
M  V30 18 C -1.861871 0.230041 -0.489113 0
M  V30 19 C -1.693233 0.209899 1.016608 0
M  V30 20 C -2.510016 -0.861497 1.676830 0
M  V30 21 N -2.301260 -0.830464 3.110942 0
M  V30 22 C -2.588402 0.274087 3.964388 0
M  V30 23 O -3.063848 1.338946 3.506410 0
M  V30 24 N 1.058129 0.261840 -0.359897 0
M  V30 25 C 1.204838 -2.444932 0.944173 0
M  V30 26 N 0.625108 -3.563187 1.474141 0
M  V30 27 H 3.411549 -4.850532 2.766758 0
M  V30 28 H 4.373142 -2.844634 1.801284 0
M  V30 29 H 4.097975 -0.868674 0.501801 0
M  V30 30 H 3.183916 2.952310 -1.782904 0
M  V30 31 H -1.461461 2.103171 -1.559127 0
M  V30 32 H -2.907558 0.459751 -0.726961 0
M  V30 33 H -1.589994 -0.745542 -0.935626 0
M  V30 34 H -1.995550 1.200742 1.450428 0
M  V30 35 H -0.641108 0.073532 1.285018 0
M  V30 36 H -2.175397 -1.852191 1.331033 0
M  V30 37 H -3.596572 -0.764454 1.460810 0
M  V30 38 H -1.903949 -1.662707 3.639297 0
M  V30 39 H -2.407913 0.237601 5.038754 0
M  V30 40 H 0.465727 -1.855981 0.453110 0
M  V30 END ATOM
M  V30 BEGIN BOND
M  V30 1 3 1 2
M  V30 2 1 2 3
M  V30 3 2 3 4
M  V30 4 1 4 5
M  V30 5 2 5 6
M  V30 6 1 6 7
M  V30 7 1 7 8
M  V30 8 2 8 9
M  V30 9 1 9 10
M  V30 10 2 10 11
M  V30 11 1 11 12
M  V30 12 1 12 13
M  V30 13 1 12 14
M  V30 14 1 12 15
M  V30 15 1 11 16
M  V30 16 1 16 17
M  V30 17 1 17 18
M  V30 18 1 18 19
M  V30 19 1 19 20
M  V30 20 1 20 21
M  V30 21 1 21 22
M  V30 22 2 22 23
M  V30 23 2 16 24
M  V30 24 1 6 25
M  V30 25 2 25 26
M  V30 26 1 26 3
M  V30 27 1 24 8
M  V30 28 1 4 27
M  V30 29 1 5 28
M  V30 30 1 7 29
M  V30 31 1 10 30
M  V30 32 1 17 31
M  V30 33 1 18 32
M  V30 34 1 18 33
M  V30 35 1 19 34
M  V30 36 1 19 35
M  V30 37 1 20 36
M  V30 38 1 20 37
M  V30 39 1 21 38
M  V30 40 1 22 39
M  V30 41 1 25 40
M  V30 END BOND
M  V30 END CTAB
M  END
>  <Dataset>  (101) 
ChEMBL_Kinases

>  <Ligand_Instance>  (101) 
nan

>  <PDB_ID>  (101) 
nan

>  <Standardized_SMILES>  (101) 
N#Cc1ccc(Nc2ncc(C(F)(F)F)c(NCCCNC=O)n2)cn1

>  <Name>  (101) 
nan

>  <Pocket>  (101) 
nan

>  <ATP_Site>  (101) 
nan

>  <Peripheral>  (101) 
nan

>  <Num_H_Atoms_ProtBoundConf>  (101) 
nan

>  <Num_Resolved_Atoms>  (101) 
nan

>  <Num_Not_Resolved_Atoms>  (101) 
nan

$$$$
CHEMBL4867760
     RDKit          3D

  0  0  0  0  0  0  0  0  0  0999 V3000
M  V30 BEGIN CTAB
M  V30 COUNTS 67 71 0 0 0
M  V30 BEGIN ATOM
M  V30 1 O 1.709468 -1.145513 2.195078 0
M  V30 2 C 1.766783 -1.878405 3.251737 0
M  V30 3 N 2.332258 -3.166662 3.091282 0
M  V30 4 C 2.658641 -3.173490 1.671468 0
M  V30 5 C 1.770914 -3.651367 0.732578 0
M  V30 6 C 2.104520 -3.596451 -0.604462 0
M  V30 7 C 3.332993 -3.050078 -0.864823 0
M  V30 8 O 3.780979 -2.937939 -2.208265 0
M  V30 9 C 3.352487 -1.792620 -2.923186 0
M  V30 10 C 2.509980 -0.870022 -2.281230 0
M  V30 11 C 2.025638 0.284250 -2.881810 0
M  V30 12 N 1.161863 1.172458 -2.181839 0
M  V30 13 C -0.091415 1.031153 -1.484581 0
M  V30 14 C -0.715261 2.178022 -1.058369 0
M  V30 15 C -1.902693 2.019452 -0.389001 0
M  V30 16 C -2.410735 0.767753 -0.173798 0
M  V30 17 C -1.793956 -0.410632 -0.597751 0
M  V30 18 C -2.469181 -1.672542 -0.277087 0
M  V30 19 N -3.356783 -2.191379 -1.251958 0
M  V30 20 C -4.038666 -3.398178 -0.927928 0
M  V30 21 C -5.519869 -3.135009 -1.047133 0
M  V30 22 C -5.622585 -1.870398 -1.865926 0
M  V30 23 C -4.225942 -1.297337 -1.916605 0
M  V30 24 C -0.603905 -0.227224 -1.268013 0
M  V30 25 N 2.414553 0.478253 -4.138729 0
M  V30 26 C 3.206159 -0.356556 -4.789668 0
M  V30 27 N 3.676528 -1.484135 -4.198514 0
M  V30 28 C 4.273363 -2.554799 0.016863 0
M  V30 29 C 3.890575 -2.631671 1.362121 0
M  V30 30 N 1.226871 -1.196440 4.388316 0
M  V30 31 C 0.678126 0.127736 4.435583 0
M  V30 32 C -0.661455 0.444601 4.225291 0
M  V30 33 C -1.100431 1.753004 4.282929 0
M  V30 34 C -0.161977 2.756028 4.558500 0
M  V30 35 C 1.164594 2.431809 4.765575 0
M  V30 36 C 2.088586 3.582700 5.053643 0
M  V30 37 F 3.118770 3.134407 5.877147 0
M  V30 38 F 1.395255 4.608493 5.665731 0
M  V30 39 F 2.703178 3.978769 3.871565 0
M  V30 40 C 1.607038 1.120041 4.708546 0
M  V30 41 H 2.335361 -3.678550 3.995685 0
M  V30 42 H 0.816978 -4.069802 1.026185 0
M  V30 43 H 1.475368 -3.945623 -1.406225 0
M  V30 44 H 2.212823 -1.052801 -1.253530 0
M  V30 45 H 1.628474 2.105139 -2.237484 0
M  V30 46 H -0.319435 3.161776 -1.223850 0
M  V30 47 H -2.396974 2.919917 -0.053729 0
M  V30 48 H -3.360431 0.766600 0.374726 0
M  V30 49 H -3.044813 -1.542236 0.685295 0
M  V30 50 H -1.704314 -2.451441 -0.027745 0
M  V30 51 H -3.827966 -3.599671 0.161210 0
M  V30 52 H -3.696746 -4.276211 -1.494350 0
M  V30 53 H -5.997569 -3.998445 -1.570610 0
M  V30 54 H -6.006358 -3.014420 -0.079730 0
M  V30 55 H -6.302766 -1.136943 -1.407812 0
M  V30 56 H -6.035362 -2.102962 -2.880922 0
M  V30 57 H -4.172525 -0.232659 -1.611703 0
M  V30 58 H -3.950690 -1.269947 -3.017118 0
M  V30 59 H -0.131753 -1.148653 -1.598073 0
M  V30 60 H 3.509688 -0.164542 -5.828225 0
M  V30 61 H 5.229896 -2.136303 -0.263263 0
M  V30 62 H 4.561007 -2.269374 2.134468 0
M  V30 63 H 1.279535 -1.809129 5.253603 0
M  V30 64 H -1.330103 -0.402463 4.014377 0
M  V30 65 H -2.135378 1.984480 4.119371 0
M  V30 66 H -0.556881 3.773928 4.593288 0
M  V30 67 H 2.656429 0.910040 4.877657 0
M  V30 END ATOM
M  V30 BEGIN BOND
M  V30 1 2 1 2
M  V30 2 1 2 3
M  V30 3 1 3 4
M  V30 4 2 4 5
M  V30 5 1 5 6
M  V30 6 2 6 7
M  V30 7 1 7 8
M  V30 8 1 8 9
M  V30 9 2 9 10
M  V30 10 1 10 11
M  V30 11 1 11 12
M  V30 12 1 12 13
M  V30 13 2 13 14
M  V30 14 1 14 15
M  V30 15 2 15 16
M  V30 16 1 16 17
M  V30 17 1 17 18
M  V30 18 1 18 19
M  V30 19 1 19 20
M  V30 20 1 20 21
M  V30 21 1 21 22
M  V30 22 1 22 23
M  V30 23 2 17 24
M  V30 24 2 11 25
M  V30 25 1 25 26
M  V30 26 2 26 27
M  V30 27 1 7 28
M  V30 28 2 28 29
M  V30 29 1 2 30
M  V30 30 1 30 31
M  V30 31 2 31 32
M  V30 32 1 32 33
M  V30 33 2 33 34
M  V30 34 1 34 35
M  V30 35 1 35 36
M  V30 36 1 36 37
M  V30 37 1 36 38
M  V30 38 1 36 39
M  V30 39 2 35 40
M  V30 40 1 29 4
M  V30 41 1 40 31
M  V30 42 1 27 9
M  V30 43 1 24 13
M  V30 44 1 23 19
M  V30 45 1 3 41
M  V30 46 1 5 42
M  V30 47 1 6 43
M  V30 48 1 10 44
M  V30 49 1 12 45
M  V30 50 1 14 46
M  V30 51 1 15 47
M  V30 52 1 16 48
M  V30 53 1 18 49
M  V30 54 1 18 50
M  V30 55 1 20 51
M  V30 56 1 20 52
M  V30 57 1 21 53
M  V30 58 1 21 54
M  V30 59 1 22 55
M  V30 60 1 22 56
M  V30 61 1 23 57
M  V30 62 1 23 58
M  V30 63 1 24 59
M  V30 64 1 26 60
M  V30 65 1 28 61
M  V30 66 1 29 62
M  V30 67 1 30 63
M  V30 68 1 32 64
M  V30 69 1 33 65
M  V30 70 1 34 66
M  V30 71 1 40 67
M  V30 END BOND
M  V30 END CTAB
M  END
>  <Dataset>  (102) 
ChEMBL_Kinases

>  <Ligand_Instance>  (102) 
nan

>  <PDB_ID>  (102) 
nan

>  <Standardized_SMILES>  (102) 
O=C(Nc1ccc(Oc2cc(Nc3cccc(CN4CCCC4)c3)ncn2)cc1)Nc1cccc(C(F)(F)F)c1

>  <Name>  (102) 
nan

>  <Pocket>  (102) 
nan

>  <ATP_Site>  (102) 
nan

>  <Peripheral>  (102) 
nan

>  <Num_H_Atoms_ProtBoundConf>  (102) 
nan

>  <Num_Resolved_Atoms>  (102) 
nan

>  <Num_Not_Resolved_Atoms>  (102) 
nan

$$$$
CHEMBL87706
     RDKit          3D

  0  0  0  0  0  0  0  0  0  0999 V3000
M  V30 BEGIN CTAB
M  V30 COUNTS 22 23 0 0 0
M  V30 BEGIN ATOM
M  V30 1 O 0.499657 -3.782094 2.182919 0
M  V30 2 C 1.201474 -2.906628 2.743455 0
M  V30 3 N 2.201289 -2.280342 3.528516 0
M  V30 4 C 2.387669 -0.906908 3.315924 0
M  V30 5 O 3.270531 -0.332128 4.002965 0
M  V30 6 C 1.523911 -0.300236 2.307747 0
M  V30 7 C 1.618307 0.875482 1.743097 0
M  V30 8 C 0.567423 1.184256 0.747480 0
M  V30 9 C 0.373589 0.152531 -0.181850 0
M  V30 10 C -0.559282 0.180242 -1.178770 0
M  V30 11 C -1.352232 1.307920 -1.259855 0
M  V30 12 O -2.319956 1.377956 -2.266469 0
M  V30 13 C -1.188297 2.350335 -0.357197 0
M  V30 14 C -0.242835 2.299720 0.639160 0
M  V30 15 S 0.227598 -1.547412 2.026378 0
M  V30 16 H 2.551451 -3.077229 4.095182 0
M  V30 17 H 2.450099 1.502835 2.055144 0
M  V30 18 H 0.974752 -0.773244 -0.197965 0
M  V30 19 H -0.696445 -0.621174 -1.887876 0
M  V30 20 H -2.785871 0.510712 -2.538972 0
M  V30 21 H -1.794985 3.239190 -0.396977 0
M  V30 22 H -0.021322 3.038632 1.394220 0
M  V30 END ATOM
M  V30 BEGIN BOND
M  V30 1 2 1 2
M  V30 2 1 2 3
M  V30 3 1 3 4
M  V30 4 2 4 5
M  V30 5 1 4 6
M  V30 6 2 6 7
M  V30 7 1 7 8
M  V30 8 2 8 9
M  V30 9 1 9 10
M  V30 10 2 10 11
M  V30 11 1 11 12
M  V30 12 1 11 13
M  V30 13 2 13 14
M  V30 14 1 6 15
M  V30 15 1 15 2
M  V30 16 1 14 8
M  V30 17 1 3 16
M  V30 18 1 7 17
M  V30 19 1 9 18
M  V30 20 1 10 19
M  V30 21 1 12 20
M  V30 22 1 13 21
M  V30 23 1 14 22
M  V30 END BOND
M  V30 END CTAB
M  END
>  <Dataset>  (103) 
ChEMBL_Kinases

>  <Ligand_Instance>  (103) 
nan

>  <PDB_ID>  (103) 
nan

>  <Standardized_SMILES>  (103) 
O=C1NC(=O)/C(=C/c2ccc(O)cc2)S1

>  <Name>  (103) 
nan

>  <Pocket>  (103) 
nan

>  <ATP_Site>  (103) 
nan

>  <Peripheral>  (103) 
nan

>  <Num_H_Atoms_ProtBoundConf>  (103) 
nan

>  <Num_Resolved_Atoms>  (103) 
nan

>  <Num_Not_Resolved_Atoms>  (103) 
nan

$$$$
CHEMBL4867966
     RDKit          3D

  0  0  0  0  0  0  0  0  0  0999 V3000
M  V30 BEGIN CTAB
M  V30 COUNTS 40 43 0 0 0
M  V30 BEGIN ATOM
M  V30 1 O 3.515586 2.120728 0.198448 0
M  V30 2 S 3.422811 1.202391 1.390982 0
M  V30 3 O 4.195607 1.875214 2.493735 0
M  V30 4 N 4.186526 -0.304522 1.049374 0
M  V30 5 C 3.889082 -1.321232 0.108840 0
M  V30 6 C 2.636604 -1.849703 -0.121078 0
M  V30 7 C 2.331387 -2.838311 -1.028748 0
M  V30 8 C 3.379366 -3.338838 -1.769927 0
M  V30 9 Cl 3.054055 -4.599485 -2.942397 0
M  V30 10 C 4.663567 -2.877961 -1.614178 0
M  V30 11 C 4.893358 -1.886690 -0.686255 0
M  V30 12 C 1.776691 1.029415 1.929159 0
M  V30 13 C 1.556062 0.845421 3.295936 0
M  V30 14 C 0.324235 0.696971 3.899155 0
M  V30 15 C -0.789847 0.732641 3.085831 0
M  V30 16 C -0.620266 0.912439 1.728392 0
M  V30 17 C -1.770844 0.956840 0.827726 0
M  V30 18 N -1.966046 1.843177 -0.160161 0
M  V30 19 N -3.116476 1.598225 -0.785758 0
M  V30 20 C -3.736936 0.535658 -0.238993 0
M  V30 21 C -4.905547 -0.177331 -0.433406 0
M  V30 22 C -5.264076 -1.266059 0.333648 0
M  V30 23 F -6.431646 -1.931594 0.094925 0
M  V30 24 C -4.411461 -1.652408 1.336936 0
M  V30 25 C -3.240911 -0.954684 1.547300 0
M  V30 26 C -2.877875 0.134086 0.783567 0
M  V30 27 C 0.619455 1.059171 1.142647 0
M  V30 28 H 5.045019 -0.607787 1.599495 0
M  V30 29 H 1.806252 -1.469200 0.454142 0
M  V30 30 H 1.313518 -3.199448 -1.148044 0
M  V30 31 H 5.502154 -3.263353 -2.192212 0
M  V30 32 H 5.902081 -1.478694 -0.518318 0
M  V30 33 H 2.417575 0.812644 3.966440 0
M  V30 34 H 0.253138 0.558924 4.969372 0
M  V30 35 H -1.770731 0.619305 3.527263 0
M  V30 36 H -3.575833 2.088608 -1.594480 0
M  V30 37 H -5.556603 0.139454 -1.220201 0
M  V30 38 H -4.653742 -2.494861 1.956704 0
M  V30 39 H -2.606464 -1.299806 2.348624 0
M  V30 40 H 0.814654 1.202207 0.091341 0
M  V30 END ATOM
M  V30 BEGIN BOND
M  V30 1 2 1 2
M  V30 2 2 2 3
M  V30 3 1 2 4
M  V30 4 1 4 5
M  V30 5 2 5 6
M  V30 6 1 6 7
M  V30 7 2 7 8
M  V30 8 1 8 9
M  V30 9 1 8 10
M  V30 10 2 10 11
M  V30 11 1 2 12
M  V30 12 2 12 13
M  V30 13 1 13 14
M  V30 14 2 14 15
M  V30 15 1 15 16
M  V30 16 1 16 17
M  V30 17 2 17 18
M  V30 18 1 18 19
M  V30 19 1 19 20
M  V30 20 2 20 21
M  V30 21 1 21 22
M  V30 22 1 22 23
M  V30 23 2 22 24
M  V30 24 1 24 25
M  V30 25 2 25 26
M  V30 26 2 16 27
M  V30 27 1 11 5
M  V30 28 1 27 12
M  V30 29 1 26 17
M  V30 30 1 26 20
M  V30 31 1 4 28
M  V30 32 1 6 29
M  V30 33 1 7 30
M  V30 34 1 10 31
M  V30 35 1 11 32
M  V30 36 1 13 33
M  V30 37 1 14 34
M  V30 38 1 15 35
M  V30 39 1 19 36
M  V30 40 1 21 37
M  V30 41 1 24 38
M  V30 42 1 25 39
M  V30 43 1 27 40
M  V30 END BOND
M  V30 END CTAB
M  END
>  <Dataset>  (104) 
ChEMBL_Kinases

>  <Ligand_Instance>  (104) 
nan

>  <PDB_ID>  (104) 
nan

>  <Standardized_SMILES>  (104) 
O=S(=O)(Nc1ccc(Cl)cc1)c1cccc(-c2n[nH]c3cc(F)ccc23)c1

>  <Name>  (104) 
nan

>  <Pocket>  (104) 
nan

>  <ATP_Site>  (104) 
nan

>  <Peripheral>  (104) 
nan

>  <Num_H_Atoms_ProtBoundConf>  (104) 
nan

>  <Num_Resolved_Atoms>  (104) 
nan

>  <Num_Not_Resolved_Atoms>  (104) 
nan

$$$$
CHEMBL4868007
     RDKit          3D

  0  0  0  0  0  0  0  0  0  0999 V3000
M  V30 BEGIN CTAB
M  V30 COUNTS 68 72 0 0 0
M  V30 BEGIN ATOM
M  V30 1 N 1.907035 -3.434832 3.889436 0
M  V30 2 C 2.755408 -2.720982 3.625257 0
M  V30 3 C 3.823463 -1.822812 3.267097 0
M  V30 4 C 5.124058 -2.246295 3.231263 0
M  V30 5 C 6.182940 -1.399044 2.880101 0
M  V30 6 C 5.849805 -0.092286 2.566229 0
M  V30 7 N 6.842981 0.772915 2.207266 0
M  V30 8 C 6.523204 2.060051 1.885255 0
M  V30 9 C 5.237688 2.553048 1.899795 0
M  V30 10 C 4.219440 1.695687 2.261059 0
M  V30 11 N 2.890451 2.191357 2.321608 0
M  V30 12 C 2.606716 3.554786 1.947395 0
M  V30 13 C 1.206534 4.019239 2.250909 0
M  V30 14 C 0.184061 3.191256 1.615108 0
M  V30 15 C -0.344847 2.229655 2.475704 0
M  V30 16 C -1.311615 1.324654 2.090329 0
M  V30 17 C -1.785236 1.363513 0.795658 0
M  V30 18 C -2.763907 0.476536 0.333456 0
M  V30 19 C -3.199519 0.559116 -0.971829 0
M  V30 20 C -4.226615 -0.469238 -1.227762 0
M  V30 21 O -5.276452 -0.252215 -0.581194 0
M  V30 22 N -3.881992 -1.506255 -2.129760 0
M  V30 23 C -2.641631 -1.692512 -2.847775 0
M  V30 24 C -2.545083 -3.052413 -3.420491 0
M  V30 25 N -2.843803 -4.139181 -2.457392 0
M  V30 26 C -1.797776 -4.213547 -1.493341 0
M  V30 27 C -1.669838 -5.397588 -0.643004 0
M  V30 28 C -2.754486 -5.846981 0.254920 0
M  V30 29 O -3.921914 -6.258426 -0.321559 0
M  V30 30 C -4.162761 -3.862900 -1.882150 0
M  V30 31 C -4.751859 -2.578635 -2.473519 0
M  V30 32 C -2.672341 1.513227 -1.821853 0
M  V30 33 C -1.715649 2.365659 -1.336045 0
M  V30 34 C -1.254328 2.316539 -0.039303 0
M  V30 35 C -0.287506 3.231105 0.323692 0
M  V30 36 C 4.562262 0.411373 2.579361 0
M  V30 37 C 3.601836 -0.511030 2.938778 0
M  V30 38 H 5.411079 -3.269984 3.473409 0
M  V30 39 H 7.226199 -1.728925 2.848926 0
M  V30 40 H 7.436553 2.611333 1.622718 0
M  V30 41 H 5.096610 3.576588 1.630484 0
M  V30 42 H 2.044196 1.670347 2.615810 0
M  V30 43 H 2.830273 3.744167 0.868058 0
M  V30 44 H 3.289469 4.282899 2.477907 0
M  V30 45 H 1.057181 4.157070 3.339142 0
M  V30 46 H 1.110799 5.044464 1.779269 0
M  V30 47 H -0.073804 2.085401 3.533463 0
M  V30 48 H -1.730588 0.573963 2.747981 0
M  V30 49 H -3.101639 -0.229530 1.097269 0
M  V30 50 H -1.776237 -1.516009 -2.156006 0
M  V30 51 H -2.589535 -0.963639 -3.699184 0
M  V30 52 H -3.154921 -3.216494 -4.315558 0
M  V30 53 H -1.483088 -3.235709 -3.710356 0
M  V30 54 H -0.813763 -4.023582 -2.049044 0
M  V30 55 H -1.829063 -3.300506 -0.807408 0
M  V30 56 H -1.420469 -6.313144 -1.302497 0
M  V30 57 H -0.733577 -5.300441 0.016559 0
M  V30 58 H -2.344930 -6.705940 0.851431 0
M  V30 59 H -2.958389 -5.054637 1.027322 0
M  V30 60 H -4.674424 -6.173733 0.327012 0
M  V30 61 H -4.137941 -3.724430 -0.798499 0
M  V30 62 H -4.837448 -4.667001 -2.209796 0
M  V30 63 H -4.914174 -2.738928 -3.543376 0
M  V30 64 H -5.725056 -2.425519 -1.938572 0
M  V30 65 H -3.104692 1.459516 -2.809870 0
M  V30 66 H -1.339069 3.095101 -2.053708 0
M  V30 67 H 0.153247 3.991902 -0.300027 0
M  V30 68 H 2.561255 -0.218011 2.979205 0
M  V30 END ATOM
M  V30 BEGIN BOND
M  V30 1 3 1 2
M  V30 2 1 2 3
M  V30 3 2 3 4
M  V30 4 1 4 5
M  V30 5 2 5 6
M  V30 6 1 6 7
M  V30 7 2 7 8
M  V30 8 1 8 9
M  V30 9 2 9 10
M  V30 10 1 10 11
M  V30 11 1 11 12
M  V30 12 1 12 13
M  V30 13 1 13 14
M  V30 14 2 14 15
M  V30 15 1 15 16
M  V30 16 2 16 17
M  V30 17 1 17 18
M  V30 18 2 18 19
M  V30 19 1 19 20
M  V30 20 2 20 21
M  V30 21 1 20 22
M  V30 22 1 22 23
M  V30 23 1 23 24
M  V30 24 1 24 25
M  V30 25 1 25 26
M  V30 26 1 26 27
M  V30 27 1 27 28
M  V30 28 1 28 29
M  V30 29 1 25 30
M  V30 30 1 30 31
M  V30 31 1 19 32
M  V30 32 2 32 33
M  V30 33 1 33 34
M  V30 34 2 34 35
M  V30 35 1 10 36
M  V30 36 2 36 37
M  V30 37 1 37 3
M  V30 38 1 36 6
M  V30 39 1 35 14
M  V30 40 1 34 17
M  V30 41 1 31 22
M  V30 42 1 4 38
M  V30 43 1 5 39
M  V30 44 1 8 40
M  V30 45 1 9 41
M  V30 46 1 11 42
M  V30 47 1 12 43
M  V30 48 1 12 44
M  V30 49 1 13 45
M  V30 50 1 13 46
M  V30 51 1 15 47
M  V30 52 1 16 48
M  V30 53 1 18 49
M  V30 54 1 23 50
M  V30 55 1 23 51
M  V30 56 1 24 52
M  V30 57 1 24 53
M  V30 58 1 26 54
M  V30 59 1 26 55
M  V30 60 1 27 56
M  V30 61 1 27 57
M  V30 62 1 28 58
M  V30 63 1 28 59
M  V30 64 1 29 60
M  V30 65 1 30 61
M  V30 66 1 30 62
M  V30 67 1 31 63
M  V30 68 1 31 64
M  V30 69 1 32 65
M  V30 70 1 33 66
M  V30 71 1 35 67
M  V30 72 1 37 68
M  V30 END BOND
M  V30 END CTAB
M  END
>  <Dataset>  (105) 
ChEMBL_Kinases

>  <Ligand_Instance>  (105) 
nan

>  <PDB_ID>  (105) 
nan

>  <Standardized_SMILES>  (105) 
N#Cc1ccc2nccc(NCCc3ccc4cc(C(=O)N5CCN(CCCO)CC5)ccc4c3)c2c1

>  <Name>  (105) 
nan

>  <Pocket>  (105) 
nan

>  <ATP_Site>  (105) 
nan

>  <Peripheral>  (105) 
nan

>  <Num_H_Atoms_ProtBoundConf>  (105) 
nan

>  <Num_Resolved_Atoms>  (105) 
nan

>  <Num_Not_Resolved_Atoms>  (105) 
nan

$$$$
CHEMBL4868021
     RDKit          3D

  0  0  0  0  0  0  0  0  0  0999 V3000
M  V30 BEGIN CTAB
M  V30 COUNTS 60 62 0 0 0
M  V30 BEGIN ATOM
M  V30 1 C -2.366018 -1.218291 0.164871 0
M  V30 2 C -1.580665 -0.942324 1.393889 0
M  V30 3 C -1.442363 0.332974 1.901638 0
M  V30 4 C -0.688206 0.468485 3.053580 0
M  V30 5 N -0.595098 1.831985 3.514709 0
M  V30 6 C 0.551714 2.395609 2.890527 0
M  V30 7 O 1.318395 1.785660 2.089968 0
M  V30 8 C 1.109518 3.773525 3.015666 0 CFG=2
M  V30 9 C 2.503945 3.725238 3.645833 0
M  V30 10 O 0.329550 4.523898 3.880469 0
M  V30 11 C 1.274814 4.409389 1.679028 0
M  V30 12 C 2.416500 5.101460 1.322746 0
M  V30 13 C 2.608176 5.704745 0.094635 0
M  V30 14 C 1.605365 5.621782 -0.851446 0
M  V30 15 C 0.447856 4.944177 -0.547965 0
M  V30 16 C 0.312725 4.362759 0.692258 0
M  V30 17 C -0.082794 -0.577520 3.704504 0
M  V30 18 C -0.241999 -1.849415 3.166419 0
M  V30 19 C -0.989469 -2.023094 2.015325 0
M  V30 20 C -1.061374 -3.412646 1.575496 0
M  V30 21 C -1.328100 -4.393555 2.537409 0
M  V30 22 N -1.404860 -5.690380 2.190329 0
M  V30 23 C -1.222945 -6.067384 0.891025 0
M  V30 24 N -1.323800 -7.477464 0.615815 0
M  V30 25 C -0.956068 -5.125605 -0.095742 0
M  V30 26 C -0.774560 -5.609940 -1.458529 0
M  V30 27 O -0.873077 -6.850613 -1.645322 0
M  V30 28 N -0.498640 -4.743794 -2.542743 0
M  V30 29 C -0.303954 -5.134582 -3.925400 0
M  V30 30 C 1.100649 -4.797213 -4.345302 0
M  V30 31 C -1.327596 -4.493454 -4.836712 0
M  V30 32 C -0.879438 -3.804790 0.266928 0
M  V30 33 H -3.218273 -0.480953 0.193090 0
M  V30 34 H -1.786494 -0.952984 -0.743920 0
M  V30 35 H -2.825675 -2.215179 0.140506 0
M  V30 36 H -1.921347 1.155777 1.385472 0
M  V30 37 H -1.088111 2.506143 4.138914 0
M  V30 38 H 3.241912 3.351663 2.917783 0
M  V30 39 H 2.461824 3.089453 4.567948 0
M  V30 40 H 2.736386 4.756460 3.957329 0
M  V30 41 H 0.087999 5.414086 3.529534 0
M  V30 42 H 3.225268 5.194001 2.024364 0
M  V30 43 H 3.533059 6.237768 -0.127743 0
M  V30 44 H 1.792191 6.106149 -1.799959 0
M  V30 45 H -0.301855 4.905901 -1.312105 0
M  V30 46 H -0.614677 3.842702 0.880686 0
M  V30 47 H 0.465846 -0.286326 4.588188 0
M  V30 48 H 0.260564 -2.642293 3.724610 0
M  V30 49 H -1.484288 -4.177040 3.586858 0
M  V30 50 H -0.349386 -7.790829 0.876492 0
M  V30 51 H -2.095886 -8.098335 0.259673 0
M  V30 52 H -0.414166 -3.713194 -2.402888 0
M  V30 53 H -0.399044 -6.245572 -4.060590 0
M  V30 54 H 1.785739 -5.659405 -4.340804 0
M  V30 55 H 1.486872 -4.019762 -3.657581 0
M  V30 56 H 1.062556 -4.313841 -5.347204 0
M  V30 57 H -1.677298 -3.517813 -4.440584 0
M  V30 58 H -0.811303 -4.308397 -5.800907 0
M  V30 59 H -2.162016 -5.192065 -5.036807 0
M  V30 60 H -0.671906 -3.060705 -0.489389 0
M  V30 END ATOM
M  V30 BEGIN BOND
M  V30 1 1 1 2
M  V30 2 2 2 3
M  V30 3 1 3 4
M  V30 4 1 4 5
M  V30 5 1 5 6
M  V30 6 2 6 7
M  V30 7 1 6 8
M  V30 8 1 8 9
M  V30 9 1 8 10 CFG=1
M  V30 10 1 8 11
M  V30 11 2 11 12
M  V30 12 1 12 13
M  V30 13 2 13 14
M  V30 14 1 14 15
M  V30 15 2 15 16
M  V30 16 2 4 17
M  V30 17 1 17 18
M  V30 18 2 18 19
M  V30 19 1 19 20
M  V30 20 2 20 21
M  V30 21 1 21 22
M  V30 22 2 22 23
M  V30 23 1 23 24
M  V30 24 1 23 25
M  V30 25 1 25 26
M  V30 26 2 26 27
M  V30 27 1 26 28
M  V30 28 1 28 29
M  V30 29 1 29 30
M  V30 30 1 29 31
M  V30 31 2 25 32
M  V30 32 1 19 2
M  V30 33 1 32 20
M  V30 34 1 16 11
M  V30 35 1 1 33
M  V30 36 1 1 34
M  V30 37 1 1 35
M  V30 38 1 3 36
M  V30 39 1 5 37
M  V30 40 1 9 38
M  V30 41 1 9 39
M  V30 42 1 9 40
M  V30 43 1 10 41
M  V30 44 1 12 42
M  V30 45 1 13 43
M  V30 46 1 14 44
M  V30 47 1 15 45
M  V30 48 1 16 46
M  V30 49 1 17 47
M  V30 50 1 18 48
M  V30 51 1 21 49
M  V30 52 1 24 50
M  V30 53 1 24 51
M  V30 54 1 28 52
M  V30 55 1 29 53
M  V30 56 1 30 54
M  V30 57 1 30 55
M  V30 58 1 30 56
M  V30 59 1 31 57
M  V30 60 1 31 58
M  V30 61 1 31 59
M  V30 62 1 32 60
M  V30 END BOND
M  V30 END CTAB
M  END
>  <Dataset>  (106) 
ChEMBL_Kinases

>  <Ligand_Instance>  (106) 
nan

>  <PDB_ID>  (106) 
nan

>  <Standardized_SMILES>  (106) 
Cc1cc(NC(=O)[C@](C)(O)c2ccccc2)ccc1-c1cnc(N)c(C(=O)NC(C)C)c1

>  <Name>  (106) 
nan

>  <Pocket>  (106) 
nan

>  <ATP_Site>  (106) 
nan

>  <Peripheral>  (106) 
nan

>  <Num_H_Atoms_ProtBoundConf>  (106) 
nan

>  <Num_Resolved_Atoms>  (106) 
nan

>  <Num_Not_Resolved_Atoms>  (106) 
nan

$$$$
CHEMBL4868026
     RDKit          3D

  0  0  0  0  0  0  0  0  0  0999 V3000
M  V30 BEGIN CTAB
M  V30 COUNTS 36 39 0 0 0
M  V30 BEGIN ATOM
M  V30 1 C 1.215239 -7.605488 2.042664 0
M  V30 2 N 1.573036 -6.242376 1.675387 0
M  V30 3 C 0.730768 -5.196076 1.608963 0
M  V30 4 C 1.397644 -4.051568 1.229918 0
M  V30 5 C 0.915716 -2.691927 1.025456 0
M  V30 6 C 1.478494 -1.845995 0.109975 0
M  V30 7 C 0.998326 -0.574206 -0.054341 0
M  V30 8 N -0.023974 -0.079597 0.645392 0
M  V30 9 C -0.593613 1.130392 0.592186 0
M  V30 10 C -0.363945 2.323968 -0.183889 0
M  V30 11 C 0.462931 2.730609 -1.132430 0
M  V30 12 C 0.371557 3.990830 -1.646830 0
M  V30 13 C -0.628910 4.825239 -1.128481 0
M  V30 14 C -1.047890 6.196338 -1.395991 0
M  V30 15 N -2.133796 6.710105 -0.648501 0
M  V30 16 O -0.394917 6.791433 -2.273939 0
M  V30 17 S -1.392701 3.732490 0.087949 0
M  V30 18 C -1.588950 0.996254 1.565453 0
M  V30 19 N -1.573100 -0.220737 2.128092 0
M  V30 20 C -0.579495 -0.903943 1.544006 0
M  V30 21 C -0.133676 -2.191982 1.747403 0
M  V30 22 C 2.712355 -4.485923 1.071312 0
M  V30 23 N 2.791343 -5.805023 1.344672 0
M  V30 24 H 0.604828 -7.636164 2.977945 0
M  V30 25 H 2.146493 -8.163487 2.238780 0
M  V30 26 H 0.622857 -8.050433 1.209259 0
M  V30 27 H -0.329728 -5.221519 1.819118 0
M  V30 28 H 2.319704 -2.248034 -0.468127 0
M  V30 29 H 1.520250 -0.010085 -0.798816 0
M  V30 30 H 1.241204 2.119775 -1.553806 0
M  V30 31 H 0.951225 4.482465 -2.409764 0
M  V30 32 H -2.466794 7.214871 0.201710 0
M  V30 33 H -3.165263 6.840660 -0.577700 0
M  V30 34 H -2.349325 1.678798 1.936752 0
M  V30 35 H -0.636460 -2.792845 2.491801 0
M  V30 36 H 3.562230 -3.873688 0.773405 0
M  V30 END ATOM
M  V30 BEGIN BOND
M  V30 1 1 1 2
M  V30 2 1 2 3
M  V30 3 2 3 4
M  V30 4 1 4 5
M  V30 5 1 5 6
M  V30 6 2 6 7
M  V30 7 1 7 8
M  V30 8 1 8 9
M  V30 9 1 9 10
M  V30 10 2 10 11
M  V30 11 1 11 12
M  V30 12 2 12 13
M  V30 13 1 13 14
M  V30 14 1 14 15
M  V30 15 2 14 16
M  V30 16 1 13 17
M  V30 17 2 9 18
M  V30 18 1 18 19
M  V30 19 2 19 20
M  V30 20 1 20 21
M  V30 21 1 4 22
M  V30 22 2 22 23
M  V30 23 1 23 2
M  V30 24 2 21 5
M  V30 25 1 20 8
M  V30 26 1 17 10
M  V30 27 1 1 24
M  V30 28 1 1 25
M  V30 29 1 1 26
M  V30 30 1 3 27
M  V30 31 1 6 28
M  V30 32 1 7 29
M  V30 33 1 11 30
M  V30 34 1 12 31
M  V30 35 1 15 32
M  V30 36 1 15 33
M  V30 37 1 18 34
M  V30 38 1 21 35
M  V30 39 1 22 36
M  V30 END BOND
M  V30 END CTAB
M  END
>  <Dataset>  (107) 
ChEMBL_Kinases

>  <Ligand_Instance>  (107) 
nan

>  <PDB_ID>  (107) 
nan

>  <Standardized_SMILES>  (107) 
Cn1cc(-c2ccn3c(-c4ccc(C(N)=O)s4)cnc3c2)cn1

>  <Name>  (107) 
nan

>  <Pocket>  (107) 
nan

>  <ATP_Site>  (107) 
nan

>  <Peripheral>  (107) 
nan

>  <Num_H_Atoms_ProtBoundConf>  (107) 
nan

>  <Num_Resolved_Atoms>  (107) 
nan

>  <Num_Not_Resolved_Atoms>  (107) 
nan

$$$$
CHEMBL4868071
     RDKit          3D

  0  0  0  0  0  0  0  0  0  0999 V3000
M  V30 BEGIN CTAB
M  V30 COUNTS 50 53 0 0 0
M  V30 BEGIN ATOM
M  V30 1 C 2.400198 -1.376200 3.973897 0
M  V30 2 C 2.991168 -2.397857 3.049171 0
M  V30 3 C 4.361842 -2.846267 3.432489 0
M  V30 4 C 2.906457 -1.924317 1.582825 0
M  V30 5 O 3.609109 -0.718353 1.426227 0
M  V30 6 C 3.044140 0.505333 1.108786 0
M  V30 7 O 3.820304 1.466557 1.075377 0
M  V30 8 N 1.628122 0.602394 0.841330 0
M  V30 9 C 1.119689 1.894894 0.515972 0
M  V30 10 C 0.521768 1.989211 -0.866122 0
M  V30 11 C -0.255880 3.292485 -0.822841 0
M  V30 12 C -0.858100 3.271634 0.552414 0
M  V30 13 C 0.014309 2.363558 1.415050 0
M  V30 14 C 0.891677 -0.584890 0.923135 0
M  V30 15 N -0.419499 -0.502054 0.648610 0
M  V30 16 C -1.177962 -1.640958 0.690895 0
M  V30 17 N -2.565677 -1.875925 0.475995 0
M  V30 18 C -3.141521 -1.988488 -0.816876 0
M  V30 19 C -2.397413 -1.839039 -1.961349 0
M  V30 20 C -3.005760 -1.958822 -3.190977 0
M  V30 21 F -2.308254 -1.818983 -4.368909 0
M  V30 22 C -4.374029 -2.230903 -3.295137 0
M  V30 23 F -5.007242 -2.354484 -4.504717 0
M  V30 24 C -5.106888 -2.377856 -2.137341 0
M  V30 25 F -6.439139 -2.640416 -2.126699 0
M  V30 26 C -4.489043 -2.256234 -0.916214 0
M  V30 27 N -0.588025 -2.808301 1.003710 0
M  V30 28 C 0.712845 -2.972174 1.290351 0
M  V30 29 C 1.470046 -1.794848 1.243270 0
M  V30 30 H 3.154180 -0.956357 4.669267 0
M  V30 31 H 1.911095 -0.577780 3.360014 0
M  V30 32 H 1.615951 -1.814674 4.610006 0
M  V30 33 H 2.306697 -3.292875 3.073175 0
M  V30 34 H 5.006784 -3.016871 2.545047 0
M  V30 35 H 4.282478 -3.814650 3.991611 0
M  V30 36 H 4.815696 -2.132937 4.149938 0
M  V30 37 H 3.389180 -2.662283 0.937922 0
M  V30 38 H 1.959391 2.618154 0.533192 0
M  V30 39 H -0.203098 1.170494 -1.056208 0
M  V30 40 H 1.272841 1.971063 -1.671467 0
M  V30 41 H 0.399889 4.168263 -0.983886 0
M  V30 42 H -1.034201 3.348152 -1.637932 0
M  V30 43 H -0.910346 4.309581 0.936451 0
M  V30 44 H -1.896469 2.884850 0.464280 0
M  V30 45 H -0.603816 1.549793 1.825620 0
M  V30 46 H 0.434139 3.007693 2.214859 0
M  V30 47 H -3.141451 -1.959514 1.341211 0
M  V30 48 H -1.325308 -1.626972 -1.913708 0
M  V30 49 H -5.056661 -2.372247 0.001243 0
M  V30 50 H 1.167310 -3.921013 1.536308 0
M  V30 END ATOM
M  V30 BEGIN BOND
M  V30 1 1 1 2
M  V30 2 1 2 3
M  V30 3 1 2 4
M  V30 4 1 4 5
M  V30 5 1 5 6
M  V30 6 2 6 7
M  V30 7 1 6 8
M  V30 8 1 8 9
M  V30 9 1 9 10
M  V30 10 1 10 11
M  V30 11 1 11 12
M  V30 12 1 12 13
M  V30 13 1 8 14
M  V30 14 2 14 15
M  V30 15 1 15 16
M  V30 16 1 16 17
M  V30 17 1 17 18
M  V30 18 2 18 19
M  V30 19 1 19 20
M  V30 20 1 20 21
M  V30 21 2 20 22
M  V30 22 1 22 23
M  V30 23 1 22 24
M  V30 24 1 24 25
M  V30 25 2 24 26
M  V30 26 2 16 27
M  V30 27 1 27 28
M  V30 28 2 28 29
M  V30 29 1 29 4
M  V30 30 1 13 9
M  V30 31 1 29 14
M  V30 32 1 26 18
M  V30 33 1 1 30
M  V30 34 1 1 31
M  V30 35 1 1 32
M  V30 36 1 2 33
M  V30 37 1 3 34
M  V30 38 1 3 35
M  V30 39 1 3 36
M  V30 40 1 4 37
M  V30 41 1 9 38
M  V30 42 1 10 39
M  V30 43 1 10 40
M  V30 44 1 11 41
M  V30 45 1 11 42
M  V30 46 1 12 43
M  V30 47 1 12 44
M  V30 48 1 13 45
M  V30 49 1 13 46
M  V30 50 1 17 47
M  V30 51 1 19 48
M  V30 52 1 26 49
M  V30 53 1 28 50
M  V30 END BOND
M  V30 END CTAB
M  END
>  <Dataset>  (108) 
ChEMBL_Kinases

>  <Ligand_Instance>  (108) 
nan

>  <PDB_ID>  (108) 
nan

>  <Standardized_SMILES>  (108) 
CC(C)C1OC(=O)N(C2CCCC2)c2nc(Nc3cc(F)c(F)c(F)c3)ncc21

>  <Name>  (108) 
nan

>  <Pocket>  (108) 
nan

>  <ATP_Site>  (108) 
nan

>  <Peripheral>  (108) 
nan

>  <Num_H_Atoms_ProtBoundConf>  (108) 
nan

>  <Num_Resolved_Atoms>  (108) 
nan

>  <Num_Not_Resolved_Atoms>  (108) 
nan

$$$$
CHEMBL8706
     RDKit          3D

  0  0  0  0  0  0  0  0  0  0999 V3000
M  V30 BEGIN CTAB
M  V30 COUNTS 32 32 0 0 0
M  V30 BEGIN ATOM
M  V30 1 C 0.085325 -4.900528 2.922206 0
M  V30 2 C -0.576652 -3.904702 2.690276 0
M  V30 3 C -1.359931 -2.698355 2.402991 0
M  V30 4 N -0.602779 -1.831604 1.457614 0
M  V30 5 C 0.533983 -1.406396 2.297941 0
M  V30 6 C -0.176206 -2.589889 0.337989 0
M  V30 7 C 0.362833 -1.931143 -0.869244 0
M  V30 8 C 1.554057 -1.088412 -0.787436 0
M  V30 9 O 1.482671 0.052257 -0.040909 0
M  V30 10 C 0.698617 1.125423 -0.193838 0
M  V30 11 C -0.282518 1.532551 -1.048190 0
M  V30 12 C -0.960122 2.716973 -0.990551 0
M  V30 13 C -0.644533 3.597650 0.009252 0
M  V30 14 Cl -1.559362 5.096289 0.008613 0
M  V30 15 C 0.349570 3.270048 0.933282 0
M  V30 16 C 1.004641 2.046878 0.819862 0
M  V30 17 Cl 2.211989 1.986939 2.121186 0
M  V30 18 H 0.669681 -5.776805 3.144819 0
M  V30 19 H -2.320345 -2.950254 1.928324 0
M  V30 20 H -1.537714 -2.134582 3.334821 0
M  V30 21 H 0.476545 -1.885680 3.323526 0
M  V30 22 H 0.481218 -0.317920 2.452542 0
M  V30 23 H 1.455040 -1.771887 1.867278 0
M  V30 24 H 0.608991 -3.355701 0.676712 0
M  V30 25 H -0.993679 -3.286260 -0.030355 0
M  V30 26 H 0.660026 -2.784695 -1.612632 0
M  V30 27 H -0.449880 -1.423316 -1.467179 0
M  V30 28 H 1.837537 -0.812240 -1.873201 0
M  V30 29 H 2.449300 -1.733007 -0.492088 0
M  V30 30 H -0.502659 0.828118 -1.825589 0
M  V30 31 H -1.718178 2.914435 -1.732683 0
M  V30 32 H 0.460421 4.071516 1.642034 0
M  V30 END ATOM
M  V30 BEGIN BOND
M  V30 1 3 1 2
M  V30 2 1 2 3
M  V30 3 1 3 4
M  V30 4 1 4 5
M  V30 5 1 4 6
M  V30 6 1 6 7
M  V30 7 1 7 8
M  V30 8 1 8 9
M  V30 9 1 9 10
M  V30 10 2 10 11
M  V30 11 1 11 12
M  V30 12 2 12 13
M  V30 13 1 13 14
M  V30 14 1 13 15
M  V30 15 2 15 16
M  V30 16 1 16 17
M  V30 17 1 16 10
M  V30 18 1 1 18
M  V30 19 1 3 19
M  V30 20 1 3 20
M  V30 21 1 5 21
M  V30 22 1 5 22
M  V30 23 1 5 23
M  V30 24 1 6 24
M  V30 25 1 6 25
M  V30 26 1 7 26
M  V30 27 1 7 27
M  V30 28 1 8 28
M  V30 29 1 8 29
M  V30 30 1 11 30
M  V30 31 1 12 31
M  V30 32 1 15 32
M  V30 END BOND
M  V30 END CTAB
M  END
>  <Dataset>  (109) 
ChEMBL_Kinases

>  <Ligand_Instance>  (109) 
nan

>  <PDB_ID>  (109) 
nan

>  <Standardized_SMILES>  (109) 
C#CCN(C)CCCOc1ccc(Cl)cc1Cl

>  <Name>  (109) 
CLORGILINE

>  <Pocket>  (109) 
nan

>  <ATP_Site>  (109) 
nan

>  <Peripheral>  (109) 
nan

>  <Num_H_Atoms_ProtBoundConf>  (109) 
nan

>  <Num_Resolved_Atoms>  (109) 
nan

>  <Num_Not_Resolved_Atoms>  (109) 
nan

$$$$
CHEMBL486813
     RDKit          3D

  0  0  0  0  0  0  0  0  0  0999 V3000
M  V30 BEGIN CTAB
M  V30 COUNTS 22 23 0 0 0
M  V30 BEGIN ATOM
M  V30 1 C 0.591184 0.607517 3.703450 0
M  V30 2 C 0.267531 -0.538326 2.783270 0
M  V30 3 O 1.203151 -1.555537 2.978877 0
M  V30 4 C 1.799335 -1.844062 1.758084 0
M  V30 5 O 2.684531 -2.684846 1.488286 0
M  V30 6 C 1.228759 -0.981054 0.730832 0
M  V30 7 C 1.452504 -0.848479 -0.628481 0
M  V30 8 C 0.720047 0.097477 -1.341533 0
M  V30 9 O 0.890889 0.288362 -2.714896 0
M  V30 10 C -0.213158 0.881856 -0.675511 0
M  V30 11 O -0.943872 1.826867 -1.391768 0
M  V30 12 C -0.446968 0.758405 0.688491 0
M  V30 13 O -1.373119 1.537131 1.348429 0
M  V30 14 C 0.292054 -0.181386 1.353169 0
M  V30 15 H 0.605864 0.177420 4.733216 0
M  V30 16 H -0.224410 1.371051 3.728098 0
M  V30 17 H 1.527050 1.100538 3.433541 0
M  V30 18 H -0.728250 -0.953271 3.091484 0
M  V30 19 H 2.186468 -1.466266 -1.148978 0
M  V30 20 H 0.221883 -0.162866 -3.352264 0
M  V30 21 H -0.511894 2.730393 -1.496835 0
M  V30 22 H -2.343054 1.331493 1.447298 0
M  V30 END ATOM
M  V30 BEGIN BOND
M  V30 1 1 1 2
M  V30 2 1 2 3
M  V30 3 1 3 4
M  V30 4 2 4 5
M  V30 5 1 4 6
M  V30 6 2 6 7
M  V30 7 1 7 8
M  V30 8 1 8 9
M  V30 9 2 8 10
M  V30 10 1 10 11
M  V30 11 1 10 12
M  V30 12 1 12 13
M  V30 13 2 12 14
M  V30 14 1 14 2
M  V30 15 1 14 6
M  V30 16 1 1 15
M  V30 17 1 1 16
M  V30 18 1 1 17
M  V30 19 1 2 18
M  V30 20 1 7 19
M  V30 21 1 9 20
M  V30 22 1 11 21
M  V30 23 1 13 22
M  V30 END BOND
M  V30 END CTAB
M  END
>  <Dataset>  (110) 
ChEMBL_Kinases

>  <Ligand_Instance>  (110) 
nan

>  <PDB_ID>  (110) 
nan

>  <Standardized_SMILES>  (110) 
CC1OC(=O)c2cc(O)c(O)c(O)c21

>  <Name>  (110) 
nan

>  <Pocket>  (110) 
nan

>  <ATP_Site>  (110) 
nan

>  <Peripheral>  (110) 
nan

>  <Num_H_Atoms_ProtBoundConf>  (110) 
nan

>  <Num_Resolved_Atoms>  (110) 
nan

>  <Num_Not_Resolved_Atoms>  (110) 
nan

$$$$
CHEMBL4867649
     RDKit          3D

  0  0  0  0  0  0  0  0  0  0999 V3000
M  V30 BEGIN CTAB
M  V30 COUNTS 44 45 0 0 0
M  V30 BEGIN ATOM
M  V30 1 C -1.598090 -4.183736 1.868716 0
M  V30 2 O -1.670385 -3.124948 2.832830 0
M  V30 3 C -0.822035 -2.042702 2.715154 0
M  V30 4 C 0.100201 -1.980890 1.663297 0
M  V30 5 C 0.983356 -0.915757 1.489844 0
M  V30 6 N 1.860958 -1.026867 0.347981 0
M  V30 7 C 1.306554 -0.444136 -0.862572 0
M  V30 8 O 0.198972 -0.063888 -0.326034 0
M  V30 9 C 2.095217 -0.492639 -2.080813 0 CFG=2
M  V30 10 N 3.259617 -1.376149 -1.801231 0
M  V30 11 C 2.665170 0.798117 -2.466433 0
M  V30 12 C 1.891217 1.985122 -2.773936 0
M  V30 13 C 1.026579 2.524270 -1.664914 0
M  V30 14 C 1.027501 1.949711 -4.000833 0
M  V30 15 C 0.958671 0.131925 2.387792 0
M  V30 16 C 0.061208 0.103223 3.437454 0
M  V30 17 C -0.801572 -0.969236 3.580470 0
M  V30 18 C -1.749751 -0.977798 4.707547 0
M  V30 19 C -3.092987 -1.292150 4.733959 0
M  V30 20 N -3.576708 -1.167165 5.980932 0
M  V30 21 N -2.565389 -0.776368 6.761766 0
M  V30 22 C -1.434858 -0.651481 6.013818 0
M  V30 23 H -0.551648 -4.590077 1.788227 0
M  V30 24 H -2.250178 -5.015765 2.136502 0
M  V30 25 H -1.914774 -3.795681 0.880467 0
M  V30 26 H 0.093805 -2.815800 0.978878 0
M  V30 27 H 2.811821 -1.497270 0.430119 0
M  V30 28 H 1.598730 -1.052575 -2.913805 0
M  V30 29 H 2.823517 -2.328162 -1.653651 0
M  V30 30 H 3.727851 -1.455488 -2.750208 0
M  V30 31 H 3.423556 0.569766 -3.291526 0
M  V30 32 H 3.383098 1.079194 -1.619502 0
M  V30 33 H 2.635484 2.821493 -2.976166 0
M  V30 34 H 0.971433 3.648243 -1.704301 0
M  V30 35 H -0.032528 2.211865 -1.722588 0
M  V30 36 H 1.401451 2.309989 -0.649145 0
M  V30 37 H -0.052442 1.754726 -3.725853 0
M  V30 38 H 0.973302 2.940918 -4.502252 0
M  V30 39 H 1.285579 1.213706 -4.756091 0
M  V30 40 H 1.658924 0.928175 2.210224 0
M  V30 41 H 0.053043 0.936252 4.137716 0
M  V30 42 H -3.605481 -1.588314 3.828457 0
M  V30 43 H -2.693294 -0.607609 7.796556 0
M  V30 44 H -0.466807 -0.344865 6.410736 0
M  V30 END ATOM
M  V30 BEGIN BOND
M  V30 1 1 1 2
M  V30 2 1 2 3
M  V30 3 2 3 4
M  V30 4 1 4 5
M  V30 5 1 5 6
M  V30 6 1 6 7
M  V30 7 2 7 8
M  V30 8 1 7 9
M  V30 9 1 9 10
M  V30 10 1 9 11
M  V30 11 1 11 12
M  V30 12 1 12 13
M  V30 13 1 12 14
M  V30 14 2 5 15
M  V30 15 1 15 16
M  V30 16 2 16 17
M  V30 17 1 17 18
M  V30 18 1 18 19
M  V30 19 2 19 20
M  V30 20 1 20 21
M  V30 21 1 21 22
M  V30 22 1 17 3
M  V30 23 2 22 18
M  V30 24 1 1 23
M  V30 25 1 1 24
M  V30 26 1 1 25
M  V30 27 1 4 26
M  V30 28 1 6 27
M  V30 29 1 9 28 CFG=3
M  V30 30 1 10 29
M  V30 31 1 10 30
M  V30 32 1 11 31
M  V30 33 1 11 32
M  V30 34 1 12 33
M  V30 35 1 13 34
M  V30 36 1 13 35
M  V30 37 1 13 36
M  V30 38 1 14 37
M  V30 39 1 14 38
M  V30 40 1 14 39
M  V30 41 1 15 40
M  V30 42 1 16 41
M  V30 43 1 19 42
M  V30 44 1 21 43
M  V30 45 1 22 44
M  V30 END BOND
M  V30 END CTAB
M  END
>  <Dataset>  (111) 
ChEMBL_Kinases

>  <Ligand_Instance>  (111) 
nan

>  <PDB_ID>  (111) 
nan

>  <Standardized_SMILES>  (111) 
COc1cc(NC(=O)[C@H](N)CC(C)C)ccc1-c1cn[nH]c1

>  <Name>  (111) 
nan

>  <Pocket>  (111) 
nan

>  <ATP_Site>  (111) 
nan

>  <Peripheral>  (111) 
nan

>  <Num_H_Atoms_ProtBoundConf>  (111) 
nan

>  <Num_Resolved_Atoms>  (111) 
nan

>  <Num_Not_Resolved_Atoms>  (111) 
nan

$$$$
CHEMBL3979434
     RDKit          3D

  0  0  0  0  0  0  0  0  0  0999 V3000
M  V30 BEGIN CTAB
M  V30 COUNTS 49 52 0 0 0
M  V30 BEGIN ATOM
M  V30 1 O -0.117465 -4.957924 -0.183916 0
M  V30 2 C -0.120947 -3.724067 -0.404407 0
M  V30 3 C 1.088340 -3.403530 -1.175135 0
M  V30 4 N 1.145937 -1.981788 -1.411528 0
M  V30 5 C 1.249116 -1.087522 -0.319328 0
M  V30 6 O 1.305758 -1.446129 0.907024 0
M  V30 7 C 1.298582 0.353546 -0.542086 0
M  V30 8 C 1.251561 0.950920 -1.786179 0
M  V30 9 N 1.298651 2.282751 -1.966687 0
M  V30 10 C 1.396090 3.152160 -0.946221 0
M  V30 11 N 1.461918 4.491803 -0.812162 0
M  V30 12 C 1.553618 4.849223 0.489135 0
M  V30 13 C 1.545454 3.681476 1.212207 0
M  V30 14 C 1.628784 3.632038 2.667675 0
M  V30 15 C 2.428502 2.782195 3.404735 0
M  V30 16 C 2.437626 2.811264 4.785023 0
M  V30 17 C 1.644043 3.695123 5.487484 0
M  V30 18 C 0.832448 4.558742 4.779444 0
M  V30 19 C 0.834443 4.517160 3.385311 0
M  V30 20 C 1.447594 2.640530 0.310845 0
M  V30 21 C 1.398366 1.276516 0.478832 0
M  V30 22 N -1.209903 -3.012139 0.107163 0
M  V30 23 C -2.410385 -3.213478 0.839204 0
M  V30 24 C -3.484639 -4.021075 0.217921 0
M  V30 25 C -3.177562 -5.400932 -0.148394 0
M  V30 26 C -2.759947 -6.033996 -1.328534 0
M  V30 27 N -2.665227 -7.362951 -1.164006 0
M  V30 28 C -3.023542 -7.534352 0.109020 0
M  V30 29 N -3.336308 -6.406185 0.754414 0
M  V30 30 H 1.973477 -3.677423 -0.548505 0
M  V30 31 H 1.080153 -3.986519 -2.119844 0
M  V30 32 H 1.107733 -1.670367 -2.404355 0
M  V30 33 H 1.173016 0.333929 -2.670776 0
M  V30 34 H 1.444155 5.167031 -1.613930 0
M  V30 35 H 1.621233 5.847949 0.905715 0
M  V30 36 H 3.041674 2.099300 2.857670 0
M  V30 37 H 3.083054 2.124228 5.339036 0
M  V30 38 H 1.652100 3.716896 6.568763 0
M  V30 39 H 0.209771 5.252172 5.328171 0
M  V30 40 H 0.191211 5.202051 2.842680 0
M  V30 41 H 1.443373 0.916140 1.514880 0
M  V30 42 H -1.063508 -2.004784 -0.176330 0
M  V30 43 H -2.161556 -3.694222 1.858019 0
M  V30 44 H -2.864091 -2.239780 1.147720 0
M  V30 45 H -4.399105 -4.009581 0.900382 0
M  V30 46 H -3.883307 -3.538287 -0.724733 0
M  V30 47 H -2.560606 -5.445264 -2.216707 0
M  V30 48 H -2.379421 -8.072354 -1.871027 0
M  V30 49 H -3.057361 -8.517948 0.581911 0
M  V30 END ATOM
M  V30 BEGIN BOND
M  V30 1 2 1 2
M  V30 2 1 2 3
M  V30 3 1 3 4
M  V30 4 1 4 5
M  V30 5 2 5 6
M  V30 6 1 5 7
M  V30 7 2 7 8
M  V30 8 1 8 9
M  V30 9 2 9 10
M  V30 10 1 10 11
M  V30 11 1 11 12
M  V30 12 2 12 13
M  V30 13 1 13 14
M  V30 14 2 14 15
M  V30 15 1 15 16
M  V30 16 2 16 17
M  V30 17 1 17 18
M  V30 18 2 18 19
M  V30 19 1 13 20
M  V30 20 2 20 21
M  V30 21 1 2 22
M  V30 22 1 22 23
M  V30 23 1 23 24
M  V30 24 1 24 25
M  V30 25 2 25 26
M  V30 26 1 26 27
M  V30 27 1 27 28
M  V30 28 2 28 29
M  V30 29 1 21 7
M  V30 30 1 29 25
M  V30 31 1 20 10
M  V30 32 1 19 14
M  V30 33 1 3 30
M  V30 34 1 3 31
M  V30 35 1 4 32
M  V30 36 1 8 33
M  V30 37 1 11 34
M  V30 38 1 12 35
M  V30 39 1 15 36
M  V30 40 1 16 37
M  V30 41 1 17 38
M  V30 42 1 18 39
M  V30 43 1 19 40
M  V30 44 1 21 41
M  V30 45 1 22 42
M  V30 46 1 23 43
M  V30 47 1 23 44
M  V30 48 1 24 45
M  V30 49 1 24 46
M  V30 50 1 26 47
M  V30 51 1 27 48
M  V30 52 1 28 49
M  V30 END BOND
M  V30 END CTAB
M  END
>  <Dataset>  (112) 
ChEMBL_Kinases

>  <Ligand_Instance>  (112) 
nan

>  <PDB_ID>  (112) 
nan

>  <Standardized_SMILES>  (112) 
O=C(CNC(=O)c1cnc2[nH]cc(-c3ccccc3)c2c1)NCCc1c[nH]cn1

>  <Name>  (112) 
nan

>  <Pocket>  (112) 
nan

>  <ATP_Site>  (112) 
nan

>  <Peripheral>  (112) 
nan

>  <Num_H_Atoms_ProtBoundConf>  (112) 
nan

>  <Num_Resolved_Atoms>  (112) 
nan

>  <Num_Not_Resolved_Atoms>  (112) 
nan

$$$$
CHEMBL4867211
     RDKit          3D

  0  0  0  0  0  0  0  0  0  0999 V3000
M  V30 BEGIN CTAB
M  V30 COUNTS 66 72 0 0 0
M  V30 BEGIN ATOM
M  V30 1 C 5.260365 -4.324148 2.361176 0
M  V30 2 C 4.264626 -5.024721 2.916629 0
M  V30 3 C 2.822312 -4.946070 2.470029 0
M  V30 4 N 2.593519 -4.055468 1.401872 0
M  V30 5 C 2.715689 -4.424661 0.096846 0
M  V30 6 O 3.044178 -5.551324 -0.381096 0
M  V30 7 C 2.418404 -3.351013 -0.711438 0
M  V30 8 C 2.381097 -3.161545 -2.070387 0
M  V30 9 N 2.042563 -1.959180 -2.605935 0
M  V30 10 C 1.747486 -0.969606 -1.712739 0
M  V30 11 N 1.367482 0.381071 -2.026928 0
M  V30 12 C 0.019176 0.725735 -2.264511 0
M  V30 13 C -0.370877 2.039368 -2.549931 0
M  V30 14 C -1.690195 2.346215 -2.782567 0
M  V30 15 C -2.677257 1.413146 -2.750722 0
M  V30 16 C -2.331673 0.082184 -2.468179 0
M  V30 17 C -0.983059 -0.219290 -2.232578 0
M  V30 18 C -3.400331 -0.950886 -2.431947 0
M  V30 19 N -4.287142 -0.861604 -3.564605 0
M  V30 20 C -4.528965 0.493835 -3.992237 0
M  V30 21 C -4.135506 1.514756 -2.963989 0
M  V30 22 C -4.917319 1.449030 -1.662326 0
M  V30 23 C -4.949010 2.663907 -2.583627 0
M  V30 24 N 1.783264 -1.152536 -0.383013 0
M  V30 25 C 2.116604 -2.338348 0.169826 0
M  V30 26 N 2.228506 -2.786462 1.464497 0
M  V30 27 C 1.953523 -1.920593 2.516289 0
M  V30 28 C 2.443481 -1.962466 3.799592 0
M  V30 29 C 2.174153 -1.113325 4.831254 0
M  V30 30 C 1.292076 -0.055118 4.587779 0
M  V30 31 C 0.784766 0.012927 3.310104 0
M  V30 32 N 1.096969 -0.861692 2.345726 0
M  V30 33 C -0.128087 1.154605 3.141065 0 CFG=1
M  V30 34 O 0.050126 1.808393 1.926997 0
M  V30 35 C -1.542898 0.666533 3.322693 0
M  V30 36 F -2.418596 1.747325 3.162961 0
M  V30 37 F -1.732738 0.217936 4.614762 0
M  V30 38 F -1.887634 -0.354808 2.474232 0
M  V30 39 C 0.217763 2.038071 4.316705 0
M  V30 40 C 0.725835 1.063004 5.354473 0
M  V30 41 H 6.331555 -4.319683 2.620501 0
M  V30 42 H 5.185434 -3.634850 1.554214 0
M  V30 43 H 4.508931 -5.674490 3.720437 0
M  V30 44 H 2.137129 -4.860100 3.332191 0
M  V30 45 H 2.625311 -5.986335 2.128507 0
M  V30 46 H 2.615505 -3.951406 -2.754869 0
M  V30 47 H 2.125369 1.065257 -2.065884 0
M  V30 48 H 0.360010 2.830921 -2.591090 0
M  V30 49 H -2.071073 3.336933 -3.009574 0
M  V30 50 H -0.695182 -1.260087 -2.009165 0
M  V30 51 H -3.898234 -0.885110 -1.456650 0
M  V30 52 H -2.900076 -1.937797 -2.495869 0
M  V30 53 H -5.173259 -1.339231 -3.280493 0
M  V30 54 H -4.042064 0.742700 -4.949082 0
M  V30 55 H -5.617133 0.615396 -4.172078 0
M  V30 56 H -4.409808 1.585518 -0.699986 0
M  V30 57 H -5.773190 0.758477 -1.627835 0
M  V30 58 H -4.467298 3.592593 -2.207530 0
M  V30 59 H -5.921578 2.790751 -3.103087 0
M  V30 60 H 3.119832 -2.732533 4.070826 0
M  V30 61 H 2.580229 -1.188616 5.809886 0
M  V30 62 H -0.471303 2.665190 1.974375 0
M  V30 63 H 1.052088 2.726295 3.996520 0
M  V30 64 H -0.653848 2.621716 4.667707 0
M  V30 65 H -0.060209 0.771812 6.083623 0
M  V30 66 H 1.506965 1.619199 5.934892 0
M  V30 END ATOM
M  V30 BEGIN BOND
M  V30 1 2 1 2
M  V30 2 1 2 3
M  V30 3 1 3 4
M  V30 4 1 4 5
M  V30 5 2 5 6
M  V30 6 1 5 7
M  V30 7 2 7 8
M  V30 8 1 8 9
M  V30 9 2 9 10
M  V30 10 1 10 11
M  V30 11 1 11 12
M  V30 12 2 12 13
M  V30 13 1 13 14
M  V30 14 2 14 15
M  V30 15 1 15 16
M  V30 16 2 16 17
M  V30 17 1 16 18
M  V30 18 1 18 19
M  V30 19 1 19 20
M  V30 20 1 20 21
M  V30 21 1 21 22
M  V30 22 1 22 23
M  V30 23 1 10 24
M  V30 24 2 24 25
M  V30 25 1 25 26
M  V30 26 1 26 27
M  V30 27 2 27 28
M  V30 28 1 28 29
M  V30 29 2 29 30
M  V30 30 1 30 31
M  V30 31 2 31 32
M  V30 32 1 31 33
M  V30 33 1 33 34 CFG=3
M  V30 34 1 33 35
M  V30 35 1 35 36
M  V30 36 1 35 37
M  V30 37 1 35 38
M  V30 38 1 33 39
M  V30 39 1 39 40
M  V30 40 1 26 4
M  V30 41 1 32 27
M  V30 42 1 25 7
M  V30 43 1 40 30
M  V30 44 1 17 12
M  V30 45 1 23 21
M  V30 46 1 21 15
M  V30 47 1 1 41
M  V30 48 1 1 42
M  V30 49 1 2 43
M  V30 50 1 3 44
M  V30 51 1 3 45
M  V30 52 1 8 46
M  V30 53 1 11 47
M  V30 54 1 13 48
M  V30 55 1 14 49
M  V30 56 1 17 50
M  V30 57 1 18 51
M  V30 58 1 18 52
M  V30 59 1 19 53
M  V30 60 1 20 54
M  V30 61 1 20 55
M  V30 62 1 22 56
M  V30 63 1 22 57
M  V30 64 1 23 58
M  V30 65 1 23 59
M  V30 66 1 28 60
M  V30 67 1 29 61
M  V30 68 1 34 62
M  V30 69 1 39 63
M  V30 70 1 39 64
M  V30 71 1 40 65
M  V30 72 1 40 66
M  V30 END BOND
M  V30 END CTAB
M  END
>  <Dataset>  (113) 
ChEMBL_Kinases

>  <Ligand_Instance>  (113) 
nan

>  <PDB_ID>  (113) 
nan

>  <Standardized_SMILES>  (113) 
C=CCn1c(=O)c2cnc(Nc3ccc4c(c3)CNCC43CC3)nc2n1-c1ccc2c(n1)[C@@](O)(C(F)(F)F)CC2

>  <Name>  (113) 
nan

>  <Pocket>  (113) 
nan

>  <ATP_Site>  (113) 
nan

>  <Peripheral>  (113) 
nan

>  <Num_H_Atoms_ProtBoundConf>  (113) 
nan

>  <Num_Resolved_Atoms>  (113) 
nan

>  <Num_Not_Resolved_Atoms>  (113) 
nan

$$$$
CHEMBL3979291
     RDKit          3D

  0  0  0  0  0  0  0  0  0  0999 V3000
M  V30 BEGIN CTAB
M  V30 COUNTS 61 66 0 0 0
M  V30 BEGIN ATOM
M  V30 1 C 1.922759 -2.489270 6.237317 0
M  V30 2 O 1.919798 -2.013389 4.921194 0
M  V30 3 C 3.055611 -1.658013 4.234701 0
M  V30 4 C 2.886718 -1.202588 2.935046 0
M  V30 5 C 3.897340 -0.801490 2.090171 0
M  V30 6 N 3.774327 -0.327435 0.762746 0
M  V30 7 C 2.550725 -0.151358 0.067055 0
M  V30 8 N 1.278911 -0.364474 0.443509 0
M  V30 9 C 0.402495 -0.065958 -0.527516 0
M  V30 10 C -0.990319 -0.130345 -0.578464 0
M  V30 11 C -1.635832 0.243095 -1.714693 0
M  V30 12 C -3.090696 0.196793 -1.825736 0
M  V30 13 O -3.509421 0.485638 -3.143222 0
M  V30 14 C -3.847129 1.089635 -0.946789 0
M  V30 15 C -3.712182 2.471273 -0.896499 0
M  V30 16 C -4.469664 3.252397 -0.030684 0
M  V30 17 C -5.374943 2.639699 0.796624 0
M  V30 18 C -5.515077 1.261342 0.752022 0
M  V30 19 C -4.771491 0.468486 -0.101592 0
M  V30 20 C -4.628396 -0.948047 -0.436290 0
M  V30 21 O -5.316052 -1.844662 0.134562 0
M  V30 22 N -3.632004 -1.105302 -1.458645 0
M  V30 23 C -3.319895 -2.412731 -1.949231 0
M  V30 24 C -4.101464 -2.781887 -3.036777 0
M  V30 25 C -3.889530 -4.029567 -3.598023 0
M  V30 26 C -2.947632 -4.922427 -3.137287 0
M  V30 27 C -2.186502 -4.517967 -2.049560 0
M  V30 28 C -2.360213 -3.287707 -1.457620 0
M  V30 29 C -0.889217 0.685168 -2.812001 0
M  V30 30 C 0.485124 0.730687 -2.712755 0
M  V30 31 C 1.180508 0.361375 -1.579167 0
M  V30 32 N 2.454250 0.298862 -1.193634 0
M  V30 33 C 5.165624 -0.889990 2.661362 0
M  V30 34 C 5.405353 -1.327446 3.929568 0
M  V30 35 O 6.659189 -1.407286 4.471350 0
M  V30 36 C 7.801045 -1.043025 3.762174 0
M  V30 37 C 4.349304 -1.706617 4.703094 0
M  V30 38 H 1.571431 -1.709974 6.970489 0
M  V30 39 H 1.157556 -3.302404 6.273944 0
M  V30 40 H 2.889426 -2.903524 6.551042 0
M  V30 41 H 1.884512 -1.154894 2.542771 0
M  V30 42 H 4.659107 -0.089465 0.261009 0
M  V30 43 H -1.543103 -0.477931 0.289185 0
M  V30 44 H -3.436155 1.450250 -3.290975 0
M  V30 45 H -3.030059 3.056401 -1.504115 0
M  V30 46 H -4.390939 4.318360 0.035070 0
M  V30 47 H -6.018028 3.148258 1.510346 0
M  V30 48 H -6.208595 0.690178 1.371265 0
M  V30 49 H -4.872379 -2.179703 -3.495036 0
M  V30 50 H -4.484745 -4.347524 -4.448520 0
M  V30 51 H -2.776068 -5.898412 -3.568751 0
M  V30 52 H -1.427521 -5.180981 -1.640279 0
M  V30 53 H -1.804282 -2.914059 -0.613386 0
M  V30 54 H -1.435095 0.979207 -3.709237 0
M  V30 55 H 1.037406 1.075360 -3.572613 0
M  V30 56 H 3.216248 0.578535 -1.840328 0
M  V30 57 H 6.039199 -0.599217 2.083338 0
M  V30 58 H 8.605965 -0.870265 4.520072 0
M  V30 59 H 8.122198 -1.897624 3.130795 0
M  V30 60 H 7.704469 -0.133837 3.161630 0
M  V30 61 H 4.510213 -2.052819 5.701405 0
M  V30 END ATOM
M  V30 BEGIN BOND
M  V30 1 1 1 2
M  V30 2 1 2 3
M  V30 3 2 3 4
M  V30 4 1 4 5
M  V30 5 1 5 6
M  V30 6 1 6 7
M  V30 7 2 7 8
M  V30 8 1 8 9
M  V30 9 2 9 10
M  V30 10 1 10 11
M  V30 11 1 11 12
M  V30 12 1 12 13
M  V30 13 1 12 14
M  V30 14 2 14 15
M  V30 15 1 15 16
M  V30 16 2 16 17
M  V30 17 1 17 18
M  V30 18 2 18 19
M  V30 19 1 19 20
M  V30 20 2 20 21
M  V30 21 1 20 22
M  V30 22 1 22 23
M  V30 23 2 23 24
M  V30 24 1 24 25
M  V30 25 2 25 26
M  V30 26 1 26 27
M  V30 27 2 27 28
M  V30 28 2 11 29
M  V30 29 1 29 30
M  V30 30 2 30 31
M  V30 31 1 31 32
M  V30 32 2 5 33
M  V30 33 1 33 34
M  V30 34 1 34 35
M  V30 35 1 35 36
M  V30 36 2 34 37
M  V30 37 1 37 3
M  V30 38 1 32 7
M  V30 39 1 31 9
M  V30 40 1 22 12
M  V30 41 1 28 23
M  V30 42 1 19 14
M  V30 43 1 1 38
M  V30 44 1 1 39
M  V30 45 1 1 40
M  V30 46 1 4 41
M  V30 47 1 6 42
M  V30 48 1 10 43
M  V30 49 1 13 44
M  V30 50 1 15 45
M  V30 51 1 16 46
M  V30 52 1 17 47
M  V30 53 1 18 48
M  V30 54 1 24 49
M  V30 55 1 25 50
M  V30 56 1 26 51
M  V30 57 1 27 52
M  V30 58 1 28 53
M  V30 59 1 29 54
M  V30 60 1 30 55
M  V30 61 1 32 56
M  V30 62 1 33 57
M  V30 63 1 36 58
M  V30 64 1 36 59
M  V30 65 1 36 60
M  V30 66 1 37 61
M  V30 END BOND
M  V30 END CTAB
M  END
>  <Dataset>  (114) 
ChEMBL_Kinases

>  <Ligand_Instance>  (114) 
nan

>  <PDB_ID>  (114) 
nan

>  <Standardized_SMILES>  (114) 
COc1cc(Nc2nc3cc(C4(O)c5ccccc5C(=O)N4c4ccccc4)ccc3[nH]2)cc(OC)c1

>  <Name>  (114) 
nan

>  <Pocket>  (114) 
nan

>  <ATP_Site>  (114) 
nan

>  <Peripheral>  (114) 
nan

>  <Num_H_Atoms_ProtBoundConf>  (114) 
nan

>  <Num_Resolved_Atoms>  (114) 
nan

>  <Num_Not_Resolved_Atoms>  (114) 
nan

$$$$
CHEMBL397923
     RDKit          3D

  0  0  0  0  0  0  0  0  0  0999 V3000
M  V30 BEGIN CTAB
M  V30 COUNTS 59 63 0 0 0
M  V30 BEGIN ATOM
M  V30 1 C -1.176402 -0.768647 5.945606 0
M  V30 2 C 0.055280 -0.103231 5.306218 0
M  V30 3 O 0.934015 0.550554 4.808554 0
M  V30 4 N 1.074925 -1.166079 5.145183 0
M  V30 5 C 2.250751 -0.575042 4.570880 0
M  V30 6 C 3.053325 -0.198155 5.673831 0
M  V30 7 C 4.273119 0.443978 5.548943 0
M  V30 8 C 4.776685 0.758140 4.303390 0
M  V30 9 C 3.961526 0.372652 3.268004 0
M  V30 10 N 4.382384 0.633289 1.914028 0
M  V30 11 C 3.605833 0.582685 0.759056 0
M  V30 12 N 2.255962 0.581917 0.678408 0
M  V30 13 C 1.628222 0.458407 -0.486235 0
M  V30 14 N 0.242949 0.471155 -0.347943 0
M  V30 15 C -1.121631 0.120269 -0.174666 0
M  V30 16 C -1.574829 -0.022144 1.129714 0
M  V30 17 C -2.899928 -0.376284 1.439651 0
M  V30 18 C -3.601148 -0.538766 0.268696 0
M  V30 19 C -3.270975 -0.429999 -1.041919 0
M  V30 20 C -4.198410 -0.663994 -2.176938 0
M  V30 21 O -4.883590 0.358345 -1.977039 0
M  V30 22 N -3.852012 -1.854631 -2.856653 0
M  V30 23 C -2.759104 -2.787078 -2.641882 0
M  V30 24 C -3.369169 -4.115109 -2.978475 0
M  V30 25 C -4.766934 -3.825396 -3.517989 0
M  V30 26 C -4.678173 -2.353710 -3.964862 0
M  V30 27 C -1.948436 -0.078393 -1.249146 0
M  V30 28 N 2.195383 0.320283 -1.704666 0
M  V30 29 N 1.794905 0.163375 -2.947086 0
M  V30 30 C 2.899399 0.051193 -3.743599 0
M  V30 31 C 3.984189 0.148061 -2.918939 0
M  V30 32 C 5.358563 0.050588 -3.395611 0
M  V30 33 N 6.428075 -0.043376 -3.766988 0
M  V30 34 C 3.581704 0.326765 -1.585879 0
M  V30 35 N 4.192398 0.450687 -0.430709 0
M  V30 36 C 2.768865 -0.257934 3.332038 0
M  V30 37 H -2.018850 -0.469038 5.296854 0
M  V30 38 H -1.103822 -1.829140 6.035889 0
M  V30 39 H -1.390018 -0.293421 6.933886 0
M  V30 40 H 1.104140 -2.249389 5.341178 0
M  V30 41 H 2.874310 -0.322234 6.753486 0
M  V30 42 H 4.965475 0.769624 6.342164 0
M  V30 43 H 5.703395 1.250755 4.060411 0
M  V30 44 H 5.405258 0.892041 1.804798 0
M  V30 45 H -0.045637 1.535780 -0.395234 0
M  V30 46 H -0.888989 0.149679 1.967393 0
M  V30 47 H -3.308927 -0.494475 2.419929 0
M  V30 48 H -4.666960 -0.818369 0.401167 0
M  V30 49 H -1.879782 -2.585856 -3.293513 0
M  V30 50 H -2.421959 -2.729616 -1.561371 0
M  V30 51 H -3.375128 -4.783832 -2.101187 0
M  V30 52 H -2.806571 -4.608906 -3.802430 0
M  V30 53 H -5.540687 -3.851335 -2.723951 0
M  V30 54 H -5.024560 -4.472345 -4.361080 0
M  V30 55 H -5.691057 -1.891076 -3.970473 0
M  V30 56 H -4.131385 -2.215310 -4.888059 0
M  V30 57 H -1.540295 0.047581 -2.230252 0
M  V30 58 H 2.795938 -0.097675 -4.822177 0
M  V30 59 H 2.057264 -0.632758 2.617148 0
M  V30 END ATOM
M  V30 BEGIN BOND
M  V30 1 1 1 2
M  V30 2 2 2 3
M  V30 3 1 2 4
M  V30 4 1 4 5
M  V30 5 2 5 6
M  V30 6 1 6 7
M  V30 7 2 7 8
M  V30 8 1 8 9
M  V30 9 1 9 10
M  V30 10 1 10 11
M  V30 11 1 11 12
M  V30 12 2 12 13
M  V30 13 1 13 14
M  V30 14 1 14 15
M  V30 15 2 15 16
M  V30 16 1 16 17
M  V30 17 2 17 18
M  V30 18 1 18 19
M  V30 19 1 19 20
M  V30 20 2 20 21
M  V30 21 1 20 22
M  V30 22 1 22 23
M  V30 23 1 23 24
M  V30 24 1 24 25
M  V30 25 1 25 26
M  V30 26 2 19 27
M  V30 27 1 13 28
M  V30 28 1 28 29
M  V30 29 2 29 30
M  V30 30 1 30 31
M  V30 31 1 31 32
M  V30 32 3 32 33
M  V30 33 2 31 34
M  V30 34 1 34 35
M  V30 35 2 9 36
M  V30 36 1 36 5
M  V30 37 2 35 11
M  V30 38 1 27 15
M  V30 39 1 34 28
M  V30 40 1 26 22
M  V30 41 1 1 37
M  V30 42 1 1 38
M  V30 43 1 1 39
M  V30 44 1 4 40
M  V30 45 1 6 41
M  V30 46 1 7 42
M  V30 47 1 8 43
M  V30 48 1 10 44
M  V30 49 1 14 45
M  V30 50 1 16 46
M  V30 51 1 17 47
M  V30 52 1 18 48
M  V30 53 1 23 49
M  V30 54 1 23 50
M  V30 55 1 24 51
M  V30 56 1 24 52
M  V30 57 1 25 53
M  V30 58 1 25 54
M  V30 59 1 26 55
M  V30 60 1 26 56
M  V30 61 1 27 57
M  V30 62 1 30 58
M  V30 63 1 36 59
M  V30 END BOND
M  V30 END CTAB
M  END
>  <Dataset>  (115) 
ChEMBL_Kinases

>  <Ligand_Instance>  (115) 
nan

>  <PDB_ID>  (115) 
nan

>  <Standardized_SMILES>  (115) 
CC(=O)Nc1cccc(Nc2nc(Nc3cccc(C(=O)N4CCCC4)c3)n3ncc(C#N)c3n2)c1

>  <Name>  (115) 
nan

>  <Pocket>  (115) 
nan

>  <ATP_Site>  (115) 
nan

>  <Peripheral>  (115) 
nan

>  <Num_H_Atoms_ProtBoundConf>  (115) 
nan

>  <Num_Resolved_Atoms>  (115) 
nan

>  <Num_Not_Resolved_Atoms>  (115) 
nan

$$$$
CHEMBL3979227
     RDKit          3D

  0  0  0  0  0  0  0  0  0  0999 V3000
M  V30 BEGIN CTAB
M  V30 COUNTS 44 48 0 0 0
M  V30 BEGIN ATOM
M  V30 1 O 1.875555 -2.925459 5.798715 0
M  V30 2 C 1.897023 -2.930445 4.527859 0
M  V30 3 C 2.584878 -4.008039 3.760869 0
M  V30 4 O 3.158256 -3.522945 2.562549 0
M  V30 5 C 2.563878 -2.539196 1.784961 0
M  V30 6 C 2.923733 -2.394316 0.465409 0
M  V30 7 C 2.288243 -1.391760 -0.246762 0
M  V30 8 C 1.340579 -0.565277 0.307632 0
M  V30 9 C 0.661263 0.513560 -0.457340 0
M  V30 10 O 1.010622 0.466785 -1.806008 0
M  V30 11 C 0.959609 1.824291 0.141198 0
M  V30 12 C 2.168015 2.490664 0.229187 0
M  V30 13 C 2.235453 3.739417 0.848017 0
M  V30 14 C 1.109902 4.337396 1.383553 0
M  V30 15 C -0.088945 3.639633 1.277570 0
M  V30 16 C -0.196102 2.403407 0.673238 0
M  V30 17 C -1.274515 1.457499 0.413655 0
M  V30 18 O -2.440424 1.732488 0.793534 0
M  V30 19 N -0.763585 0.322834 -0.268985 0
M  V30 20 C -1.657969 -0.720044 -0.626466 0
M  V30 21 C -2.041399 -1.846096 0.069540 0
M  V30 22 C -2.933361 -2.752904 -0.455329 0
M  V30 23 C -3.466037 -2.537148 -1.716425 0
M  V30 24 C -3.105053 -1.422384 -2.439806 0
M  V30 25 C -2.196558 -0.502887 -1.900261 0
M  V30 26 F -1.944098 0.541824 -2.738142 0
M  V30 27 C 0.988454 -0.720782 1.631937 0
M  V30 28 C 1.604959 -1.720547 2.388615 0
M  V30 29 N 1.267227 -1.910028 3.756840 0
M  V30 30 H 3.354541 -4.421752 4.428662 0
M  V30 31 H 1.805435 -4.764662 3.523338 0
M  V30 32 H 3.659272 -3.009963 -0.027256 0
M  V30 33 H 2.512164 -1.214582 -1.278341 0
M  V30 34 H 0.793471 1.333902 -2.234313 0
M  V30 35 H 3.103502 2.119306 -0.152093 0
M  V30 36 H 3.167491 4.283460 0.931185 0
M  V30 37 H 1.148458 5.317605 1.872412 0
M  V30 38 H -0.977808 4.107147 1.698060 0
M  V30 39 H -1.574184 -1.917663 1.029566 0
M  V30 40 H -3.185075 -3.613516 0.153081 0
M  V30 41 H -4.169727 -3.250035 -2.133401 0
M  V30 42 H -3.559082 -1.313341 -3.421249 0
M  V30 43 H 0.235840 -0.077669 2.104618 0
M  V30 44 H 0.553983 -1.308598 4.223967 0
M  V30 END ATOM
M  V30 BEGIN BOND
M  V30 1 2 1 2
M  V30 2 1 2 3
M  V30 3 1 3 4
M  V30 4 1 4 5
M  V30 5 2 5 6
M  V30 6 1 6 7
M  V30 7 2 7 8
M  V30 8 1 8 9
M  V30 9 1 9 10
M  V30 10 1 9 11
M  V30 11 2 11 12
M  V30 12 1 12 13
M  V30 13 2 13 14
M  V30 14 1 14 15
M  V30 15 2 15 16
M  V30 16 1 16 17
M  V30 17 2 17 18
M  V30 18 1 17 19
M  V30 19 1 19 20
M  V30 20 2 20 21
M  V30 21 1 21 22
M  V30 22 2 22 23
M  V30 23 1 23 24
M  V30 24 2 24 25
M  V30 25 1 25 26
M  V30 26 1 8 27
M  V30 27 2 27 28
M  V30 28 1 28 29
M  V30 29 1 29 2
M  V30 30 1 28 5
M  V30 31 1 19 9
M  V30 32 1 25 20
M  V30 33 1 16 11
M  V30 34 1 3 30
M  V30 35 1 3 31
M  V30 36 1 6 32
M  V30 37 1 7 33
M  V30 38 1 10 34
M  V30 39 1 12 35
M  V30 40 1 13 36
M  V30 41 1 14 37
M  V30 42 1 15 38
M  V30 43 1 21 39
M  V30 44 1 22 40
M  V30 45 1 23 41
M  V30 46 1 24 42
M  V30 47 1 27 43
M  V30 48 1 29 44
M  V30 END BOND
M  V30 END CTAB
M  END
>  <Dataset>  (116) 
ChEMBL_Kinases

>  <Ligand_Instance>  (116) 
nan

>  <PDB_ID>  (116) 
nan

>  <Standardized_SMILES>  (116) 
O=C1COc2ccc(C3(O)c4ccccc4C(=O)N3c3ccccc3F)cc2N1

>  <Name>  (116) 
nan

>  <Pocket>  (116) 
nan

>  <ATP_Site>  (116) 
nan

>  <Peripheral>  (116) 
nan

>  <Num_H_Atoms_ProtBoundConf>  (116) 
nan

>  <Num_Resolved_Atoms>  (116) 
nan

>  <Num_Not_Resolved_Atoms>  (116) 
nan

$$$$
CHEMBL4867239
     RDKit          3D

  0  0  0  0  0  0  0  0  0  0999 V3000
M  V30 BEGIN CTAB
M  V30 COUNTS 46 48 0 0 0
M  V30 BEGIN ATOM
M  V30 1 C -0.898341 -2.956540 2.120517 0
M  V30 2 N -1.709435 -3.645651 1.163636 0
M  V30 3 C -2.044871 -3.386117 -0.175947 0
M  V30 4 N -1.558112 -2.298564 -0.769974 0
M  V30 5 C -1.773614 -1.902541 -2.028030 0
M  V30 6 N -1.231136 -0.729323 -2.622757 0
M  V30 7 C -0.377387 0.271716 -2.093430 0
M  V30 8 C 0.008187 1.338330 -2.919515 0
M  V30 9 N 0.815005 2.302563 -2.450871 0
M  V30 10 C 1.282601 2.292364 -1.192991 0
M  V30 11 C 2.136092 3.338580 -0.742650 0
M  V30 12 N 2.826251 4.194725 -0.396117 0
M  V30 13 C 0.993064 1.319293 -0.274332 0
M  V30 14 O 1.287913 1.040355 0.991181 0
M  V30 15 C 2.036734 1.631968 1.951904 0
M  V30 16 C 1.142994 1.998589 3.164805 0
M  V30 17 C 1.888394 1.907053 4.455637 0
M  V30 18 N 3.264420 2.335620 4.385842 0
M  V30 19 C 4.008015 1.601319 3.380007 0
M  V30 20 C 3.091621 0.706392 2.566508 0
M  V30 21 C 0.151091 0.332466 -0.797044 0
M  V30 22 N -2.564980 -2.704574 -2.736858 0
M  V30 23 C -3.095993 -3.805104 -2.237712 0
M  V30 24 C -2.856098 -4.179761 -0.951987 0
M  V30 25 C -3.430125 -5.407956 -0.345623 0
M  V30 26 F -4.215221 -6.084253 -1.255908 0
M  V30 27 F -2.387554 -6.269020 0.019873 0
M  V30 28 F -4.166379 -5.122847 0.773226 0
M  V30 29 H -0.055674 -3.650127 2.403766 0
M  V30 30 H -0.486184 -1.999381 1.722547 0
M  V30 31 H -1.400998 -2.721236 3.076187 0
M  V30 32 H -2.101036 -4.507533 1.618905 0
M  V30 33 H -1.511904 -0.572323 -3.639591 0
M  V30 34 H -0.317733 1.437165 -3.955267 0
M  V30 35 H 2.524091 2.557383 1.640723 0
M  V30 36 H 0.353895 1.219075 3.177042 0
M  V30 37 H 0.660898 2.978110 2.999193 0
M  V30 38 H 1.827453 0.888838 4.926456 0
M  V30 39 H 1.381954 2.630222 5.159846 0
M  V30 40 H 3.692645 2.067565 5.315400 0
M  V30 41 H 4.543143 2.292228 2.679089 0
M  V30 42 H 4.795928 0.946019 3.817716 0
M  V30 43 H 3.717722 0.210823 1.813867 0
M  V30 44 H 2.578170 0.015916 3.242227 0
M  V30 45 H -0.198098 -0.526926 -0.233610 0
M  V30 46 H -3.739111 -4.431372 -2.857986 0
M  V30 END ATOM
M  V30 BEGIN BOND
M  V30 1 1 1 2
M  V30 2 1 2 3
M  V30 3 2 3 4
M  V30 4 1 4 5
M  V30 5 1 5 6
M  V30 6 1 6 7
M  V30 7 2 7 8
M  V30 8 1 8 9
M  V30 9 2 9 10
M  V30 10 1 10 11
M  V30 11 3 11 12
M  V30 12 1 10 13
M  V30 13 1 13 14
M  V30 14 1 14 15
M  V30 15 1 15 16
M  V30 16 1 16 17
M  V30 17 1 17 18
M  V30 18 1 18 19
M  V30 19 1 19 20
M  V30 20 2 13 21
M  V30 21 2 5 22
M  V30 22 1 22 23
M  V30 23 2 23 24
M  V30 24 1 24 25
M  V30 25 1 25 26
M  V30 26 1 25 27
M  V30 27 1 25 28
M  V30 28 1 24 3
M  V30 29 1 21 7
M  V30 30 1 20 15
M  V30 31 1 1 29
M  V30 32 1 1 30
M  V30 33 1 1 31
M  V30 34 1 2 32
M  V30 35 1 6 33
M  V30 36 1 8 34
M  V30 37 1 15 35
M  V30 38 1 16 36
M  V30 39 1 16 37
M  V30 40 1 17 38
M  V30 41 1 17 39
M  V30 42 1 18 40
M  V30 43 1 19 41
M  V30 44 1 19 42
M  V30 45 1 20 43
M  V30 46 1 20 44
M  V30 47 1 21 45
M  V30 48 1 23 46
M  V30 END BOND
M  V30 END CTAB
M  END
>  <Dataset>  (117) 
ChEMBL_Kinases

>  <Ligand_Instance>  (117) 
nan

>  <PDB_ID>  (117) 
nan

>  <Standardized_SMILES>  (117) 
CNc1nc(Nc2cnc(C#N)c(OC3CCNCC3)c2)ncc1C(F)(F)F

>  <Name>  (117) 
nan

>  <Pocket>  (117) 
nan

>  <ATP_Site>  (117) 
nan

>  <Peripheral>  (117) 
nan

>  <Num_H_Atoms_ProtBoundConf>  (117) 
nan

>  <Num_Resolved_Atoms>  (117) 
nan

>  <Num_Not_Resolved_Atoms>  (117) 
nan

$$$$
CHEMBL4867249
     RDKit          3D

  0  0  0  0  0  0  0  0  0  0999 V3000
M  V30 BEGIN CTAB
M  V30 COUNTS 67 71 0 0 0
M  V30 BEGIN ATOM
M  V30 1 O 1.451232 -3.610922 4.248750 0
M  V30 2 C 0.889463 -2.492187 4.231737 0
M  V30 3 N 1.545310 -1.338614 3.724017 0
M  V30 4 C 2.856312 -1.226251 3.179378 0
M  V30 5 C 4.054153 -0.951606 3.802519 0
M  V30 6 N 5.175664 -0.899306 3.062658 0
M  V30 7 C 5.211565 -1.099691 1.732946 0
M  V30 8 C 4.016414 -1.380622 1.065881 0
M  V30 9 O 4.072453 -1.585025 -0.309440 0
M  V30 10 C 2.854195 -1.870118 -0.973601 0
M  V30 11 C 3.181635 -2.046151 -2.442408 0
M  V30 12 C 3.792940 -0.787833 -2.982890 0
M  V30 13 C 2.794729 0.245782 -3.405535 0
M  V30 14 N 1.429348 -0.230806 -3.334829 0
M  V30 15 C 0.523751 0.752518 -3.840965 0
M  V30 16 C -0.902700 0.329736 -3.797460 0
M  V30 17 C -1.697039 -0.094060 -4.867300 0
M  V30 18 C -3.008837 -0.447178 -4.626247 0
M  V30 19 C -3.563218 -0.398233 -3.375721 0
M  V30 20 C -2.778845 0.018908 -2.326668 0
M  V30 21 C -1.444720 0.389149 -2.508570 0
M  V30 22 Cl -0.579579 0.894423 -1.090343 0
M  V30 23 C 1.401037 -1.446407 -4.126682 0
M  V30 24 C 1.995773 -2.524161 -3.234925 0
M  V30 25 C 2.871568 -1.438078 1.795150 0
M  V30 26 C -0.470233 -2.390216 4.749522 0
M  V30 27 C -1.050131 -3.565230 5.236091 0
M  V30 28 C -2.338658 -3.533680 5.740792 0
M  V30 29 N -3.045226 -2.382117 5.770084 0
M  V30 30 C -2.505293 -1.218932 5.302033 0
M  V30 31 N -3.188741 0.030182 5.301235 0
M  V30 32 C -4.017650 0.588241 4.286494 0
M  V30 33 O -4.122446 -0.175852 3.274670 0
M  V30 34 C -4.657344 1.903100 4.439126 0
M  V30 35 C -5.988891 2.139019 3.864380 0
M  V30 36 C -4.792330 2.824808 3.276871 0
M  V30 37 C -1.210467 -1.244875 4.793584 0
M  V30 38 H 1.113107 -0.389624 3.691891 0
M  V30 39 H 3.951394 -0.804157 4.854219 0
M  V30 40 H 6.173577 -1.036963 1.212929 0
M  V30 41 H 2.082595 -1.098816 -0.806435 0
M  V30 42 H 2.508863 -2.862969 -0.568040 0
M  V30 43 H 3.945727 -2.848020 -2.492754 0
M  V30 44 H 4.418878 -0.348111 -2.178778 0
M  V30 45 H 4.482551 -1.006231 -3.828368 0
M  V30 46 H 2.836989 1.165834 -2.783364 0
M  V30 47 H 2.974384 0.567566 -4.453126 0
M  V30 48 H 0.630982 1.742834 -3.399990 0
M  V30 49 H 0.785879 0.875813 -4.932781 0
M  V30 50 H -1.158273 -0.091015 -5.790045 0
M  V30 51 H -3.570600 -0.767942 -5.503424 0
M  V30 52 H -4.599243 -0.697238 -3.299848 0
M  V30 53 H -3.249456 0.047901 -1.337801 0
M  V30 54 H 0.392840 -1.747115 -4.421851 0
M  V30 55 H 2.059529 -1.284372 -5.010286 0
M  V30 56 H 1.196178 -2.798676 -2.508921 0
M  V30 57 H 2.194462 -3.406314 -3.855996 0
M  V30 58 H 1.994913 -1.660985 1.196850 0
M  V30 59 H -0.547817 -4.522726 5.245817 0
M  V30 60 H -2.786580 -4.448343 6.117984 0
M  V30 61 H -3.002440 0.524874 6.186716 0
M  V30 62 H -4.434785 2.412674 5.410417 0
M  V30 63 H -6.740312 2.727197 4.411388 0
M  V30 64 H -6.450387 1.401840 3.153205 0
M  V30 65 H -4.409952 2.545229 2.279996 0
M  V30 66 H -4.752763 3.916210 3.452098 0
M  V30 67 H -0.784672 -0.346287 4.428740 0
M  V30 END ATOM
M  V30 BEGIN BOND
M  V30 1 2 1 2
M  V30 2 1 2 3
M  V30 3 1 3 4
M  V30 4 2 4 5
M  V30 5 1 5 6
M  V30 6 2 6 7
M  V30 7 1 7 8
M  V30 8 1 8 9
M  V30 9 1 9 10
M  V30 10 1 10 11
M  V30 11 1 11 12
M  V30 12 1 12 13
M  V30 13 1 13 14
M  V30 14 1 14 15
M  V30 15 1 15 16
M  V30 16 2 16 17
M  V30 17 1 17 18
M  V30 18 2 18 19
M  V30 19 1 19 20
M  V30 20 2 20 21
M  V30 21 1 21 22
M  V30 22 1 14 23
M  V30 23 1 23 24
M  V30 24 2 8 25
M  V30 25 1 2 26
M  V30 26 2 26 27
M  V30 27 1 27 28
M  V30 28 2 28 29
M  V30 29 1 29 30
M  V30 30 1 30 31
M  V30 31 1 31 32
M  V30 32 2 32 33
M  V30 33 1 32 34
M  V30 34 1 34 35
M  V30 35 1 35 36
M  V30 36 2 30 37
M  V30 37 1 25 4
M  V30 38 1 37 26
M  V30 39 1 24 11
M  V30 40 1 36 34
M  V30 41 1 21 16
M  V30 42 1 3 38
M  V30 43 1 5 39
M  V30 44 1 7 40
M  V30 45 1 10 41
M  V30 46 1 10 42
M  V30 47 1 11 43
M  V30 48 1 12 44
M  V30 49 1 12 45
M  V30 50 1 13 46
M  V30 51 1 13 47
M  V30 52 1 15 48
M  V30 53 1 15 49
M  V30 54 1 17 50
M  V30 55 1 18 51
M  V30 56 1 19 52
M  V30 57 1 20 53
M  V30 58 1 23 54
M  V30 59 1 23 55
M  V30 60 1 24 56
M  V30 61 1 24 57
M  V30 62 1 25 58
M  V30 63 1 27 59
M  V30 64 1 28 60
M  V30 65 1 31 61
M  V30 66 1 34 62
M  V30 67 1 35 63
M  V30 68 1 35 64
M  V30 69 1 36 65
M  V30 70 1 36 66
M  V30 71 1 37 67
M  V30 END BOND
M  V30 END CTAB
M  END
>  <Dataset>  (118) 
ChEMBL_Kinases

>  <Ligand_Instance>  (118) 
nan

>  <PDB_ID>  (118) 
nan

>  <Standardized_SMILES>  (118) 
O=C(Nc1cncc(OCC2CCN(Cc3ccccc3Cl)CC2)c1)c1ccnc(NC(=O)C2CC2)c1

>  <Name>  (118) 
nan

>  <Pocket>  (118) 
nan

>  <ATP_Site>  (118) 
nan

>  <Peripheral>  (118) 
nan

>  <Num_H_Atoms_ProtBoundConf>  (118) 
nan

>  <Num_Resolved_Atoms>  (118) 
nan

>  <Num_Not_Resolved_Atoms>  (118) 
nan

$$$$
CHEMBL3978861
     RDKit          3D

  0  0  0  0  0  0  0  0  0  0999 V3000
M  V30 BEGIN CTAB
M  V30 COUNTS 46 49 0 0 0
M  V30 BEGIN ATOM
M  V30 1 N 5.049606 -4.822408 5.397953 0
M  V30 2 C 5.046284 -4.031662 4.551141 0
M  V30 3 C 5.034016 -3.064744 3.490986 0
M  V30 4 C 3.852890 -2.479656 3.099126 0
M  V30 5 C 3.891587 -1.560658 2.080793 0
M  V30 6 C 5.013652 -1.164277 1.406454 0
M  V30 7 N 5.061904 -0.215245 0.353024 0
M  V30 8 C 3.996489 0.517759 -0.225836 0
M  V30 9 N 4.258329 1.376361 -1.225595 0
M  V30 10 C 3.336327 2.107340 -1.832807 0
M  V30 11 C 2.021902 2.002655 -1.437661 0
M  V30 12 C 1.704449 1.137008 -0.418310 0
M  V30 13 C 0.328249 0.998422 0.027274 0
M  V30 14 C -0.044214 0.146856 1.042880 0
M  V30 15 C -1.330336 -0.029571 1.510832 0
M  V30 16 C -2.351661 0.693572 0.933167 0
M  V30 17 O -3.692581 0.639656 1.277355 0
M  V30 18 C -4.627622 -0.179348 0.716317 0
M  V30 19 C -5.648175 0.582263 0.135445 0
M  V30 20 C -6.731385 -0.026884 -0.508016 0
M  V30 21 C -6.827228 -1.400270 -0.590010 0
M  V30 22 C -5.816775 -2.131812 -0.014463 0
M  V30 23 C -4.744523 -1.545442 0.622179 0
M  V30 24 N -3.659976 -2.226329 1.242244 0
M  V30 25 C -2.031752 1.576044 -0.105150 0
M  V30 26 C -0.705386 1.708581 -0.533340 0
M  V30 27 N 2.717572 0.451633 0.119356 0
M  V30 28 C 6.164140 -1.782069 1.840778 0
M  V30 29 C 6.188027 -2.710145 2.855775 0
M  V30 30 H 2.934467 -2.756956 3.599250 0
M  V30 31 H 2.944549 -1.139346 1.819159 0
M  V30 32 H 6.030979 -0.040075 -0.045853 0
M  V30 33 H 3.662335 2.765504 -2.625870 0
M  V30 34 H 1.323348 2.620501 -1.968103 0
M  V30 35 H 0.679831 -0.458780 1.554518 0
M  V30 36 H -1.587711 -0.697401 2.303151 0
M  V30 37 H -5.726378 1.680833 0.110677 0
M  V30 38 H -7.535507 0.531614 -0.966495 0
M  V30 39 H -7.641346 -1.911280 -1.074627 0
M  V30 40 H -5.830762 -3.201738 -0.042940 0
M  V30 41 H -3.596762 -2.174199 2.298670 0
M  V30 42 H -3.082281 -2.686611 0.487982 0
M  V30 43 H -2.824282 2.168359 -0.587581 0
M  V30 44 H -0.559921 2.405567 -1.330567 0
M  V30 45 H 7.130006 -1.552270 1.382753 0
M  V30 46 H 7.113926 -3.167816 3.161889 0
M  V30 END ATOM
M  V30 BEGIN BOND
M  V30 1 3 1 2
M  V30 2 1 2 3
M  V30 3 2 3 4
M  V30 4 1 4 5
M  V30 5 2 5 6
M  V30 6 1 6 7
M  V30 7 1 7 8
M  V30 8 2 8 9
M  V30 9 1 9 10
M  V30 10 2 10 11
M  V30 11 1 11 12
M  V30 12 1 12 13
M  V30 13 2 13 14
M  V30 14 1 14 15
M  V30 15 2 15 16
M  V30 16 1 16 17
M  V30 17 1 17 18
M  V30 18 2 18 19
M  V30 19 1 19 20
M  V30 20 2 20 21
M  V30 21 1 21 22
M  V30 22 2 22 23
M  V30 23 1 23 24
M  V30 24 1 16 25
M  V30 25 2 25 26
M  V30 26 2 12 27
M  V30 27 1 6 28
M  V30 28 2 28 29
M  V30 29 1 29 3
M  V30 30 1 27 8
M  V30 31 1 26 13
M  V30 32 1 23 18
M  V30 33 1 4 30
M  V30 34 1 5 31
M  V30 35 1 7 32
M  V30 36 1 10 33
M  V30 37 1 11 34
M  V30 38 1 14 35
M  V30 39 1 15 36
M  V30 40 1 19 37
M  V30 41 1 20 38
M  V30 42 1 21 39
M  V30 43 1 22 40
M  V30 44 1 24 41
M  V30 45 1 24 42
M  V30 46 1 25 43
M  V30 47 1 26 44
M  V30 48 1 28 45
M  V30 49 1 29 46
M  V30 END BOND
M  V30 END CTAB
M  END
>  <Dataset>  (119) 
ChEMBL_Kinases

>  <Ligand_Instance>  (119) 
nan

>  <PDB_ID>  (119) 
nan

>  <Standardized_SMILES>  (119) 
N#Cc1ccc(Nc2nccc(-c3ccc(Oc4ccccc4N)cc3)n2)cc1

>  <Name>  (119) 
nan

>  <Pocket>  (119) 
nan

>  <ATP_Site>  (119) 
nan

>  <Peripheral>  (119) 
nan

>  <Num_H_Atoms_ProtBoundConf>  (119) 
nan

>  <Num_Resolved_Atoms>  (119) 
nan

>  <Num_Not_Resolved_Atoms>  (119) 
nan

$$$$
CHEMBL4867264
     RDKit          3D

  0  0  0  0  0  0  0  0  0  0999 V3000
M  V30 BEGIN CTAB
M  V30 COUNTS 40 43 0 0 0
M  V30 BEGIN ATOM
M  V30 1 C 0.261403 -4.393387 1.172891 0
M  V30 2 C 0.827274 -3.452886 0.132704 0
M  V30 3 C 2.303602 -3.678964 -0.083960 0
M  V30 4 C 0.024746 -3.670302 -1.126457 0
M  V30 5 C -1.213523 -2.785358 -0.925871 0
M  V30 6 C -0.960747 -2.155160 0.448924 0
M  V30 7 N 0.506832 -2.068943 0.423570 0
M  V30 8 C 1.373650 -0.957465 0.624225 0
M  V30 9 N 2.716865 -0.998505 0.573243 0
M  V30 10 C 3.449271 0.111794 0.777955 0
M  V30 11 C 2.828699 1.314889 1.044584 0
M  V30 12 C 1.449473 1.361571 1.097866 0
M  V30 13 C 0.822315 2.652384 1.382777 0
M  V30 14 C 1.438541 3.861940 1.611264 0
M  V30 15 N 0.502068 4.794323 1.832548 0
M  V30 16 N -0.711087 4.259380 1.761590 0
M  V30 17 N -1.905286 4.810050 1.912799 0
M  V30 18 C -3.042515 4.067550 1.796831 0
M  V30 19 C -2.919588 2.721945 1.516784 0
M  V30 20 C -1.657917 2.181536 1.365522 0
M  V30 21 C -0.521745 2.955225 1.487922 0
M  V30 22 N 0.788732 0.206400 0.881670 0
M  V30 23 H 0.947871 -5.285229 1.166505 0
M  V30 24 H 0.279837 -3.888540 2.160079 0
M  V30 25 H -0.728462 -4.811620 0.901408 0
M  V30 26 H 2.436678 -4.785445 -0.142025 0
M  V30 27 H 2.672837 -3.276934 -1.024396 0
M  V30 28 H 2.861206 -3.359135 0.819095 0
M  V30 29 H 0.560550 -3.392468 -2.050165 0
M  V30 30 H -0.358613 -4.728826 -1.147173 0
M  V30 31 H -1.234458 -1.953020 -1.649798 0
M  V30 32 H -2.140533 -3.362837 -0.852888 0
M  V30 33 H -1.241508 -2.870193 1.260225 0
M  V30 34 H -1.451912 -1.189712 0.548761 0
M  V30 35 H 4.530964 -0.007739 0.719149 0
M  V30 36 H 3.490009 2.172122 1.199596 0
M  V30 37 H 2.533503 3.972323 1.598890 0
M  V30 38 H -4.003617 4.553793 1.927356 0
M  V30 39 H -3.795545 2.094960 1.416161 0
M  V30 40 H -1.516389 1.132037 1.145664 0
M  V30 END ATOM
M  V30 BEGIN BOND
M  V30 1 1 1 2
M  V30 2 1 2 3
M  V30 3 1 2 4
M  V30 4 1 4 5
M  V30 5 1 5 6
M  V30 6 1 6 7
M  V30 7 1 7 8
M  V30 8 2 8 9
M  V30 9 1 9 10
M  V30 10 2 10 11
M  V30 11 1 11 12
M  V30 12 1 12 13
M  V30 13 1 13 14
M  V30 14 2 14 15
M  V30 15 1 15 16
M  V30 16 1 16 17
M  V30 17 2 17 18
M  V30 18 1 18 19
M  V30 19 2 19 20
M  V30 20 1 20 21
M  V30 21 2 12 22
M  V30 22 1 7 2
M  V30 23 1 22 8
M  V30 24 2 21 13
M  V30 25 1 21 16
M  V30 26 1 1 23
M  V30 27 1 1 24
M  V30 28 1 1 25
M  V30 29 1 3 26
M  V30 30 1 3 27
M  V30 31 1 3 28
M  V30 32 1 4 29
M  V30 33 1 4 30
M  V30 34 1 5 31
M  V30 35 1 5 32
M  V30 36 1 6 33
M  V30 37 1 6 34
M  V30 38 1 10 35
M  V30 39 1 11 36
M  V30 40 1 14 37
M  V30 41 1 18 38
M  V30 42 1 19 39
M  V30 43 1 20 40
M  V30 END BOND
M  V30 END CTAB
M  END
>  <Dataset>  (120) 
ChEMBL_Kinases

>  <Ligand_Instance>  (120) 
nan

>  <PDB_ID>  (120) 
nan

>  <Standardized_SMILES>  (120) 
CC1(C)CCCN1c1nccc(-c2cnn3ncccc23)n1

>  <Name>  (120) 
nan

>  <Pocket>  (120) 
nan

>  <ATP_Site>  (120) 
nan

>  <Peripheral>  (120) 
nan

>  <Num_H_Atoms_ProtBoundConf>  (120) 
nan

>  <Num_Resolved_Atoms>  (120) 
nan

>  <Num_Not_Resolved_Atoms>  (120) 
nan

$$$$
CHEMBL3978761
     RDKit          3D

  0  0  0  0  0  0  0  0  0  0999 V3000
M  V30 BEGIN CTAB
M  V30 COUNTS 31 31 0 0 0
M  V30 BEGIN ATOM
M  V30 1 C -0.194338 -1.994705 4.245339 0
M  V30 2 C 0.179567 -3.231424 3.479174 0
M  V30 3 C 0.377397 -2.953248 2.036453 0
M  V30 4 O 0.200428 -1.752987 1.715116 0
M  V30 5 N 0.731556 -3.903707 1.064837 0
M  V30 6 C 0.932674 -3.694294 -0.320670 0
M  V30 7 S 1.341470 -5.006412 -1.202166 0
M  V30 8 N 0.821475 -2.478980 -1.038507 0
M  V30 9 C 0.539731 -1.087150 -0.977082 0
M  V30 10 C 1.559989 -0.155497 -0.739508 0
M  V30 11 C 1.315962 1.205844 -0.668597 0
M  V30 12 C -0.006210 1.549721 -0.851534 0
M  V30 13 S -0.396319 3.262123 -0.774184 0
M  V30 14 N -0.770133 3.709418 0.839646 0
M  V30 15 O -1.512860 3.593027 -1.722370 0
M  V30 16 O 0.800080 4.043935 -1.209477 0
M  V30 17 C -1.090320 0.731255 -1.090428 0
M  V30 18 C -0.775546 -0.632746 -1.150275 0
M  V30 19 H 0.484407 -1.183158 3.913699 0
M  V30 20 H -0.054640 -2.171854 5.311620 0
M  V30 21 H -1.231763 -1.726223 3.988059 0
M  V30 22 H 1.069819 -3.709804 3.949089 0
M  V30 23 H -0.663371 -3.968076 3.603678 0
M  V30 24 H 0.838980 -4.845876 1.497904 0
M  V30 25 H 0.993176 -2.438754 -2.065910 0
M  V30 26 H 2.581554 -0.510109 -0.605432 0
M  V30 27 H 2.061144 1.952314 -0.489658 0
M  V30 28 H 0.045153 4.066835 1.381886 0
M  V30 29 H -1.376945 3.052783 1.347489 0
M  V30 30 H -2.092826 1.099968 -1.220530 0
M  V30 31 H -1.554654 -1.346531 -1.332198 0
M  V30 END ATOM
M  V30 BEGIN BOND
M  V30 1 1 1 2
M  V30 2 1 2 3
M  V30 3 2 3 4
M  V30 4 1 3 5
M  V30 5 1 5 6
M  V30 6 2 6 7
M  V30 7 1 6 8
M  V30 8 1 8 9
M  V30 9 2 9 10
M  V30 10 1 10 11
M  V30 11 2 11 12
M  V30 12 1 12 13
M  V30 13 1 13 14
M  V30 14 2 13 15
M  V30 15 2 13 16
M  V30 16 1 12 17
M  V30 17 2 17 18
M  V30 18 1 18 9
M  V30 19 1 1 19
M  V30 20 1 1 20
M  V30 21 1 1 21
M  V30 22 1 2 22
M  V30 23 1 2 23
M  V30 24 1 5 24
M  V30 25 1 8 25
M  V30 26 1 10 26
M  V30 27 1 11 27
M  V30 28 1 14 28
M  V30 29 1 14 29
M  V30 30 1 17 30
M  V30 31 1 18 31
M  V30 END BOND
M  V30 END CTAB
M  END
>  <Dataset>  (121) 
ChEMBL_Kinases

>  <Ligand_Instance>  (121) 
nan

>  <PDB_ID>  (121) 
nan

>  <Standardized_SMILES>  (121) 
CCC(=O)NC(=S)Nc1ccc(S(N)(=O)=O)cc1

>  <Name>  (121) 
nan

>  <Pocket>  (121) 
nan

>  <ATP_Site>  (121) 
nan

>  <Peripheral>  (121) 
nan

>  <Num_H_Atoms_ProtBoundConf>  (121) 
nan

>  <Num_Resolved_Atoms>  (121) 
nan

>  <Num_Not_Resolved_Atoms>  (121) 
nan

$$$$
CHEMBL3978722
     RDKit          3D

  0  0  0  0  0  0  0  0  0  0999 V3000
M  V30 BEGIN CTAB
M  V30 COUNTS 57 60 0 0 0
M  V30 BEGIN ATOM
M  V30 1 C 0.960029 -4.193410 4.432487 0
M  V30 2 C 2.347646 -4.539923 3.932805 0
M  V30 3 C 3.277147 -3.432203 4.372035 0
M  V30 4 N 2.392319 -4.676711 2.480685 0
M  V30 5 C 1.934879 -3.815462 1.543864 0
M  V30 6 C 2.167829 -4.316648 0.280835 0
M  V30 7 C 1.829074 -3.703011 -0.998971 0
M  V30 8 C 1.201677 -2.475245 -1.027303 0
M  V30 9 C 0.897483 -1.928867 -2.274641 0
M  V30 10 C 0.236505 -0.630301 -2.210950 0
M  V30 11 C 0.522414 0.241106 -1.182398 0
M  V30 12 C -0.088913 1.471964 -1.095721 0
M  V30 13 C -1.015236 1.909261 -2.018826 0
M  V30 14 C -1.710972 3.219089 -1.975830 0
M  V30 15 C -3.003796 3.129849 -1.184905 0
M  V30 16 N -2.787906 2.739998 0.165268 0
M  V30 17 C -2.120500 3.698677 0.996090 0
M  V30 18 C -2.166153 3.108761 2.413420 0
M  V30 19 O -2.306866 1.727459 2.338396 0
M  V30 20 C -3.614921 1.430161 1.955720 0
M  V30 21 C -4.027874 2.360561 0.804647 0
M  V30 22 C -1.290744 1.021344 -3.046412 0
M  V30 23 C -0.688371 -0.221447 -3.154197 0
M  V30 24 C 1.224632 -2.615772 -3.442460 0
M  V30 25 N 1.835978 -3.810919 -3.397280 0
M  V30 26 C 2.132672 -4.344166 -2.180448 0
M  V30 27 N 2.777942 -5.608515 -2.191379 0
M  V30 28 N 2.776669 -5.500538 0.492468 0
M  V30 29 N 2.894172 -5.682565 1.817184 0
M  V30 30 H 1.055094 -3.554368 5.328168 0
M  V30 31 H 0.420748 -3.565321 3.675794 0
M  V30 32 H 0.361431 -5.101067 4.651344 0
M  V30 33 H 2.647624 -5.499238 4.401291 0
M  V30 34 H 4.342463 -3.695062 4.222443 0
M  V30 35 H 3.101434 -3.268849 5.460952 0
M  V30 36 H 3.004587 -2.492918 3.864127 0
M  V30 37 H 1.455301 -2.871258 1.737441 0
M  V30 38 H 0.987611 -2.018606 -0.073494 0
M  V30 39 H 1.236387 -0.021279 -0.415263 0
M  V30 40 H 0.164585 2.123391 -0.274939 0
M  V30 41 H -1.071500 3.952247 -1.443066 0
M  V30 42 H -1.884838 3.592009 -3.001760 0
M  V30 43 H -3.552191 4.092048 -1.192850 0
M  V30 44 H -3.653787 2.414572 -1.726276 0
M  V30 45 H -2.670041 4.685467 1.023587 0
M  V30 46 H -1.071674 3.892844 0.735650 0
M  V30 47 H -3.021668 3.581315 2.938371 0
M  V30 48 H -1.237357 3.349632 2.972489 0
M  V30 49 H -4.262130 1.562271 2.824115 0
M  V30 50 H -3.684609 0.390789 1.528352 0
M  V30 51 H -4.664707 1.822359 0.087418 0
M  V30 52 H -4.589889 3.224316 1.230802 0
M  V30 53 H -2.003998 1.292081 -3.806106 0
M  V30 54 H -0.948647 -0.865505 -3.981333 0
M  V30 55 H 0.919615 -2.052728 -4.307939 0
M  V30 56 H 3.804983 -5.533958 -2.389517 0
M  V30 57 H 2.290370 -6.511464 -2.022895 0
M  V30 END ATOM
M  V30 BEGIN BOND
M  V30 1 1 1 2
M  V30 2 1 2 3
M  V30 3 1 2 4
M  V30 4 1 4 5
M  V30 5 2 5 6
M  V30 6 1 6 7
M  V30 7 2 7 8
M  V30 8 1 8 9
M  V30 9 1 9 10
M  V30 10 2 10 11
M  V30 11 1 11 12
M  V30 12 2 12 13
M  V30 13 1 13 14
M  V30 14 1 14 15
M  V30 15 1 15 16
M  V30 16 1 16 17
M  V30 17 1 17 18
M  V30 18 1 18 19
M  V30 19 1 19 20
M  V30 20 1 20 21
M  V30 21 1 13 22
M  V30 22 2 22 23
M  V30 23 2 9 24
M  V30 24 1 24 25
M  V30 25 2 25 26
M  V30 26 1 26 27
M  V30 27 1 6 28
M  V30 28 2 28 29
M  V30 29 1 29 4
M  V30 30 1 26 7
M  V30 31 1 23 10
M  V30 32 1 21 16
M  V30 33 1 1 30
M  V30 34 1 1 31
M  V30 35 1 1 32
M  V30 36 1 2 33
M  V30 37 1 3 34
M  V30 38 1 3 35
M  V30 39 1 3 36
M  V30 40 1 5 37
M  V30 41 1 8 38
M  V30 42 1 11 39
M  V30 43 1 12 40
M  V30 44 1 14 41
M  V30 45 1 14 42
M  V30 46 1 15 43
M  V30 47 1 15 44
M  V30 48 1 17 45
M  V30 49 1 17 46
M  V30 50 1 18 47
M  V30 51 1 18 48
M  V30 52 1 20 49
M  V30 53 1 20 50
M  V30 54 1 21 51
M  V30 55 1 21 52
M  V30 56 1 22 53
M  V30 57 1 23 54
M  V30 58 1 24 55
M  V30 59 1 27 56
M  V30 60 1 27 57
M  V30 END BOND
M  V30 END CTAB
M  END
>  <Dataset>  (122) 
ChEMBL_Kinases

>  <Ligand_Instance>  (122) 
nan

>  <PDB_ID>  (122) 
nan

>  <Standardized_SMILES>  (122) 
CC(C)n1cc(-c2cc(-c3ccc(CCN4CCOCC4)cc3)cnc2N)nn1

>  <Name>  (122) 
nan

>  <Pocket>  (122) 
nan

>  <ATP_Site>  (122) 
nan

>  <Peripheral>  (122) 
nan

>  <Num_H_Atoms_ProtBoundConf>  (122) 
nan

>  <Num_Resolved_Atoms>  (122) 
nan

>  <Num_Not_Resolved_Atoms>  (122) 
nan

$$$$
CHEMBL3977234
     RDKit          3D

  0  0  0  0  0  0  0  0  0  0999 V3000
M  V30 BEGIN CTAB
M  V30 COUNTS 137 140 0 0 0
M  V30 BEGIN ATOM
M  V30 1 C 8.416219 2.122014 -6.736442 0
M  V30 2 C 6.973790 2.094466 -6.399147 0
M  V30 3 O 6.558349 3.276767 -6.663883 0
M  V30 4 N 6.274520 0.939043 -5.886325 0
M  V30 5 C 6.924778 -0.372834 -5.663631 0
M  V30 6 C 6.610281 -0.624001 -4.176904 0
M  V30 7 C 5.281718 0.084612 -3.984650 0
M  V30 8 C 4.979169 0.503782 -5.440973 0 CFG=1
M  V30 9 C 3.992610 1.626755 -5.384820 0
M  V30 10 O 4.345665 2.841862 -5.406459 0
M  V30 11 N 2.598726 1.290961 -5.297305 0
M  V30 12 C 1.636418 2.424070 -5.192997 0 CFG=1
M  V30 13 C 0.786962 2.480683 -6.394354 0
M  V30 14 C -0.241149 3.522207 -6.556075 0
M  V30 15 C -1.356064 3.599946 -5.580039 0
M  V30 16 C -0.872744 3.289635 -7.946447 0
M  V30 17 C 0.876654 2.296893 -3.918993 0
M  V30 18 O 0.060258 2.864668 -3.103277 0
M  V30 19 N 0.958266 1.108704 -3.114479 0
M  V30 20 C 0.582467 0.374889 -1.939372 0 CFG=1
M  V30 21 C -0.928869 0.647689 -1.662281 0
M  V30 22 C -1.375694 -0.115703 -0.487981 0
M  V30 23 C -1.970244 -1.364335 -0.685866 0
M  V30 24 N -2.351764 -1.919494 0.447510 0
M  V30 25 C -2.019483 -1.050465 1.434602 0
M  V30 26 N -1.444495 0.000691 0.830570 0
M  V30 27 C -0.944433 1.127472 1.573126 0
M  V30 28 C -1.963529 2.238834 1.767558 0
M  V30 29 C -1.287397 3.297182 2.588644 0
M  V30 30 C -2.078035 4.509366 2.872400 0
M  V30 31 C -3.350202 4.350914 3.629793 0
M  V30 32 C -3.193651 3.774743 5.027352 0
M  V30 33 C -4.503222 3.767333 5.752270 0
M  V30 34 C -4.499685 3.252200 7.139929 0
M  V30 35 C -4.236361 1.826379 7.390405 0
M  V30 36 C -3.013659 1.191370 6.947874 0
M  V30 37 C -1.850879 1.565924 7.576316 0
M  V30 38 F -1.805233 2.520825 8.530448 0
M  V30 39 C -0.651346 0.979312 7.264355 0
M  V30 40 C -0.670830 -0.008368 6.282386 0
M  V30 41 C -1.841494 -0.368765 5.666120 0
M  V30 42 C -3.062317 0.194471 5.951974 0
M  V30 43 O -4.311090 -0.035242 5.454285 0
M  V30 44 C -4.715091 -0.915998 4.490983 0
M  V30 45 C -4.900832 -0.571380 3.170083 0
M  V30 46 C -5.308136 -1.414752 2.138529 0
M  V30 47 C -5.551020 -2.745823 2.493651 0
M  V30 48 C -5.370959 -3.108779 3.809277 0
M  V30 49 C -4.967932 -2.238317 4.787138 0
M  V30 50 C 0.842186 -1.045907 -2.051513 0
M  V30 51 O 0.973029 -1.229843 -3.320839 0
M  V30 52 N 0.976971 -2.162168 -1.206582 0
M  V30 53 C 1.227509 -3.403917 -1.876191 0 CFG=1
M  V30 54 C 2.732115 -3.610511 -2.108818 0
M  V30 55 O 3.006706 -4.801544 -2.762264 0
M  V30 56 C 0.635533 -4.575717 -1.201860 0
M  V30 57 O 0.830610 -5.591507 -1.914161 0
M  V30 58 N -0.058012 -4.656762 0.041875 0
M  V30 59 C -0.512199 -5.968157 0.398778 0 CFG=2
M  V30 60 C -1.857333 -5.937752 0.995938 0
M  V30 61 N -2.241930 -7.256198 1.351979 0
M  V30 62 O -2.587124 -4.919042 1.183138 0
M  V30 63 C 0.467818 -6.658506 1.375652 0 CFG=1
M  V30 64 C 0.841358 -5.764401 2.481442 0
M  V30 65 O -0.037454 -7.875877 1.659064 0
M  V30 66 P 0.635930 -9.214693 0.933618 0
M  V30 67 O 2.104979 -9.406908 1.186219 0
M  V30 68 O 0.282516 -9.267226 -0.741458 0
M  V30 69 O -0.157032 -10.581017 1.580312 0
M  V30 70 H 8.606087 2.452725 -7.781467 0
M  V30 71 H 8.971314 1.208694 -6.480876 0
M  V30 72 H 8.883304 2.933275 -6.106068 0
M  V30 73 H 7.980866 -0.380683 -5.869897 0
M  V30 74 H 6.362216 -1.088718 -6.305191 0
M  V30 75 H 7.407142 -0.180794 -3.550233 0
M  V30 76 H 6.552929 -1.714738 -4.041781 0
M  V30 77 H 4.549217 -0.608438 -3.583714 0
M  V30 78 H 5.478125 0.975957 -3.357392 0
M  V30 79 H 4.628656 -0.386979 -5.948726 0
M  V30 80 H 2.379614 0.273383 -5.334163 0
M  V30 81 H 2.249539 3.340111 -5.141291 0
M  V30 82 H 0.322617 1.456290 -6.526989 0
M  V30 83 H 1.515092 2.631763 -7.269459 0
M  V30 84 H 0.292779 4.514832 -6.651306 0
M  V30 85 H -1.151420 4.431594 -4.869092 0
M  V30 86 H -2.304498 3.975889 -6.104983 0
M  V30 87 H -1.671033 2.658003 -5.137013 0
M  V30 88 H -1.403235 2.317268 -7.862482 0
M  V30 89 H -0.050018 3.224857 -8.695353 0
M  V30 90 H -1.605719 4.072836 -8.132119 0
M  V30 91 H 1.653601 0.429428 -3.577733 0
M  V30 92 H 1.058439 0.824709 -1.050390 0
M  V30 93 H -1.087430 1.719396 -1.443941 0
M  V30 94 H -1.471289 0.428800 -2.576390 0
M  V30 95 H -2.169887 -1.949932 -1.589748 0
M  V30 96 H -2.174377 -1.166792 2.499123 0
M  V30 97 H -0.545780 0.776324 2.549611 0
M  V30 98 H -0.064703 1.602920 1.075273 0
M  V30 99 H -2.279986 2.644320 0.767994 0
M  V30 100 H -2.829204 1.787089 2.260552 0
M  V30 101 H -0.969102 2.795832 3.537447 0
M  V30 102 H -0.328065 3.585565 2.084209 0
M  V30 103 H -1.427412 5.186267 3.527886 0
M  V30 104 H -2.216754 5.144035 1.955409 0
M  V30 105 H -3.956167 3.587063 3.052542 0
M  V30 106 H -3.958525 5.272862 3.647052 0
M  V30 107 H -2.492208 4.445131 5.605619 0
M  V30 108 H -2.751760 2.782681 5.015014 0
M  V30 109 H -5.216895 3.138877 5.143260 0
M  V30 110 H -4.922891 4.823059 5.771138 0
M  V30 111 H -5.522580 3.459225 7.624138 0
M  V30 112 H -3.831594 3.913546 7.800760 0
M  V30 113 H -4.316445 1.687348 8.520293 0
M  V30 114 H -5.144340 1.262324 7.004805 0
M  V30 115 H 0.335572 1.163040 7.664802 0
M  V30 116 H 0.202205 -0.530416 5.961229 0
M  V30 117 H -1.924122 -1.142213 4.884279 0
M  V30 118 H -4.708452 0.474070 2.915984 0
M  V30 119 H -5.409996 -0.994858 1.151481 0
M  V30 120 H -5.862339 -3.395614 1.706002 0
M  V30 121 H -5.588904 -4.180121 3.969294 0
M  V30 122 H -4.861393 -2.637832 5.778632 0
M  V30 123 H 0.841714 -1.667417 -0.280406 0
M  V30 124 H 0.822770 -3.349897 -2.907282 0
M  V30 125 H 3.083422 -2.777822 -2.768120 0
M  V30 126 H 3.331747 -3.545069 -1.206577 0
M  V30 127 H 3.451780 -4.598600 -3.617427 0
M  V30 128 H -0.150004 -3.747114 0.532999 0
M  V30 129 H -0.488706 -6.648821 -0.509032 0
M  V30 130 H -3.169607 -7.544643 0.938754 0
M  V30 131 H -3.159486 -7.524594 0.935927 0
M  V30 132 H 1.376491 -6.823512 0.716977 0
M  V30 133 H 1.651184 -6.092809 3.125351 0
M  V30 134 H -0.070463 -5.566766 3.097804 0
M  V30 135 H 1.154639 -4.753415 2.094134 0
M  V30 136 H 1.117728 -9.594937 -1.186346 0
M  V30 137 H 0.298662 -11.424374 1.367117 0
M  V30 END ATOM
M  V30 BEGIN BOND
M  V30 1 1 1 2
M  V30 2 2 2 3
M  V30 3 1 2 4
M  V30 4 1 4 5
M  V30 5 1 5 6
M  V30 6 1 6 7
M  V30 7 1 7 8
M  V30 8 1 8 9
M  V30 9 2 9 10
M  V30 10 1 9 11
M  V30 11 1 11 12
M  V30 12 1 12 13
M  V30 13 1 13 14
M  V30 14 1 14 15
M  V30 15 1 14 16
M  V30 16 1 12 17
M  V30 17 2 17 18
M  V30 18 1 17 19
M  V30 19 1 19 20
M  V30 20 1 20 21
M  V30 21 1 21 22
M  V30 22 2 22 23
M  V30 23 1 23 24
M  V30 24 2 24 25
M  V30 25 1 25 26
M  V30 26 1 26 27
M  V30 27 1 27 28
M  V30 28 1 28 29
M  V30 29 1 29 30
M  V30 30 1 30 31
M  V30 31 1 31 32
M  V30 32 1 32 33
M  V30 33 1 33 34
M  V30 34 1 34 35
M  V30 35 1 35 36
M  V30 36 2 36 37
M  V30 37 1 37 38
M  V30 38 1 37 39
M  V30 39 2 39 40
M  V30 40 1 40 41
M  V30 41 2 41 42
M  V30 42 1 42 43
M  V30 43 1 43 44
M  V30 44 2 44 45
M  V30 45 1 45 46
M  V30 46 2 46 47
M  V30 47 1 47 48
M  V30 48 2 48 49
M  V30 49 1 20 50
M  V30 50 2 50 51
M  V30 51 1 50 52
M  V30 52 1 52 53
M  V30 53 1 53 54
M  V30 54 1 54 55
M  V30 55 1 53 56
M  V30 56 2 56 57
M  V30 57 1 56 58
M  V30 58 1 58 59
M  V30 59 1 59 60
M  V30 60 1 60 61
M  V30 61 2 60 62
M  V30 62 1 59 63
M  V30 63 1 63 64
M  V30 64 1 63 65
M  V30 65 1 65 66
M  V30 66 2 66 67
M  V30 67 1 66 68
M  V30 68 1 66 69
M  V30 69 1 8 4
M  V30 70 1 26 22
M  V30 71 1 42 36
M  V30 72 1 49 44
M  V30 73 1 1 70
M  V30 74 1 1 71
M  V30 75 1 1 72
M  V30 76 1 5 73
M  V30 77 1 5 74
M  V30 78 1 6 75
M  V30 79 1 6 76
M  V30 80 1 7 77
M  V30 81 1 7 78
M  V30 82 1 8 79 CFG=3
M  V30 83 1 11 80
M  V30 84 1 12 81 CFG=1
M  V30 85 1 13 82
M  V30 86 1 13 83
M  V30 87 1 14 84
M  V30 88 1 15 85
M  V30 89 1 15 86
M  V30 90 1 15 87
M  V30 91 1 16 88
M  V30 92 1 16 89
M  V30 93 1 16 90
M  V30 94 1 19 91
M  V30 95 1 20 92 CFG=1
M  V30 96 1 21 93
M  V30 97 1 21 94
M  V30 98 1 23 95
M  V30 99 1 25 96
M  V30 100 1 27 97
M  V30 101 1 27 98
M  V30 102 1 28 99
M  V30 103 1 28 100
M  V30 104 1 29 101
M  V30 105 1 29 102
M  V30 106 1 30 103
M  V30 107 1 30 104
M  V30 108 1 31 105
M  V30 109 1 31 106
M  V30 110 1 32 107
M  V30 111 1 32 108
M  V30 112 1 33 109
M  V30 113 1 33 110
M  V30 114 1 34 111
M  V30 115 1 34 112
M  V30 116 1 35 113
M  V30 117 1 35 114
M  V30 118 1 39 115
M  V30 119 1 40 116
M  V30 120 1 41 117
M  V30 121 1 45 118
M  V30 122 1 46 119
M  V30 123 1 47 120
M  V30 124 1 48 121
M  V30 125 1 49 122
M  V30 126 1 52 123
M  V30 127 1 53 124 CFG=3
M  V30 128 1 54 125
M  V30 129 1 54 126
M  V30 130 1 55 127
M  V30 131 1 58 128
M  V30 132 1 59 129 CFG=3
M  V30 133 1 61 130
M  V30 134 1 61 131
M  V30 135 1 63 132 CFG=3
M  V30 136 1 64 133
M  V30 137 1 64 134
M  V30 138 1 64 135
M  V30 139 1 68 136
M  V30 140 1 69 137
M  V30 END BOND
M  V30 END CTAB
M  END
>  <Dataset>  (123) 
ChEMBL_Kinases

>  <Ligand_Instance>  (123) 
nan

>  <PDB_ID>  (123) 
nan

>  <Standardized_SMILES>  (123) 
CC(=O)N1CCC[C@H]1C(=O)N[C@@H](CC(C)C)C(=O)N[C@@H](Cc1cncn1CCCCCCCCCc1c(F)cccc1Oc1ccccc1)C(=O)N[C@@H](CO)C(=O)N[C@H](C(N)=O)[C@@H](C)OP(=O)(O)O

>  <Name>  (123) 
nan

>  <Pocket>  (123) 
nan

>  <ATP_Site>  (123) 
nan

>  <Peripheral>  (123) 
nan

>  <Num_H_Atoms_ProtBoundConf>  (123) 
nan

>  <Num_Resolved_Atoms>  (123) 
nan

>  <Num_Not_Resolved_Atoms>  (123) 
nan

$$$$
CHEMBL3978705
     RDKit          3D

  0  0  0  0  0  0  0  0  0  0999 V3000
M  V30 BEGIN CTAB
M  V30 COUNTS 57 60 0 0 0
M  V30 BEGIN ATOM
M  V30 1 C 4.501896 -4.246734 1.048344 0
M  V30 2 O 3.505926 -4.227125 0.058257 0
M  V30 3 C 2.261517 -3.641585 0.219406 0
M  V30 4 N 1.992097 -3.055060 1.399371 0
M  V30 5 C 0.814576 -2.449799 1.679456 0
M  V30 6 C -0.177880 -2.431018 0.691855 0
M  V30 7 C -1.441567 -1.771410 1.005713 0
M  V30 8 C -1.262714 -0.521898 1.615620 0
M  V30 9 C -2.392770 0.226580 1.968377 0
M  V30 10 N -2.170630 1.502689 2.592684 0
M  V30 11 C -2.076169 2.505928 1.603239 0
M  V30 12 O -2.197097 2.132133 0.398487 0
M  V30 13 C -1.852022 3.924673 1.855606 0
M  V30 14 C -1.803586 4.760352 0.767358 0
M  V30 15 C -1.592610 6.130353 0.903839 0
M  V30 16 C -1.429538 6.638742 2.191458 0
M  V30 17 C -1.485790 5.765839 3.245613 0
M  V30 18 C -1.302457 6.380298 4.585262 0
M  V30 19 F -1.961591 5.579171 5.505020 0
M  V30 20 F 0.038658 6.500107 4.826881 0
M  V30 21 F -1.828111 7.667724 4.595964 0
M  V30 22 C -1.693286 4.406276 3.137718 0
M  V30 23 C -3.674845 -0.266190 1.715576 0
M  V30 24 N -3.782848 -1.477595 1.125086 0
M  V30 25 C -2.722587 -2.227014 0.771197 0
M  V30 26 C -2.820072 -3.548198 0.130431 0
M  V30 27 C 0.121264 -3.038734 -0.509939 0
M  V30 28 C 1.319678 -3.651193 -0.786104 0
M  V30 29 N 1.571084 -4.258850 -2.045794 0
M  V30 30 C 0.657111 -4.362211 -3.167265 0
M  V30 31 C 1.286425 -3.945655 -4.480022 0
M  V30 32 O 2.644777 -4.197593 -4.547986 0
M  V30 33 C 2.906558 -5.328213 -3.774412 0
M  V30 34 C 2.863679 -4.860560 -2.313095 0
M  V30 35 H 4.582648 -5.258538 1.531857 0
M  V30 36 H 5.533687 -4.079845 0.631687 0
M  V30 37 H 4.366484 -3.508072 1.855588 0
M  V30 38 H 0.602173 -1.977737 2.633259 0
M  V30 39 H -0.280914 -0.090870 1.835244 0
M  V30 40 H -2.073967 1.791861 3.590996 0
M  V30 41 H -1.925053 4.409719 -0.247302 0
M  V30 42 H -1.556204 6.779576 0.041214 0
M  V30 43 H -1.270292 7.693050 2.254499 0
M  V30 44 H -1.728951 3.759096 4.003792 0
M  V30 45 H -4.538621 0.333462 1.998424 0
M  V30 46 H -1.979159 -4.202988 0.377438 0
M  V30 47 H -3.010457 -3.460398 -0.972563 0
M  V30 48 H -3.744088 -4.024902 0.575035 0
M  V30 49 H -0.675966 -2.989581 -1.224328 0
M  V30 50 H -0.285029 -3.820766 -3.038108 0
M  V30 51 H 0.445432 -5.468853 -3.255665 0
M  V30 52 H 0.826392 -4.524004 -5.325019 0
M  V30 53 H 1.042122 -2.873552 -4.721989 0
M  V30 54 H 3.969932 -5.646180 -3.961416 0
M  V30 55 H 2.220284 -6.162582 -3.972787 0
M  V30 56 H 3.043381 -5.721084 -1.672240 0
M  V30 57 H 3.681104 -4.084791 -2.259723 0
M  V30 END ATOM
M  V30 BEGIN BOND
M  V30 1 1 1 2
M  V30 2 1 2 3
M  V30 3 2 3 4
M  V30 4 1 4 5
M  V30 5 2 5 6
M  V30 6 1 6 7
M  V30 7 2 7 8
M  V30 8 1 8 9
M  V30 9 1 9 10
M  V30 10 1 10 11
M  V30 11 2 11 12
M  V30 12 1 11 13
M  V30 13 2 13 14
M  V30 14 1 14 15
M  V30 15 2 15 16
M  V30 16 1 16 17
M  V30 17 1 17 18
M  V30 18 1 18 19
M  V30 19 1 18 20
M  V30 20 1 18 21
M  V30 21 2 17 22
M  V30 22 2 9 23
M  V30 23 1 23 24
M  V30 24 2 24 25
M  V30 25 1 25 26
M  V30 26 1 6 27
M  V30 27 2 27 28
M  V30 28 1 28 29
M  V30 29 1 29 30
M  V30 30 1 30 31
M  V30 31 1 31 32
M  V30 32 1 32 33
M  V30 33 1 33 34
M  V30 34 1 28 3
M  V30 35 1 34 29
M  V30 36 1 25 7
M  V30 37 1 22 13
M  V30 38 1 1 35
M  V30 39 1 1 36
M  V30 40 1 1 37
M  V30 41 1 5 38
M  V30 42 1 8 39
M  V30 43 1 10 40
M  V30 44 1 14 41
M  V30 45 1 15 42
M  V30 46 1 16 43
M  V30 47 1 22 44
M  V30 48 1 23 45
M  V30 49 1 26 46
M  V30 50 1 26 47
M  V30 51 1 26 48
M  V30 52 1 27 49
M  V30 53 1 30 50
M  V30 54 1 30 51
M  V30 55 1 31 52
M  V30 56 1 31 53
M  V30 57 1 33 54
M  V30 58 1 33 55
M  V30 59 1 34 56
M  V30 60 1 34 57
M  V30 END BOND
M  V30 END CTAB
M  END
>  <Dataset>  (124) 
ChEMBL_Kinases

>  <Ligand_Instance>  (124) 
nan

>  <PDB_ID>  (124) 
nan

>  <Standardized_SMILES>  (124) 
COc1ncc(-c2cc(NC(=O)c3cccc(C(F)(F)F)c3)cnc2C)cc1N1CCOCC1

>  <Name>  (124) 
nan

>  <Pocket>  (124) 
nan

>  <ATP_Site>  (124) 
nan

>  <Peripheral>  (124) 
nan

>  <Num_H_Atoms_ProtBoundConf>  (124) 
nan

>  <Num_Resolved_Atoms>  (124) 
nan

>  <Num_Not_Resolved_Atoms>  (124) 
nan

$$$$
CHEMBL3978421
     RDKit          3D

  0  0  0  0  0  0  0  0  0  0999 V3000
M  V30 BEGIN CTAB
M  V30 COUNTS 50 53 0 0 0
M  V30 BEGIN ATOM
M  V30 1 C 1.339790 -3.843753 1.840658 0
M  V30 2 C 0.817660 -4.525640 0.564945 0
M  V30 3 N 1.761656 -4.387274 -0.503527 0
M  V30 4 S 1.223957 -3.407458 -1.809251 0
M  V30 5 O 2.397950 -3.308572 -2.769490 0
M  V30 6 O 0.076708 -3.974409 -2.557410 0
M  V30 7 C 0.905427 -1.759152 -1.272498 0
M  V30 8 C 1.883813 -0.786155 -1.244625 0
M  V30 9 C 1.665330 0.513269 -0.828974 0
M  V30 10 C 0.385095 0.838158 -0.420587 0
M  V30 11 C 0.042334 2.180260 0.044141 0
M  V30 12 N 0.816449 3.248475 0.152366 0
M  V30 13 C 0.169549 4.330095 0.623506 0
M  V30 14 C 0.417788 5.653436 0.940928 0
M  V30 15 C -0.593124 6.477193 1.434376 0
M  V30 16 C -0.277199 7.865896 1.754363 0
M  V30 17 N -1.347004 8.685236 2.272576 0
M  V30 18 O 0.901166 8.260322 1.559657 0
M  V30 19 C -1.877333 5.961615 1.611319 0
M  V30 20 C -2.178708 4.641773 1.308133 0
M  V30 21 C -1.125183 3.901760 0.828457 0
M  V30 22 N -1.182129 2.588481 0.469443 0
M  V30 23 C -0.602975 -0.139297 -0.447311 0
M  V30 24 C -0.398182 -1.448627 -0.862556 0
M  V30 25 C 0.432906 -5.918329 0.872174 0
M  V30 26 C 0.374325 -6.323336 2.209095 0
M  V30 27 C 0.011330 -7.630784 2.467182 0
M  V30 28 C -0.301110 -8.580328 1.516951 0
M  V30 29 C -0.236679 -8.155093 0.184331 0
M  V30 30 C 0.123188 -6.858168 -0.084545 0
M  V30 31 H 1.710225 -2.828681 1.584851 0
M  V30 32 H 0.451809 -3.666609 2.495831 0
M  V30 33 H 2.108944 -4.454285 2.326653 0
M  V30 34 H -0.107250 -3.956741 0.329259 0
M  V30 35 H 2.632218 -3.957054 -0.123979 0
M  V30 36 H 2.877343 -1.118423 -1.582817 0
M  V30 37 H 2.440521 1.245483 -0.818723 0
M  V30 38 H 1.437192 5.987436 0.778471 0
M  V30 39 H -1.969109 8.430841 3.095226 0
M  V30 40 H -1.338732 9.541390 1.652969 0
M  V30 41 H -2.682417 6.605520 2.000885 0
M  V30 42 H -3.170762 4.238057 1.443752 0
M  V30 43 H -2.010034 1.941015 0.493507 0
M  V30 44 H -1.622716 0.045428 -0.142925 0
M  V30 45 H -1.164492 -2.187745 -0.880335 0
M  V30 46 H 0.602571 -5.649288 3.048164 0
M  V30 47 H -0.025748 -7.915285 3.517240 0
M  V30 48 H -0.574766 -9.576267 1.829103 0
M  V30 49 H -0.478674 -8.888011 -0.594650 0
M  V30 50 H 0.158602 -6.577817 -1.137048 0
M  V30 END ATOM
M  V30 BEGIN BOND
M  V30 1 1 1 2
M  V30 2 1 2 3
M  V30 3 1 3 4
M  V30 4 2 4 5
M  V30 5 2 4 6
M  V30 6 1 4 7
M  V30 7 2 7 8
M  V30 8 1 8 9
M  V30 9 2 9 10
M  V30 10 1 10 11
M  V30 11 2 11 12
M  V30 12 1 12 13
M  V30 13 2 13 14
M  V30 14 1 14 15
M  V30 15 1 15 16
M  V30 16 1 16 17
M  V30 17 2 16 18
M  V30 18 2 15 19
M  V30 19 1 19 20
M  V30 20 2 20 21
M  V30 21 1 21 22
M  V30 22 1 10 23
M  V30 23 2 23 24
M  V30 24 1 2 25
M  V30 25 2 25 26
M  V30 26 1 26 27
M  V30 27 2 27 28
M  V30 28 1 28 29
M  V30 29 2 29 30
M  V30 30 1 24 7
M  V30 31 1 30 25
M  V30 32 1 22 11
M  V30 33 1 21 13
M  V30 34 1 1 31
M  V30 35 1 1 32
M  V30 36 1 1 33
M  V30 37 1 2 34
M  V30 38 1 3 35
M  V30 39 1 8 36
M  V30 40 1 9 37
M  V30 41 1 14 38
M  V30 42 1 17 39
M  V30 43 1 17 40
M  V30 44 1 19 41
M  V30 45 1 20 42
M  V30 46 1 22 43
M  V30 47 1 23 44
M  V30 48 1 24 45
M  V30 49 1 26 46
M  V30 50 1 27 47
M  V30 51 1 28 48
M  V30 52 1 29 49
M  V30 53 1 30 50
M  V30 END BOND
M  V30 END CTAB
M  END
>  <Dataset>  (125) 
ChEMBL_Kinases

>  <Ligand_Instance>  (125) 
nan

>  <PDB_ID>  (125) 
nan

>  <Standardized_SMILES>  (125) 
CC(NS(=O)(=O)c1ccc(-c2nc3cc(C(N)=O)ccc3[nH]2)cc1)c1ccccc1

>  <Name>  (125) 
nan

>  <Pocket>  (125) 
nan

>  <ATP_Site>  (125) 
nan

>  <Peripheral>  (125) 
nan

>  <Num_H_Atoms_ProtBoundConf>  (125) 
nan

>  <Num_Resolved_Atoms>  (125) 
nan

>  <Num_Not_Resolved_Atoms>  (125) 
nan

$$$$
CHEMBL3978242
     RDKit          3D

  0  0  0  0  0  0  0  0  0  0999 V3000
M  V30 BEGIN CTAB
M  V30 COUNTS 66 69 0 0 0
M  V30 BEGIN ATOM
M  V30 1 C 6.591585 5.365567 2.093483 0
M  V30 2 C 6.265561 3.903441 1.994337 0
M  V30 3 C 6.484814 3.286836 3.379754 0
M  V30 4 C 7.196786 3.226385 1.045267 0
M  V30 5 O 4.904066 3.711346 1.693338 0
M  V30 6 C 4.257196 4.175327 0.567919 0
M  V30 7 O 5.269922 4.715500 0.089220 0
M  V30 8 N 2.872335 3.859103 0.475114 0
M  V30 9 C 2.136941 3.101798 1.469137 0
M  V30 10 C 1.592726 1.809240 0.871028 0
M  V30 11 C 1.079522 2.009654 -0.519242 0
M  V30 12 C -0.173684 1.220707 -0.837724 0
M  V30 13 C -1.341847 1.542759 0.033374 0
M  V30 14 O -2.512022 0.846151 -0.206750 0
M  V30 15 C -2.790612 -0.480910 -0.143645 0
M  V30 16 C -4.134375 -0.686585 -0.492191 0
M  V30 17 C -4.684062 -1.975231 -0.507005 0
M  V30 18 C -3.921440 -3.074553 -0.180210 0
M  V30 19 C -4.472070 -4.426579 -0.188453 0
M  V30 20 N -3.794765 -5.547805 0.117868 0
M  V30 21 C -4.612702 -6.620211 0.006380 0
M  V30 22 C -4.283207 -7.950567 0.238969 0
M  V30 23 C -5.323311 -8.836528 0.046244 0
M  V30 24 C -5.051126 -10.251354 0.271959 0
M  V30 25 N -3.773153 -10.727053 0.677785 0
M  V30 26 O -5.805384 -11.277570 0.170931 0
M  V30 27 C -6.592986 -8.465920 -0.343574 0
M  V30 28 C -6.837228 -7.111044 -0.555248 0
M  V30 29 C -5.854773 -6.152995 -0.386151 0
M  V30 30 N -5.723580 -4.813337 -0.492592 0
M  V30 31 C -2.603868 -2.871385 0.161556 0
M  V30 32 C -2.067988 -1.605566 0.175117 0
M  V30 33 C 0.853714 3.456159 -0.864391 0
M  V30 34 C 2.092384 4.294178 -0.665889 0
M  V30 35 H 7.130976 5.645443 1.160476 0
M  V30 36 H 5.644154 5.925840 2.137774 0
M  V30 37 H 7.236594 5.561594 2.954801 0
M  V30 38 H 5.780302 3.721062 4.117382 0
M  V30 39 H 7.527565 3.489552 3.739780 0
M  V30 40 H 6.363454 2.192350 3.325184 0
M  V30 41 H 7.608828 3.911277 0.254216 0
M  V30 42 H 8.101010 2.911216 1.615543 0
M  V30 43 H 6.800135 2.291324 0.598147 0
M  V30 44 H 2.858800 2.805878 2.255926 0
M  V30 45 H 1.376496 3.717657 1.953877 0
M  V30 46 H 0.888825 1.387999 1.587523 0
M  V30 47 H 2.466914 1.096606 0.858173 0
M  V30 48 H 1.848026 1.621408 -1.247289 0
M  V30 49 H -0.443218 1.558836 -1.888484 0
M  V30 50 H 0.039434 0.144498 -0.966748 0
M  V30 51 H -1.086175 1.450234 1.114193 0
M  V30 52 H -1.605179 2.638305 -0.072658 0
M  V30 53 H -4.888109 0.064760 -0.779920 0
M  V30 54 H -5.711451 -2.188852 -0.767259 0
M  V30 55 H -3.297786 -8.242415 0.542123 0
M  V30 56 H -3.628044 -10.496412 1.697926 0
M  V30 57 H -3.108273 -11.223017 0.038814 0
M  V30 58 H -7.406045 -9.161252 -0.493830 0
M  V30 59 H -7.806595 -6.719158 -0.865020 0
M  V30 60 H -6.519376 -4.197396 -0.777688 0
M  V30 61 H -1.940188 -3.666152 0.428663 0
M  V30 62 H -1.061070 -1.382526 0.435959 0
M  V30 63 H 0.016097 3.859641 -0.261704 0
M  V30 64 H 0.608892 3.481775 -1.948770 0
M  V30 65 H 1.766242 5.336738 -0.472833 0
M  V30 66 H 2.752179 4.239928 -1.552762 0
M  V30 END ATOM
M  V30 BEGIN BOND
M  V30 1 1 1 2
M  V30 2 1 2 3
M  V30 3 1 2 4
M  V30 4 1 2 5
M  V30 5 1 5 6
M  V30 6 2 6 7
M  V30 7 1 6 8
M  V30 8 1 8 9
M  V30 9 1 9 10
M  V30 10 1 10 11
M  V30 11 1 11 12
M  V30 12 1 12 13
M  V30 13 1 13 14
M  V30 14 1 14 15
M  V30 15 2 15 16
M  V30 16 1 16 17
M  V30 17 2 17 18
M  V30 18 1 18 19
M  V30 19 2 19 20
M  V30 20 1 20 21
M  V30 21 2 21 22
M  V30 22 1 22 23
M  V30 23 1 23 24
M  V30 24 1 24 25
M  V30 25 2 24 26
M  V30 26 2 23 27
M  V30 27 1 27 28
M  V30 28 2 28 29
M  V30 29 1 29 30
M  V30 30 1 18 31
M  V30 31 2 31 32
M  V30 32 1 11 33
M  V30 33 1 33 34
M  V30 34 1 34 8
M  V30 35 1 32 15
M  V30 36 1 30 19
M  V30 37 1 29 21
M  V30 38 1 1 35
M  V30 39 1 1 36
M  V30 40 1 1 37
M  V30 41 1 3 38
M  V30 42 1 3 39
M  V30 43 1 3 40
M  V30 44 1 4 41
M  V30 45 1 4 42
M  V30 46 1 4 43
M  V30 47 1 9 44
M  V30 48 1 9 45
M  V30 49 1 10 46
M  V30 50 1 10 47
M  V30 51 1 11 48
M  V30 52 1 12 49
M  V30 53 1 12 50
M  V30 54 1 13 51
M  V30 55 1 13 52
M  V30 56 1 16 53
M  V30 57 1 17 54
M  V30 58 1 22 55
M  V30 59 1 25 56
M  V30 60 1 25 57
M  V30 61 1 27 58
M  V30 62 1 28 59
M  V30 63 1 30 60
M  V30 64 1 31 61
M  V30 65 1 32 62
M  V30 66 1 33 63
M  V30 67 1 33 64
M  V30 68 1 34 65
M  V30 69 1 34 66
M  V30 END BOND
M  V30 END CTAB
M  END
>  <Dataset>  (126) 
ChEMBL_Kinases

>  <Ligand_Instance>  (126) 
nan

>  <PDB_ID>  (126) 
nan

>  <Standardized_SMILES>  (126) 
CC(C)(C)OC(=O)N1CCC(CCOc2ccc(-c3nc4cc(C(N)=O)ccc4[nH]3)cc2)CC1

>  <Name>  (126) 
nan

>  <Pocket>  (126) 
nan

>  <ATP_Site>  (126) 
nan

>  <Peripheral>  (126) 
nan

>  <Num_H_Atoms_ProtBoundConf>  (126) 
nan

>  <Num_Resolved_Atoms>  (126) 
nan

>  <Num_Not_Resolved_Atoms>  (126) 
nan

$$$$
CHEMBL3978209
     RDKit          3D

  0  0  0  0  0  0  0  0  0  0999 V3000
M  V30 BEGIN CTAB
M  V30 COUNTS 42 45 0 0 0
M  V30 BEGIN ATOM
M  V30 1 N 3.310752 -6.699039 -0.563075 0
M  V30 2 C 3.718570 -5.589371 0.225482 0
M  V30 3 C 4.066364 -5.833401 1.536514 0
M  V30 4 C 4.468512 -4.787327 2.339936 0
M  V30 5 C 4.501554 -3.528200 1.776623 0
M  V30 6 C 4.150275 -3.281873 0.452535 0
M  V30 7 O 4.220282 -1.969671 -0.013817 0
M  V30 8 C 3.107751 -1.114427 0.085250 0
M  V30 9 C 1.901679 -1.539759 0.648252 0
M  V30 10 C 0.872926 -0.625570 0.698308 0
M  V30 11 C 1.051284 0.651039 0.206191 0
M  V30 12 C 0.135107 1.684384 0.176915 0
M  V30 13 C -1.250212 1.664037 0.665882 0
M  V30 14 C -2.058751 2.692951 0.600570 0
M  V30 15 C -3.436946 2.719258 1.071338 0
M  V30 16 C -4.059136 1.636721 1.652662 0
M  V30 17 C -5.367935 1.749444 2.070172 0
M  V30 18 C -6.123809 2.902816 1.944577 0
M  V30 19 C -5.490485 3.968664 1.364998 0
M  V30 20 C -4.184208 3.865658 0.945094 0
M  V30 21 N 0.767282 2.726129 -0.394023 0
M  V30 22 N 2.016198 2.384792 -0.713662 0
M  V30 23 C 2.244056 1.105436 -0.361974 0
M  V30 24 C 3.261192 0.168773 -0.400415 0
M  V30 25 C 3.747051 -4.330507 -0.353161 0
M  V30 26 H 2.267694 -6.850801 -0.475340 0
M  V30 27 H 3.661132 -7.439731 -1.212774 0
M  V30 28 H 4.038218 -6.827223 1.974131 0
M  V30 29 H 4.759016 -4.890728 3.381125 0
M  V30 30 H 4.811713 -2.699427 2.384462 0
M  V30 31 H 1.889468 -2.545472 0.991288 0
M  V30 32 H -0.054070 -0.948716 1.129769 0
M  V30 33 H -1.615840 0.746788 1.102199 0
M  V30 34 H -1.629484 3.577591 0.153091 0
M  V30 35 H -3.527573 0.704715 1.781714 0
M  V30 36 H -5.805879 0.860650 2.522100 0
M  V30 37 H -7.140093 2.924183 2.291072 0
M  V30 38 H -6.047846 4.894989 1.246822 0
M  V30 39 H -3.746370 4.753090 0.493676 0
M  V30 40 H 2.770921 2.951585 -1.167240 0
M  V30 41 H 4.191590 0.518633 -0.842059 0
M  V30 42 H 3.472942 -4.143629 -1.383495 0
M  V30 END ATOM
M  V30 BEGIN BOND
M  V30 1 1 1 2
M  V30 2 2 2 3
M  V30 3 1 3 4
M  V30 4 2 4 5
M  V30 5 1 5 6
M  V30 6 1 6 7
M  V30 7 1 7 8
M  V30 8 2 8 9
M  V30 9 1 9 10
M  V30 10 2 10 11
M  V30 11 1 11 12
M  V30 12 1 12 13
M  V30 13 2 13 14
M  V30 14 1 14 15
M  V30 15 2 15 16
M  V30 16 1 16 17
M  V30 17 2 17 18
M  V30 18 1 18 19
M  V30 19 2 19 20
M  V30 20 2 12 21
M  V30 21 1 21 22
M  V30 22 1 22 23
M  V30 23 2 23 24
M  V30 24 2 6 25
M  V30 25 1 25 2
M  V30 26 1 24 8
M  V30 27 1 23 11
M  V30 28 1 20 15
M  V30 29 1 1 26
M  V30 30 1 1 27
M  V30 31 1 3 28
M  V30 32 1 4 29
M  V30 33 1 5 30
M  V30 34 1 9 31
M  V30 35 1 10 32
M  V30 36 1 13 33
M  V30 37 1 14 34
M  V30 38 1 16 35
M  V30 39 1 17 36
M  V30 40 1 18 37
M  V30 41 1 19 38
M  V30 42 1 20 39
M  V30 43 1 22 40
M  V30 44 1 24 41
M  V30 45 1 25 42
M  V30 END BOND
M  V30 END CTAB
M  END
>  <Dataset>  (127) 
ChEMBL_Kinases

>  <Ligand_Instance>  (127) 
nan

>  <PDB_ID>  (127) 
nan

>  <Standardized_SMILES>  (127) 
Nc1cccc(Oc2ccc3c(/C=C/c4ccccc4)n[nH]c3c2)c1

>  <Name>  (127) 
nan

>  <Pocket>  (127) 
nan

>  <ATP_Site>  (127) 
nan

>  <Peripheral>  (127) 
nan

>  <Num_H_Atoms_ProtBoundConf>  (127) 
nan

>  <Num_Resolved_Atoms>  (127) 
nan

>  <Num_Not_Resolved_Atoms>  (127) 
nan

$$$$
CHEMBL397819
     RDKit          3D

  0  0  0  0  0  0  0  0  0  0999 V3000
M  V30 BEGIN CTAB
M  V30 COUNTS 30 32 0 0 0
M  V30 BEGIN ATOM
M  V30 1 N 4.317434 -4.786707 1.239358 0
M  V30 2 C 3.458264 -4.024532 1.386951 0
M  V30 3 C 2.397709 -3.072213 1.555073 0
M  V30 4 C 1.768694 -2.890685 2.771841 0
M  V30 5 N 2.159624 -3.652764 3.907894 0
M  V30 6 N 0.769685 -2.020760 3.009161 0
M  V30 7 C 0.313764 -1.247207 2.020023 0
M  V30 8 C 0.899660 -1.379341 0.778966 0
M  V30 9 C 1.917680 -2.267008 0.540587 0
M  V30 10 N 2.540229 -2.419044 -0.744264 0
M  V30 11 C 0.480034 -0.579632 -0.387181 0
M  V30 12 C -0.612203 0.352964 -0.073708 0
M  V30 13 C -1.088785 1.155614 -1.090256 0
M  V30 14 C -2.128862 2.051667 -0.815006 0
M  V30 15 O -2.645546 2.889138 -1.821721 0
M  V30 16 C -2.678422 2.136589 0.462820 0
M  V30 17 O -3.711435 3.037572 0.704083 0
M  V30 18 C -2.193198 1.328129 1.472314 0
M  V30 19 C -1.162854 0.444510 1.187850 0
M  V30 20 O -0.715070 -0.342472 2.238699 0
M  V30 21 H 3.190416 -3.694072 4.072662 0
M  V30 22 H 2.908286 -4.023797 4.518051 0
M  V30 23 H 2.692539 -1.796540 -1.546629 0
M  V30 24 H 2.965479 -3.337342 -1.019403 0
M  V30 25 H 1.336752 -0.031443 -0.844333 0
M  V30 26 H 0.092017 -1.312781 -1.144543 0
M  V30 27 H -0.684741 1.112877 -2.087163 0
M  V30 28 H -2.579901 3.911141 -1.766552 0
M  V30 29 H -4.164755 3.022547 1.609253 0
M  V30 30 H -2.639620 1.418450 2.448077 0
M  V30 END ATOM
M  V30 BEGIN BOND
M  V30 1 3 1 2
M  V30 2 1 2 3
M  V30 3 2 3 4
M  V30 4 1 4 5
M  V30 5 1 4 6
M  V30 6 2 6 7
M  V30 7 1 7 8
M  V30 8 2 8 9
M  V30 9 1 9 10
M  V30 10 1 8 11
M  V30 11 1 11 12
M  V30 12 2 12 13
M  V30 13 1 13 14
M  V30 14 1 14 15
M  V30 15 2 14 16
M  V30 16 1 16 17
M  V30 17 1 16 18
M  V30 18 2 18 19
M  V30 19 1 19 20
M  V30 20 1 9 3
M  V30 21 1 19 12
M  V30 22 1 20 7
M  V30 23 1 5 21
M  V30 24 1 5 22
M  V30 25 1 10 23
M  V30 26 1 10 24
M  V30 27 1 11 25
M  V30 28 1 11 26
M  V30 29 1 13 27
M  V30 30 1 15 28
M  V30 31 1 17 29
M  V30 32 1 18 30
M  V30 END BOND
M  V30 END CTAB
M  END
>  <Dataset>  (128) 
ChEMBL_Kinases

>  <Ligand_Instance>  (128) 
nan

>  <PDB_ID>  (128) 
nan

>  <Standardized_SMILES>  (128) 
N#Cc1c(N)nc2c(c1N)Cc1cc(O)c(O)cc1O2

>  <Name>  (128) 
nan

>  <Pocket>  (128) 
nan

>  <ATP_Site>  (128) 
nan

>  <Peripheral>  (128) 
nan

>  <Num_H_Atoms_ProtBoundConf>  (128) 
nan

>  <Num_Resolved_Atoms>  (128) 
nan

>  <Num_Not_Resolved_Atoms>  (128) 
nan

$$$$
CHEMBL3978077
     RDKit          3D

  0  0  0  0  0  0  0  0  0  0999 V3000
M  V30 BEGIN CTAB
M  V30 COUNTS 61 66 0 0 0
M  V30 BEGIN ATOM
M  V30 1 C 4.412766 -4.473980 6.951599 0
M  V30 2 O 4.584809 -3.075562 6.671876 0
M  V30 3 C 3.961185 -2.462688 5.603710 0
M  V30 4 O 3.261712 -3.277618 4.955827 0
M  V30 5 N 4.089326 -1.089036 5.274090 0
M  V30 6 C 3.356963 -0.667767 4.128483 0
M  V30 7 N 2.087712 -0.186299 4.010082 0
M  V30 8 C 1.849086 0.077414 2.694277 0
M  V30 9 C 0.740088 0.575296 2.014904 0
M  V30 10 C 0.776630 0.745112 0.646923 0
M  V30 11 C -0.357531 1.265437 -0.137644 0
M  V30 12 O -0.003172 1.270387 -1.489698 0
M  V30 13 C -0.719984 2.652681 0.245565 0
M  V30 14 C 0.074714 3.793459 0.238600 0
M  V30 15 C -0.477471 4.990002 0.640658 0
M  V30 16 C -1.792015 5.110144 1.052980 0
M  V30 17 C -2.556435 3.964478 1.050044 0
M  V30 18 C -2.051113 2.737478 0.655717 0
M  V30 19 C -2.648103 1.403343 0.565014 0
M  V30 20 O -3.817788 1.096358 0.849150 0
M  V30 21 N -1.597139 0.555389 0.084686 0
M  V30 22 C -1.746268 -0.835869 -0.153575 0
M  V30 23 C -1.528376 -1.845230 0.759945 0
M  V30 24 C -1.683102 -3.175511 0.488380 0
M  V30 25 C -2.081843 -3.577179 -0.768912 0
M  V30 26 C -2.317867 -2.634102 -1.730567 0
M  V30 27 N -2.727728 -3.000584 -3.029599 0
M  V30 28 C -3.017061 -2.157996 -4.170741 0
M  V30 29 C -2.749920 -2.986812 -5.400875 0
M  V30 30 C -2.254798 -4.322865 -4.859829 0
M  V30 31 C -2.955471 -4.348006 -3.516363 0
M  V30 32 C -2.149012 -1.293290 -1.413733 0
M  V30 33 C 1.976877 0.388489 0.021641 0
M  V30 34 C 3.086958 -0.105886 0.671716 0
M  V30 35 C 3.019856 -0.264691 2.041386 0
M  V30 36 N 3.936222 -0.717202 2.910205 0
M  V30 37 H 5.263708 -4.878479 7.515595 0
M  V30 38 H 4.138325 -5.041659 6.053343 0
M  V30 39 H 3.514377 -4.521916 7.625217 0
M  V30 40 H 4.713923 -0.560258 5.925528 0
M  V30 41 H -0.156249 0.830303 2.567779 0
M  V30 42 H 0.703917 1.961813 -1.577370 0
M  V30 43 H 1.096477 3.729962 -0.075997 0
M  V30 44 H 0.099060 5.922946 0.656609 0
M  V30 45 H -2.232893 6.062493 1.373377 0
M  V30 46 H -3.601355 4.047280 1.375256 0
M  V30 47 H -1.215483 -1.546928 1.750332 0
M  V30 48 H -1.489529 -3.896915 1.267416 0
M  V30 49 H -2.192124 -4.638019 -0.941675 0
M  V30 50 H -2.262649 -1.327408 -4.128785 0
M  V30 51 H -4.040817 -1.762246 -4.105592 0
M  V30 52 H -3.616678 -3.130231 -6.050693 0
M  V30 53 H -1.964666 -2.518156 -6.026875 0
M  V30 54 H -2.626729 -5.152509 -5.480197 0
M  V30 55 H -1.169380 -4.346823 -4.743867 0
M  V30 56 H -4.046985 -4.456156 -3.681405 0
M  V30 57 H -2.499921 -5.135799 -2.912624 0
M  V30 58 H -2.339856 -0.549404 -2.188041 0
M  V30 59 H 2.043275 0.508826 -1.058528 0
M  V30 60 H 3.971987 -0.353893 0.099436 0
M  V30 61 H 4.899746 -1.034734 2.641267 0
M  V30 END ATOM
M  V30 BEGIN BOND
M  V30 1 1 1 2
M  V30 2 1 2 3
M  V30 3 2 3 4
M  V30 4 1 3 5
M  V30 5 1 5 6
M  V30 6 2 6 7
M  V30 7 1 7 8
M  V30 8 2 8 9
M  V30 9 1 9 10
M  V30 10 1 10 11
M  V30 11 1 11 12
M  V30 12 1 11 13
M  V30 13 2 13 14
M  V30 14 1 14 15
M  V30 15 2 15 16
M  V30 16 1 16 17
M  V30 17 2 17 18
M  V30 18 1 18 19
M  V30 19 2 19 20
M  V30 20 1 19 21
M  V30 21 1 21 22
M  V30 22 2 22 23
M  V30 23 1 23 24
M  V30 24 2 24 25
M  V30 25 1 25 26
M  V30 26 1 26 27
M  V30 27 1 27 28
M  V30 28 1 28 29
M  V30 29 1 29 30
M  V30 30 1 30 31
M  V30 31 2 26 32
M  V30 32 2 10 33
M  V30 33 1 33 34
M  V30 34 2 34 35
M  V30 35 1 35 36
M  V30 36 1 36 6
M  V30 37 1 35 8
M  V30 38 1 21 11
M  V30 39 1 32 22
M  V30 40 1 18 13
M  V30 41 1 31 27
M  V30 42 1 1 37
M  V30 43 1 1 38
M  V30 44 1 1 39
M  V30 45 1 5 40
M  V30 46 1 9 41
M  V30 47 1 12 42
M  V30 48 1 14 43
M  V30 49 1 15 44
M  V30 50 1 16 45
M  V30 51 1 17 46
M  V30 52 1 23 47
M  V30 53 1 24 48
M  V30 54 1 25 49
M  V30 55 1 28 50
M  V30 56 1 28 51
M  V30 57 1 29 52
M  V30 58 1 29 53
M  V30 59 1 30 54
M  V30 60 1 30 55
M  V30 61 1 31 56
M  V30 62 1 31 57
M  V30 63 1 32 58
M  V30 64 1 33 59
M  V30 65 1 34 60
M  V30 66 1 36 61
M  V30 END BOND
M  V30 END CTAB
M  END
>  <Dataset>  (129) 
ChEMBL_Kinases

>  <Ligand_Instance>  (129) 
nan

>  <PDB_ID>  (129) 
nan

>  <Standardized_SMILES>  (129) 
COC(=O)Nc1nc2cc(C3(O)c4ccccc4C(=O)N3c3cccc(N4CCCC4)c3)ccc2[nH]1

>  <Name>  (129) 
nan

>  <Pocket>  (129) 
nan

>  <ATP_Site>  (129) 
nan

>  <Peripheral>  (129) 
nan

>  <Num_H_Atoms_ProtBoundConf>  (129) 
nan

>  <Num_Resolved_Atoms>  (129) 
nan

>  <Num_Not_Resolved_Atoms>  (129) 
nan

$$$$
CHEMBL486728
     RDKit          3D

  0  0  0  0  0  0  0  0  0  0999 V3000
M  V30 BEGIN CTAB
M  V30 COUNTS 52 57 0 0 0
M  V30 BEGIN ATOM
M  V30 1 O 3.493829 2.354943 2.526125 0
M  V30 2 C 2.806695 2.097272 1.498619 0
M  V30 3 N 2.978971 2.579571 0.156922 0
M  V30 4 C 1.960875 2.009456 -0.645766 0
M  V30 5 O 1.978266 2.334359 -1.839558 0
M  V30 6 C 1.117171 1.159489 0.134002 0
M  V30 7 C 1.638633 1.227560 1.402810 0
M  V30 8 C 1.056263 0.512960 2.435142 0
M  V30 9 C 1.559292 0.541240 3.805797 0
M  V30 10 C 0.954633 1.564642 4.546806 0
M  V30 11 Cl -0.250394 2.675883 3.925041 0
M  V30 12 C 1.304156 1.754359 5.885898 0
M  V30 13 C 2.251456 0.927779 6.481768 0
M  V30 14 C 2.825430 -0.069050 5.720824 0
M  V30 15 C 2.499063 -0.278398 4.397729 0
M  V30 16 Cl 3.158868 -1.496392 3.359468 0
M  V30 17 C -0.050416 -0.260160 2.154130 0
M  V30 18 C -0.603636 -0.349597 0.875182 0
M  V30 19 C 0.024566 0.386344 -0.105201 0
M  V30 20 C -0.652294 0.175755 -1.266852 0
M  V30 21 C -0.624302 0.542056 -2.578568 0
M  V30 22 C -1.512000 0.118873 -3.537358 0
M  V30 23 O -1.438625 0.527008 -4.875941 0
M  V30 24 C -2.533832 -0.746046 -3.205189 0
M  V30 25 C -2.598600 -1.144706 -1.877395 0
M  V30 26 C -1.678225 -0.686634 -0.957709 0
M  V30 27 N -1.670758 -1.023267 0.345066 0
M  V30 28 C -2.463463 -1.853728 1.213934 0
M  V30 29 C -1.910382 -3.271534 1.240062 0
M  V30 30 C -1.968634 -3.813426 -0.128888 0
M  V30 31 O -3.129062 -4.250643 -0.432835 0
M  V30 32 N -0.951159 -3.901808 -1.090945 0
M  V30 33 C -1.175924 -4.428038 -2.307407 0
M  V30 34 C 0.042044 -4.358621 -2.994027 0
M  V30 35 N 0.984175 -3.795325 -2.192444 0
M  V30 36 C 0.335559 -3.524839 -1.022207 0
M  V30 37 H 3.775845 3.244216 -0.049405 0
M  V30 38 H 0.860027 2.532474 6.490535 0
M  V30 39 H 2.534753 1.064686 7.529740 0
M  V30 40 H 3.566863 -0.749420 6.113902 0
M  V30 41 H -0.497636 -0.815295 2.970060 0
M  V30 42 H 0.116969 1.203687 -2.952235 0
M  V30 43 H -1.607715 1.510083 -5.139519 0
M  V30 44 H -3.246169 -1.094837 -3.936638 0
M  V30 45 H -3.409742 -1.818463 -1.645402 0
M  V30 46 H -3.472280 -1.950499 0.740429 0
M  V30 47 H -2.575125 -1.432448 2.219597 0
M  V30 48 H -0.862141 -3.282982 1.622383 0
M  V30 49 H -2.478493 -3.912814 1.923189 0
M  V30 50 H -2.082655 -4.850998 -2.767100 0
M  V30 51 H 0.180155 -4.714416 -4.023402 0
M  V30 52 H 0.803445 -3.066852 -0.159477 0
M  V30 END ATOM
M  V30 BEGIN BOND
M  V30 1 2 1 2
M  V30 2 1 2 3
M  V30 3 1 3 4
M  V30 4 2 4 5
M  V30 5 1 4 6
M  V30 6 2 6 7
M  V30 7 1 7 8
M  V30 8 1 8 9
M  V30 9 2 9 10
M  V30 10 1 10 11
M  V30 11 1 10 12
M  V30 12 2 12 13
M  V30 13 1 13 14
M  V30 14 2 14 15
M  V30 15 1 15 16
M  V30 16 2 8 17
M  V30 17 1 17 18
M  V30 18 2 18 19
M  V30 19 1 19 20
M  V30 20 2 20 21
M  V30 21 1 21 22
M  V30 22 1 22 23
M  V30 23 2 22 24
M  V30 24 1 24 25
M  V30 25 2 25 26
M  V30 26 1 26 27
M  V30 27 1 27 28
M  V30 28 1 28 29
M  V30 29 1 29 30
M  V30 30 2 30 31
M  V30 31 1 30 32
M  V30 32 1 32 33
M  V30 33 2 33 34
M  V30 34 1 34 35
M  V30 35 2 35 36
M  V30 36 1 7 2
M  V30 37 1 15 9
M  V30 38 1 27 18
M  V30 39 1 36 32
M  V30 40 1 19 6
M  V30 41 1 26 20
M  V30 42 1 3 37
M  V30 43 1 12 38
M  V30 44 1 13 39
M  V30 45 1 14 40
M  V30 46 1 17 41
M  V30 47 1 21 42
M  V30 48 1 23 43
M  V30 49 1 24 44
M  V30 50 1 25 45
M  V30 51 1 28 46
M  V30 52 1 28 47
M  V30 53 1 29 48
M  V30 54 1 29 49
M  V30 55 1 33 50
M  V30 56 1 34 51
M  V30 57 1 36 52
M  V30 END BOND
M  V30 END CTAB
M  END
>  <Dataset>  (130) 
ChEMBL_Kinases

>  <Ligand_Instance>  (130) 
nan

>  <PDB_ID>  (130) 
nan

>  <Standardized_SMILES>  (130) 
O=C1NC(=O)c2c1c(-c1c(Cl)cccc1Cl)cc1c2c2cc(O)ccc2n1CCC(=O)n1ccnc1

>  <Name>  (130) 
nan

>  <Pocket>  (130) 
nan

>  <ATP_Site>  (130) 
nan

>  <Peripheral>  (130) 
nan

>  <Num_H_Atoms_ProtBoundConf>  (130) 
nan

>  <Num_Resolved_Atoms>  (130) 
nan

>  <Num_Not_Resolved_Atoms>  (130) 
nan

$$$$
CHEMBL4867281
     RDKit          3D

  0  0  0  0  0  0  0  0  0  0999 V3000
M  V30 BEGIN CTAB
M  V30 COUNTS 48 50 0 0 0
M  V30 BEGIN ATOM
M  V30 1 C 3.597680 -1.780560 2.589999 0
M  V30 2 O 4.723675 -1.568091 1.846388 0
M  V30 3 C 4.556634 -0.626774 0.862563 0
M  V30 4 C 3.507520 -1.034683 -0.109954 0 CFG=2
M  V30 5 C 3.962305 -2.361387 -0.715461 0
M  V30 6 N 3.432791 -0.105260 -1.245808 0
M  V30 7 C 4.124963 -0.124819 -2.404095 0
M  V30 8 N 3.687667 0.949463 -3.116202 0
M  V30 9 N 2.783629 1.569993 -2.412373 0
M  V30 10 C 2.588395 0.939574 -1.220992 0
M  V30 11 C 1.637879 1.392962 -0.210441 0
M  V30 12 C 1.918493 2.576053 0.475254 0
M  V30 13 C 1.038490 3.050623 1.451871 0
M  V30 14 C -0.111295 2.331344 1.727094 0
M  V30 15 C -0.368501 1.161351 1.034631 0
M  V30 16 N -1.506115 0.321948 1.211531 0
M  V30 17 C -2.734352 0.439313 0.507508 0
M  V30 18 O -2.842463 1.355296 -0.346334 0
M  V30 19 C -3.856997 -0.457340 0.741826 0
M  V30 20 C -5.079435 -0.416544 0.107603 0
M  V30 21 N -5.884145 -1.389332 0.564129 0
M  V30 22 C -7.239272 -1.795450 0.255681 0
M  V30 23 N -5.211380 -2.046954 1.468527 0
M  V30 24 C -3.980719 -1.519264 1.609728 0
M  V30 25 O -3.001267 -1.967044 2.480816 0
M  V30 26 C -3.140858 -3.049075 3.358555 0
M  V30 27 N 0.518127 0.765915 0.112467 0
M  V30 28 H 3.873702 -2.543009 3.368595 0
M  V30 29 H 3.276982 -0.872954 3.140893 0
M  V30 30 H 2.707355 -2.146827 2.016273 0
M  V30 31 H 5.511840 -0.540662 0.283666 0
M  V30 32 H 4.325388 0.334204 1.381324 0
M  V30 33 H 2.518144 -1.140278 0.356805 0
M  V30 34 H 5.034258 -2.233754 -0.971295 0
M  V30 35 H 3.872551 -3.193001 0.014868 0
M  V30 36 H 3.433268 -2.585011 -1.661135 0
M  V30 37 H 4.872827 -0.888286 -2.646236 0
M  V30 38 H 2.796452 3.186826 0.311073 0
M  V30 39 H 1.223163 3.971410 2.009408 0
M  V30 40 H -0.850587 2.619435 2.464958 0
M  V30 41 H -1.358808 -0.411827 1.925236 0
M  V30 42 H -5.422726 0.275371 -0.665459 0
M  V30 43 H -7.788005 -1.811129 1.234075 0
M  V30 44 H -7.698400 -0.980041 -0.333739 0
M  V30 45 H -7.285105 -2.775656 -0.251833 0
M  V30 46 H -4.154229 -3.144612 3.798518 0
M  V30 47 H -2.392027 -2.872069 4.182672 0
M  V30 48 H -2.873471 -4.026599 2.911549 0
M  V30 END ATOM
M  V30 BEGIN BOND
M  V30 1 1 1 2
M  V30 2 1 2 3
M  V30 3 1 3 4
M  V30 4 1 4 5
M  V30 5 1 4 6
M  V30 6 1 6 7
M  V30 7 2 7 8
M  V30 8 1 8 9
M  V30 9 2 9 10
M  V30 10 1 10 11
M  V30 11 2 11 12
M  V30 12 1 12 13
M  V30 13 2 13 14
M  V30 14 1 14 15
M  V30 15 1 15 16
M  V30 16 1 16 17
M  V30 17 2 17 18
M  V30 18 1 17 19
M  V30 19 2 19 20
M  V30 20 1 20 21
M  V30 21 1 21 22
M  V30 22 1 21 23
M  V30 23 2 23 24
M  V30 24 1 24 25
M  V30 25 1 25 26
M  V30 26 2 15 27
M  V30 27 1 10 6
M  V30 28 1 27 11
M  V30 29 1 24 19
M  V30 30 1 1 28
M  V30 31 1 1 29
M  V30 32 1 1 30
M  V30 33 1 3 31
M  V30 34 1 3 32
M  V30 35 1 4 33 CFG=1
M  V30 36 1 5 34
M  V30 37 1 5 35
M  V30 38 1 5 36
M  V30 39 1 7 37
M  V30 40 1 12 38
M  V30 41 1 13 39
M  V30 42 1 14 40
M  V30 43 1 16 41
M  V30 44 1 20 42
M  V30 45 1 22 43
M  V30 46 1 22 44
M  V30 47 1 22 45
M  V30 48 1 26 46
M  V30 49 1 26 47
M  V30 50 1 26 48
M  V30 END BOND
M  V30 END CTAB
M  END
>  <Dataset>  (131) 
ChEMBL_Kinases

>  <Ligand_Instance>  (131) 
nan

>  <PDB_ID>  (131) 
nan

>  <Standardized_SMILES>  (131) 
COC[C@H](C)n1cnnc1-c1cccc(NC(=O)c2cn(C)nc2OC)n1

>  <Name>  (131) 
nan

>  <Pocket>  (131) 
nan

>  <ATP_Site>  (131) 
nan

>  <Peripheral>  (131) 
nan

>  <Num_H_Atoms_ProtBoundConf>  (131) 
nan

>  <Num_Resolved_Atoms>  (131) 
nan

>  <Num_Not_Resolved_Atoms>  (131) 
nan

$$$$
CHEMBL3977694
     RDKit          3D

  0  0  0  0  0  0  0  0  0  0999 V3000
M  V30 BEGIN CTAB
M  V30 COUNTS 63 68 0 0 0
M  V30 BEGIN ATOM
M  V30 1 O -0.946621 -2.938222 -2.924614 0
M  V30 2 C 0.111593 -3.615667 -2.828074 0
M  V30 3 N 0.921263 -3.547480 -1.660461 0
M  V30 4 C 0.564316 -2.711471 -0.559817 0
M  V30 5 N 1.060121 -1.444418 -0.614979 0
M  V30 6 C 0.661170 -0.753575 0.467596 0
M  V30 7 C 0.842274 0.529941 0.945554 0
M  V30 8 C 0.265772 0.916613 2.138697 0
M  V30 9 C 0.409239 2.260755 2.726128 0
M  V30 10 O 1.243375 3.081564 1.935755 0
M  V30 11 C 1.033035 2.219694 4.056946 0
M  V30 12 C 2.269291 1.688527 4.357865 0
M  V30 13 C 2.695143 1.728690 5.678637 0
M  V30 14 C 1.887674 2.291202 6.658023 0
M  V30 15 C 0.648104 2.812060 6.291241 0
M  V30 16 C 0.204842 2.783592 4.988148 0
M  V30 17 C -0.976868 3.218833 4.257622 0
M  V30 18 O -1.917547 3.783966 4.900483 0
M  V30 19 N -0.853989 2.909426 2.854155 0
M  V30 20 C -1.920989 3.285782 1.955115 0
M  V30 21 C -2.946970 2.222488 1.817825 0
M  V30 22 C -4.016873 2.241725 2.721350 0
M  V30 23 C -5.032016 1.305832 2.687525 0
M  V30 24 C -5.031823 0.308374 1.755781 0
M  V30 25 C -3.987505 0.272610 0.857938 0
M  V30 26 C -2.971021 1.204152 0.886606 0
M  V30 27 C -0.513367 0.036226 2.899658 0
M  V30 28 C -0.704093 -1.266358 2.426154 0
M  V30 29 C -0.108009 -1.621363 1.219627 0
M  V30 30 N -0.151752 -2.801614 0.575983 0
M  V30 31 N 0.624230 -4.509360 -3.835871 0
M  V30 32 C 1.828646 -5.343169 -3.843029 0
M  V30 33 C 2.245068 -5.483802 -5.290156 0
M  V30 34 C 2.018213 -4.162503 -6.028717 0
M  V30 35 C 0.535782 -3.957775 -6.234488 0
M  V30 36 C -0.169820 -4.610691 -5.045303 0
M  V30 37 H 1.804258 -4.087626 -1.532971 0
M  V30 38 H 1.429603 1.229295 0.393603 0
M  V30 39 H 2.151434 2.684567 1.932960 0
M  V30 40 H 2.928823 1.242339 3.630459 0
M  V30 41 H 3.658582 1.328273 5.987304 0
M  V30 42 H 2.225445 2.319759 7.688410 0
M  V30 43 H 0.001562 3.254953 7.034331 0
M  V30 44 H -1.529668 3.504759 0.925963 0
M  V30 45 H -2.405452 4.246558 2.275084 0
M  V30 46 H -4.139152 2.971498 3.503627 0
M  V30 47 H -5.863064 1.308043 3.377473 0
M  V30 48 H -5.805843 -0.443845 1.693994 0
M  V30 49 H -3.956026 -0.508747 0.102119 0
M  V30 50 H -2.120983 1.214925 0.192996 0
M  V30 51 H -0.972774 0.319435 3.835419 0
M  V30 52 H -1.295816 -1.991297 2.970011 0
M  V30 53 H -0.598824 -3.704122 0.771372 0
M  V30 54 H 1.490062 -6.366846 -3.508956 0
M  V30 55 H 2.616811 -4.936031 -3.209150 0
M  V30 56 H 1.615705 -6.231642 -5.812038 0
M  V30 57 H 3.307354 -5.794399 -5.393616 0
M  V30 58 H 2.567298 -4.270894 -6.985089 0
M  V30 59 H 2.395745 -3.317760 -5.419871 0
M  V30 60 H 0.296855 -2.888892 -6.202176 0
M  V30 61 H 0.202986 -4.453255 -7.190304 0
M  V30 62 H -1.192744 -4.208209 -4.941378 0
M  V30 63 H -0.287533 -5.687990 -5.294185 0
M  V30 END ATOM
M  V30 BEGIN BOND
M  V30 1 2 1 2
M  V30 2 1 2 3
M  V30 3 1 3 4
M  V30 4 2 4 5
M  V30 5 1 5 6
M  V30 6 2 6 7
M  V30 7 1 7 8
M  V30 8 1 8 9
M  V30 9 1 9 10
M  V30 10 1 9 11
M  V30 11 2 11 12
M  V30 12 1 12 13
M  V30 13 2 13 14
M  V30 14 1 14 15
M  V30 15 2 15 16
M  V30 16 1 16 17
M  V30 17 2 17 18
M  V30 18 1 17 19
M  V30 19 1 19 20
M  V30 20 1 20 21
M  V30 21 2 21 22
M  V30 22 1 22 23
M  V30 23 2 23 24
M  V30 24 1 24 25
M  V30 25 2 25 26
M  V30 26 2 8 27
M  V30 27 1 27 28
M  V30 28 2 28 29
M  V30 29 1 29 30
M  V30 30 1 2 31
M  V30 31 1 31 32
M  V30 32 1 32 33
M  V30 33 1 33 34
M  V30 34 1 34 35
M  V30 35 1 35 36
M  V30 36 1 30 4
M  V30 37 1 36 31
M  V30 38 1 29 6
M  V30 39 1 19 9
M  V30 40 1 26 21
M  V30 41 1 16 11
M  V30 42 1 3 37
M  V30 43 1 7 38
M  V30 44 1 10 39
M  V30 45 1 12 40
M  V30 46 1 13 41
M  V30 47 1 14 42
M  V30 48 1 15 43
M  V30 49 1 20 44
M  V30 50 1 20 45
M  V30 51 1 22 46
M  V30 52 1 23 47
M  V30 53 1 24 48
M  V30 54 1 25 49
M  V30 55 1 26 50
M  V30 56 1 27 51
M  V30 57 1 28 52
M  V30 58 1 30 53
M  V30 59 1 32 54
M  V30 60 1 32 55
M  V30 61 1 33 56
M  V30 62 1 33 57
M  V30 63 1 34 58
M  V30 64 1 34 59
M  V30 65 1 35 60
M  V30 66 1 35 61
M  V30 67 1 36 62
M  V30 68 1 36 63
M  V30 END BOND
M  V30 END CTAB
M  END
>  <Dataset>  (132) 
ChEMBL_Kinases

>  <Ligand_Instance>  (132) 
nan

>  <PDB_ID>  (132) 
nan

>  <Standardized_SMILES>  (132) 
O=C(Nc1nc2cc(C3(O)c4ccccc4C(=O)N3Cc3ccccc3)ccc2[nH]1)N1CCCCC1

>  <Name>  (132) 
nan

>  <Pocket>  (132) 
nan

>  <ATP_Site>  (132) 
nan

>  <Peripheral>  (132) 
nan

>  <Num_H_Atoms_ProtBoundConf>  (132) 
nan

>  <Num_Resolved_Atoms>  (132) 
nan

>  <Num_Not_Resolved_Atoms>  (132) 
nan

$$$$
CHEMBL3977678
     RDKit          3D

  0  0  0  0  0  0  0  0  0  0999 V3000
M  V30 BEGIN CTAB
M  V30 COUNTS 52 55 0 0 0
M  V30 BEGIN ATOM
M  V30 1 O 3.201726 -3.038427 0.614892 0
M  V30 2 C 2.199727 -2.576340 1.193682 0
M  V30 3 O 2.086832 -3.003524 2.528493 0
M  V30 4 C 0.999082 -1.688251 0.970900 0 CFG=2
M  V30 5 C 1.114210 -0.500182 1.884624 0
M  V30 6 C 2.345670 0.224736 1.572566 0
M  V30 7 C 3.613809 0.042616 2.110912 0
M  V30 8 C 4.646509 0.842182 1.697136 0
M  V30 9 C 4.475629 1.837608 0.753833 0
M  V30 10 C 3.203002 1.993297 0.240532 0
M  V30 11 N 2.954267 3.025037 -0.726902 0
M  V30 12 C 2.215532 4.022383 0.104433 0
M  V30 13 N 1.065164 4.214942 0.073601 0
M  V30 14 C 0.302728 5.032067 0.723931 0
M  V30 15 C 0.939652 5.810543 1.599238 0
M  V30 16 S 2.780146 5.269892 1.422079 0
M  V30 17 N 2.207897 1.208939 0.648961 0
M  V30 18 C -0.279293 -2.432612 1.415558 0
M  V30 19 C -0.651652 -3.267268 0.199463 0
M  V30 20 C -1.427922 -2.265403 -0.702520 0 CFG=1
M  V30 21 O -2.573790 -1.940674 0.055218 0
M  V30 22 C -3.722150 -2.690711 -0.006433 0
M  V30 23 C -4.781684 -2.191530 0.741847 0
M  V30 24 C -6.015644 -2.853466 0.777561 0
M  V30 25 C -6.062470 -4.018638 0.013616 0
M  V30 26 C -5.057377 -4.557235 -0.737870 0
M  V30 27 Cl -5.233974 -6.024033 -1.661197 0
M  V30 28 C -3.843708 -3.871422 -0.750573 0
M  V30 29 C -0.539772 -1.084958 -0.876842 0
M  V30 30 C 0.903952 -1.340922 -0.475292 0
M  V30 31 H 2.782027 -3.620765 2.975466 0
M  V30 32 H 0.230507 0.173929 1.845817 0
M  V30 33 H 1.117855 -0.912828 2.922172 0
M  V30 34 H 3.692768 -0.738356 2.826422 0
M  V30 35 H 5.636677 0.676639 2.141528 0
M  V30 36 H 5.317053 2.469665 0.442773 0
M  V30 37 H 3.120717 3.232591 -1.710513 0
M  V30 38 H -0.667932 5.445865 0.957278 0
M  V30 39 H 1.259005 6.650814 2.482594 0
M  V30 40 H -1.044010 -1.625502 1.590432 0
M  V30 41 H -0.086954 -3.031307 2.318884 0
M  V30 42 H 0.246441 -3.616032 -0.323842 0
M  V30 43 H -1.302819 -4.101407 0.426711 0
M  V30 44 H -1.684160 -2.818451 -1.617972 0
M  V30 45 H -4.755425 -1.294778 1.330551 0
M  V30 46 H -6.883259 -2.535444 1.329986 0
M  V30 47 H -6.996958 -4.562057 0.005189 0
M  V30 48 H -3.013678 -4.246095 -1.313845 0
M  V30 49 H -0.912513 -0.274234 -0.192500 0
M  V30 50 H -0.590710 -0.770629 -1.960300 0
M  V30 51 H 1.483065 -0.430204 -0.779234 0
M  V30 52 H 1.350544 -2.146602 -1.119358 0
M  V30 END ATOM
M  V30 BEGIN BOND
M  V30 1 2 1 2
M  V30 2 1 2 3
M  V30 3 1 2 4
M  V30 4 1 4 5 CFG=1
M  V30 5 1 5 6
M  V30 6 2 6 7
M  V30 7 1 7 8
M  V30 8 2 8 9
M  V30 9 1 9 10
M  V30 10 1 10 11
M  V30 11 1 11 12
M  V30 12 2 12 13
M  V30 13 1 13 14
M  V30 14 2 14 15
M  V30 15 1 15 16
M  V30 16 2 10 17
M  V30 17 1 4 18
M  V30 18 1 18 19
M  V30 19 1 19 20
M  V30 20 1 20 21
M  V30 21 1 21 22
M  V30 22 2 22 23
M  V30 23 1 23 24
M  V30 24 2 24 25
M  V30 25 1 25 26
M  V30 26 1 26 27
M  V30 27 2 26 28
M  V30 28 1 20 29
M  V30 29 1 29 30
M  V30 30 1 30 4
M  V30 31 1 17 6
M  V30 32 1 28 22
M  V30 33 1 16 12
M  V30 34 1 3 31
M  V30 35 1 5 32
M  V30 36 1 5 33
M  V30 37 1 7 34
M  V30 38 1 8 35
M  V30 39 1 9 36
M  V30 40 1 11 37
M  V30 41 1 14 38
M  V30 42 1 15 39
M  V30 43 1 18 40
M  V30 44 1 18 41
M  V30 45 1 19 42
M  V30 46 1 19 43
M  V30 47 1 20 44 CFG=3
M  V30 48 1 23 45
M  V30 49 1 24 46
M  V30 50 1 25 47
M  V30 51 1 28 48
M  V30 52 1 29 49
M  V30 53 1 29 50
M  V30 54 1 30 51
M  V30 55 1 30 52
M  V30 END BOND
M  V30 END CTAB
M  END
>  <Dataset>  (133) 
ChEMBL_Kinases

>  <Ligand_Instance>  (133) 
nan

>  <PDB_ID>  (133) 
nan

>  <Standardized_SMILES>  (133) 
O=C(O)[C@]1(Cc2cccc(Nc3nccs3)n2)CC[C@@H](Oc2cccc(Cl)c2)CC1

>  <Name>  (133) 
nan

>  <Pocket>  (133) 
nan

>  <ATP_Site>  (133) 
nan

>  <Peripheral>  (133) 
nan

>  <Num_H_Atoms_ProtBoundConf>  (133) 
nan

>  <Num_Resolved_Atoms>  (133) 
nan

>  <Num_Not_Resolved_Atoms>  (133) 
nan

$$$$
CHEMBL397727
     RDKit          3D

  0  0  0  0  0  0  0  0  0  0999 V3000
M  V30 BEGIN CTAB
M  V30 COUNTS 47 51 0 0 0
M  V30 BEGIN ATOM
M  V30 1 C -0.425492 -0.643931 -2.341303 0
M  V30 2 O -0.070918 0.321020 -1.404405 0
M  V30 3 C 1.093620 1.028048 -1.314449 0
M  V30 4 N 2.200967 0.988722 -2.092264 0
M  V30 5 C 3.254366 1.790551 -1.814017 0
M  V30 6 N 4.432682 1.867273 -2.497840 0
M  V30 7 C 5.172878 2.792128 -1.863835 0
M  V30 8 C 4.510973 3.326982 -0.778534 0
M  V30 9 C 3.278282 2.684177 -0.745634 0
M  V30 10 C 2.147892 2.740154 0.067577 0
M  V30 11 C 1.076912 1.898132 -0.247844 0
M  V30 12 C -0.033445 2.079779 0.704600 0
M  V30 13 O -0.751356 2.985721 0.203739 0
M  V30 14 N -0.048360 1.260727 1.880799 0
M  V30 15 C 0.863690 0.232783 2.342922 0
M  V30 16 C 0.186710 -1.140385 2.412325 0
M  V30 17 C -1.265645 -0.935188 2.476001 0
M  V30 18 C -2.000666 0.231538 2.649365 0
M  V30 19 C -3.337421 -0.122791 2.635834 0
M  V30 20 N -3.383153 -1.456132 2.459924 0
M  V30 21 N -2.158550 -1.951859 2.363386 0
M  V30 22 C -2.102178 -3.362993 2.174595 0
M  V30 23 C -1.845190 -3.961093 0.955954 0
M  V30 24 C -1.821764 -5.344535 0.926370 0
M  V30 25 C -2.034419 -6.156507 2.014929 0
M  V30 26 C -2.291105 -5.548701 3.231499 0
M  V30 27 C -2.320162 -4.159559 3.288250 0
M  V30 28 Cl -2.648373 -3.413130 4.845750 0
M  V30 29 C -1.173697 1.481214 2.794585 0
M  V30 30 H -0.810763 -1.580948 -1.854436 0
M  V30 31 H 0.478407 -0.952463 -2.906012 0
M  V30 32 H -1.155781 -0.247625 -3.088218 0
M  V30 33 H 4.718888 1.322156 -3.347888 0
M  V30 34 H 6.168640 3.076093 -2.175862 0
M  V30 35 H 4.803041 4.075100 -0.063490 0
M  V30 36 H 2.193221 3.428895 0.873271 0
M  V30 37 H 1.150322 0.551661 3.387821 0
M  V30 38 H 1.797495 0.223611 1.775115 0
M  V30 39 H 0.594917 -1.636126 3.327484 0
M  V30 40 H 0.519560 -1.749252 1.554963 0
M  V30 41 H -4.058312 0.664691 2.758486 0
M  V30 42 H -1.676709 -3.349832 0.095460 0
M  V30 43 H -1.621666 -5.834418 -0.021012 0
M  V30 44 H -2.009530 -7.236078 1.959563 0
M  V30 45 H -2.468295 -6.148909 4.133831 0
M  V30 46 H -0.785104 1.564483 3.827481 0
M  V30 47 H -1.755326 2.372545 2.556761 0
M  V30 END ATOM
M  V30 BEGIN BOND
M  V30 1 1 1 2
M  V30 2 1 2 3
M  V30 3 2 3 4
M  V30 4 1 4 5
M  V30 5 1 5 6
M  V30 6 1 6 7
M  V30 7 2 7 8
M  V30 8 1 8 9
M  V30 9 1 9 10
M  V30 10 2 10 11
M  V30 11 1 11 12
M  V30 12 2 12 13
M  V30 13 1 12 14
M  V30 14 1 14 15
M  V30 15 1 15 16
M  V30 16 1 16 17
M  V30 17 2 17 18
M  V30 18 1 18 19
M  V30 19 2 19 20
M  V30 20 1 20 21
M  V30 21 1 21 22
M  V30 22 2 22 23
M  V30 23 1 23 24
M  V30 24 2 24 25
M  V30 25 1 25 26
M  V30 26 2 26 27
M  V30 27 1 27 28
M  V30 28 1 18 29
M  V30 29 1 11 3
M  V30 30 1 29 14
M  V30 31 2 9 5
M  V30 32 1 21 17
M  V30 33 1 27 22
M  V30 34 1 1 30
M  V30 35 1 1 31
M  V30 36 1 1 32
M  V30 37 1 6 33
M  V30 38 1 7 34
M  V30 39 1 8 35
M  V30 40 1 10 36
M  V30 41 1 15 37
M  V30 42 1 15 38
M  V30 43 1 16 39
M  V30 44 1 16 40
M  V30 45 1 19 41
M  V30 46 1 23 42
M  V30 47 1 24 43
M  V30 48 1 25 44
M  V30 49 1 26 45
M  V30 50 1 29 46
M  V30 51 1 29 47
M  V30 END BOND
M  V30 END CTAB
M  END
>  <Dataset>  (134) 
ChEMBL_Kinases

>  <Ligand_Instance>  (134) 
nan

>  <PDB_ID>  (134) 
nan

>  <Standardized_SMILES>  (134) 
COc1nc2[nH]ccc2cc1C(=O)N1CCc2c(cnn2-c2ccccc2Cl)C1

>  <Name>  (134) 
nan

>  <Pocket>  (134) 
nan

>  <ATP_Site>  (134) 
nan

>  <Peripheral>  (134) 
nan

>  <Num_H_Atoms_ProtBoundConf>  (134) 
nan

>  <Num_Resolved_Atoms>  (134) 
nan

>  <Num_Not_Resolved_Atoms>  (134) 
nan

$$$$
CHEMBL90585
     RDKit          3D

  0  0  0  0  0  0  0  0  0  0999 V3000
M  V30 BEGIN CTAB
M  V30 COUNTS 31 33 0 0 0
M  V30 BEGIN ATOM
M  V30 1 O -1.582130 -2.874751 -0.041066 0
M  V30 2 C -1.134688 -1.860753 0.561756 0
M  V30 3 C -0.012330 -1.042454 0.089121 0
M  V30 4 C 0.891107 -1.681681 -0.642061 0
M  V30 5 C 2.068606 -1.020496 -1.185022 0
M  V30 6 C 2.919467 -0.213832 -0.434119 0
M  V30 7 C 3.981670 0.355675 -1.144342 0
M  V30 8 N 4.184508 0.148192 -2.468952 0
M  V30 9 C 3.327715 -0.650226 -3.171088 0
M  V30 10 C 2.263922 -1.243518 -2.546502 0
M  V30 11 C 0.009537 0.402053 0.419382 0
M  V30 12 C -0.017819 0.503756 1.933097 0
M  V30 13 C -1.169934 -0.304099 2.407436 0
M  V30 14 C -1.742986 0.122291 3.595407 0
M  V30 15 C -2.814016 -0.542170 4.152564 0
M  V30 16 C -3.380653 -1.657176 3.577822 0
M  V30 17 C -2.804524 -2.069513 2.401440 0
M  V30 18 C -1.745265 -1.419881 1.841493 0
M  V30 19 H 0.794636 -2.736694 -0.871336 0
M  V30 20 H 2.762056 -0.063496 0.624181 0
M  V30 21 H 4.612440 0.976729 -0.504240 0
M  V30 22 H 3.581194 -0.748356 -4.219133 0
M  V30 23 H 1.628750 -1.860220 -3.157336 0
M  V30 24 H -1.010148 0.786959 0.070960 0
M  V30 25 H 0.807389 0.979322 -0.053541 0
M  V30 26 H 0.910073 0.009861 2.318275 0
M  V30 27 H -0.095969 1.560475 2.268540 0
M  V30 28 H -1.399573 0.979267 4.145863 0
M  V30 29 H -3.271244 -0.208693 5.091311 0
M  V30 30 H -4.213845 -2.205717 3.975318 0
M  V30 31 H -3.193310 -2.945166 1.880234 0
M  V30 END ATOM
M  V30 BEGIN BOND
M  V30 1 2 1 2
M  V30 2 1 2 3
M  V30 3 2 3 4
M  V30 4 1 4 5
M  V30 5 2 5 6
M  V30 6 1 6 7
M  V30 7 2 7 8
M  V30 8 1 8 9
M  V30 9 2 9 10
M  V30 10 1 3 11
M  V30 11 1 11 12
M  V30 12 1 12 13
M  V30 13 2 13 14
M  V30 14 1 14 15
M  V30 15 2 15 16
M  V30 16 1 16 17
M  V30 17 2 17 18
M  V30 18 1 18 2
M  V30 19 1 10 5
M  V30 20 1 18 13
M  V30 21 1 4 19
M  V30 22 1 6 20
M  V30 23 1 7 21
M  V30 24 1 9 22
M  V30 25 1 10 23
M  V30 26 1 11 24
M  V30 27 1 11 25
M  V30 28 1 12 26
M  V30 29 1 12 27
M  V30 30 1 14 28
M  V30 31 1 15 29
M  V30 32 1 16 30
M  V30 33 1 17 31
M  V30 END BOND
M  V30 END CTAB
M  END
>  <Dataset>  (135) 
ChEMBL_Kinases

>  <Ligand_Instance>  (135) 
nan

>  <PDB_ID>  (135) 
nan

>  <Standardized_SMILES>  (135) 
O=C1/C(=C/c2ccncc2)CCc2ccccc21

>  <Name>  (135) 
nan

>  <Pocket>  (135) 
nan

>  <ATP_Site>  (135) 
nan

>  <Peripheral>  (135) 
nan

>  <Num_H_Atoms_ProtBoundConf>  (135) 
nan

>  <Num_Resolved_Atoms>  (135) 
nan

>  <Num_Not_Resolved_Atoms>  (135) 
nan

$$$$
CHEMBL486868
     RDKit          3D

  0  0  0  0  0  0  0  0  0  0999 V3000
M  V30 BEGIN CTAB
M  V30 COUNTS 51 55 0 0 0
M  V30 BEGIN ATOM
M  V30 1 C 2.410424 -1.872282 3.756396 0
M  V30 2 N 2.274613 -1.647104 2.296841 0
M  V30 3 C 2.620133 -2.925531 1.644993 0
M  V30 4 C 3.237987 -0.633621 1.891727 0
M  V30 5 C 2.937851 -0.204099 0.485052 0
M  V30 6 N 1.603113 0.390218 0.477514 0
M  V30 7 C 1.431164 1.720399 0.766611 0
M  V30 8 C 2.374359 2.701887 1.112240 0
M  V30 9 C 2.081220 4.020437 1.385386 0
M  V30 10 C 0.743084 4.352875 1.299353 0
M  V30 11 O 0.418686 5.696746 1.574479 0
M  V30 12 C -0.197666 3.415858 0.964712 0
M  V30 13 C 0.113415 2.115607 0.697853 0
M  V30 14 C -0.558545 0.982738 0.350733 0
M  V30 15 C -1.867079 0.718961 0.123291 0
M  V30 16 C -2.295831 -0.537526 -0.229392 0
M  V30 17 C -1.369363 -1.581737 -0.361432 0
M  V30 18 C -1.815883 -2.917068 -0.738414 0
M  V30 19 C -1.919124 -3.428786 -2.016360 0
M  V30 20 C -2.354354 -4.703860 -2.277887 0
M  V30 21 C -2.699067 -5.491908 -1.188349 0
M  V30 22 C -2.625049 -5.058376 0.121387 0
M  V30 23 C -2.179224 -3.766870 0.297845 0
M  V30 24 Cl -2.085442 -3.219056 1.960856 0
M  V30 25 C -0.043819 -1.294607 -0.125754 0
M  V30 26 C 0.357949 -0.030644 0.226191 0
M  V30 27 C -3.744867 -0.619681 -0.430911 0
M  V30 28 O -4.430996 -1.617902 -0.755445 0
M  V30 29 N -4.194302 0.706549 -0.171411 0
M  V30 30 C -3.071243 1.505352 0.159243 0
M  V30 31 O -3.298737 2.693710 0.413505 0
M  V30 32 H 1.943065 -1.037563 4.310566 0
M  V30 33 H 1.820539 -2.785110 3.967334 0
M  V30 34 H 3.438548 -2.045279 4.062066 0
M  V30 35 H 3.568927 -3.229811 2.160477 0
M  V30 36 H 1.808175 -3.624470 1.898421 0
M  V30 37 H 2.733530 -2.807408 0.576513 0
M  V30 38 H 3.134040 0.246345 2.578506 0
M  V30 39 H 4.279439 -0.996764 2.018309 0
M  V30 40 H 3.694759 0.547499 0.145320 0
M  V30 41 H 2.967059 -1.019239 -0.234320 0
M  V30 42 H 3.452717 2.482173 1.192373 0
M  V30 43 H 2.830023 4.747901 1.648441 0
M  V30 44 H 0.503081 6.361170 0.789695 0
M  V30 45 H -1.186961 3.794925 0.931681 0
M  V30 46 H -1.635263 -2.758500 -2.811742 0
M  V30 47 H -2.420964 -5.065933 -3.294355 0
M  V30 48 H -3.054375 -6.519622 -1.346796 0
M  V30 49 H -2.908974 -5.722271 0.911676 0
M  V30 50 H 0.654010 -2.095264 -0.242139 0
M  V30 51 H -5.227081 0.929834 -0.248221 0
M  V30 END ATOM
M  V30 BEGIN BOND
M  V30 1 1 1 2
M  V30 2 1 2 3
M  V30 3 1 2 4
M  V30 4 1 4 5
M  V30 5 1 5 6
M  V30 6 1 6 7
M  V30 7 2 7 8
M  V30 8 1 8 9
M  V30 9 2 9 10
M  V30 10 1 10 11
M  V30 11 1 10 12
M  V30 12 2 12 13
M  V30 13 1 13 14
M  V30 14 2 14 15
M  V30 15 1 15 16
M  V30 16 2 16 17
M  V30 17 1 17 18
M  V30 18 2 18 19
M  V30 19 1 19 20
M  V30 20 2 20 21
M  V30 21 1 21 22
M  V30 22 2 22 23
M  V30 23 1 23 24
M  V30 24 1 17 25
M  V30 25 2 25 26
M  V30 26 1 16 27
M  V30 27 2 27 28
M  V30 28 1 27 29
M  V30 29 1 29 30
M  V30 30 2 30 31
M  V30 31 1 26 6
M  V30 32 1 13 7
M  V30 33 1 26 14
M  V30 34 1 30 15
M  V30 35 1 23 18
M  V30 36 1 1 32
M  V30 37 1 1 33
M  V30 38 1 1 34
M  V30 39 1 3 35
M  V30 40 1 3 36
M  V30 41 1 3 37
M  V30 42 1 4 38
M  V30 43 1 4 39
M  V30 44 1 5 40
M  V30 45 1 5 41
M  V30 46 1 8 42
M  V30 47 1 9 43
M  V30 48 1 11 44
M  V30 49 1 12 45
M  V30 50 1 19 46
M  V30 51 1 20 47
M  V30 52 1 21 48
M  V30 53 1 22 49
M  V30 54 1 25 50
M  V30 55 1 29 51
M  V30 END BOND
M  V30 END CTAB
M  END
>  <Dataset>  (136) 
ChEMBL_Kinases

>  <Ligand_Instance>  (136) 
nan

>  <PDB_ID>  (136) 
nan

>  <Standardized_SMILES>  (136) 
CN(C)CCn1c2ccc(O)cc2c2c3c(c(-c4ccccc4Cl)cc21)C(=O)NC3=O

>  <Name>  (136) 
nan

>  <Pocket>  (136) 
nan

>  <ATP_Site>  (136) 
nan

>  <Peripheral>  (136) 
nan

>  <Num_H_Atoms_ProtBoundConf>  (136) 
nan

>  <Num_Resolved_Atoms>  (136) 
nan

>  <Num_Not_Resolved_Atoms>  (136) 
nan

$$$$
CHEMBL4868682
     RDKit          3D

  0  0  0  0  0  0  0  0  0  0999 V3000
M  V30 BEGIN CTAB
M  V30 COUNTS 68 72 0 0 0
M  V30 BEGIN ATOM
M  V30 1 C 5.239505 -1.726676 4.032736 0
M  V30 2 O 3.935728 -1.414491 3.674216 0
M  V30 3 C 3.529378 -0.680020 2.568994 0
M  V30 4 C 4.478252 -0.190470 1.692321 0
M  V30 5 C 4.123452 0.544639 0.577861 0
M  V30 6 C 2.794974 0.825754 0.287668 0
M  V30 7 C 1.893112 0.314858 1.191582 0
M  V30 8 C 2.186563 -0.422612 2.317576 0
M  V30 9 N 1.170686 -0.897823 3.230397 0
M  V30 10 C -0.146389 -0.581762 2.828370 0
M  V30 11 N -0.406194 0.719894 2.973762 0
M  V30 12 C -1.568976 1.309893 2.668431 0
M  V30 13 C -2.492087 0.411006 2.176613 0
M  V30 14 C -3.770256 0.935948 1.790462 0
M  V30 15 N -4.030224 2.340857 1.908157 0
M  V30 16 O -4.931632 0.977440 1.373923 0
M  V30 17 C -2.319494 -0.943081 1.992232 0
M  V30 18 N -3.354496 -1.744938 1.505056 0
M  V30 19 C -4.235721 -2.312223 0.621458 0
M  V30 20 C -5.579683 -2.105480 0.914102 0
M  V30 21 C -6.623200 -2.581649 0.150725 0
M  V30 22 C -6.220221 -3.295102 -0.950322 0
M  V30 23 C -4.900510 -3.508183 -1.252614 0
M  V30 24 C -3.830482 -3.024397 -0.477459 0
M  V30 25 C -2.543520 -3.370313 -1.004512 0
M  V30 26 C -2.135996 -2.399009 -2.140146 0
M  V30 27 C -0.637932 -2.640608 -2.417273 0
M  V30 28 C -0.282861 -4.066732 -2.073141 0
M  V30 29 O -0.394902 -4.256691 -0.720513 0
M  V30 30 C -1.354353 -3.433424 -0.128774 0
M  V30 31 N -1.089080 -1.367413 2.351619 0
M  V30 32 C 2.328599 1.621390 -0.874540 0
M  V30 33 N 3.397829 2.316468 -1.536301 0
M  V30 34 C 3.002228 3.629984 -2.035618 0
M  V30 35 C 4.565500 2.505910 -0.712585 0
M  V30 36 C 5.104603 1.105862 -0.422022 0
M  V30 37 H 5.341601 -1.774921 5.145190 0
M  V30 38 H 5.499763 -2.727247 3.601252 0
M  V30 39 H 5.990247 -1.019478 3.630351 0
M  V30 40 H 5.541642 -0.328535 1.786298 0
M  V30 41 H 0.837420 0.527303 0.974774 0
M  V30 42 H 1.479027 -1.411024 4.074213 0
M  V30 43 H -1.791008 2.361232 2.780904 0
M  V30 44 H -4.367581 3.295056 2.128165 0
M  V30 45 H -3.596378 3.179530 1.465023 0
M  V30 46 H -3.551856 -2.170950 2.470644 0
M  V30 47 H -5.879417 -1.539086 1.797908 0
M  V30 48 H -7.650407 -2.405103 0.403092 0
M  V30 49 H -7.017127 -3.681224 -1.570113 0
M  V30 50 H -4.752688 -4.101246 -2.171181 0
M  V30 51 H -2.601856 -4.385417 -1.510096 0
M  V30 52 H -2.664345 -2.715160 -3.057330 0
M  V30 53 H -2.226112 -1.356746 -1.860962 0
M  V30 54 H -0.490057 -2.507875 -3.488613 0
M  V30 55 H -0.015801 -1.921934 -1.892928 0
M  V30 56 H -0.951066 -4.792481 -2.612169 0
M  V30 57 H 0.766120 -4.293229 -2.356333 0
M  V30 58 H -1.528468 -3.833825 0.885649 0
M  V30 59 H -0.882404 -2.427439 -0.132435 0
M  V30 60 H 1.640544 2.443456 -0.503407 0
M  V30 61 H 1.680600 1.035375 -1.552620 0
M  V30 62 H 2.038961 3.952613 -1.643614 0
M  V30 63 H 2.969626 3.636352 -3.130230 0
M  V30 64 H 3.742085 4.424939 -1.742943 0
M  V30 65 H 4.336666 3.039002 0.236363 0
M  V30 66 H 5.297313 3.087900 -1.306208 0
M  V30 67 H 4.959104 0.526972 -1.347426 0
M  V30 68 H 6.126428 1.105523 -0.048891 0
M  V30 END ATOM
M  V30 BEGIN BOND
M  V30 1 1 1 2
M  V30 2 1 2 3
M  V30 3 2 3 4
M  V30 4 1 4 5
M  V30 5 2 5 6
M  V30 6 1 6 7
M  V30 7 2 7 8
M  V30 8 1 8 9
M  V30 9 1 9 10
M  V30 10 2 10 11
M  V30 11 1 11 12
M  V30 12 2 12 13
M  V30 13 1 13 14
M  V30 14 1 14 15
M  V30 15 2 14 16
M  V30 16 1 13 17
M  V30 17 1 17 18
M  V30 18 1 18 19
M  V30 19 2 19 20
M  V30 20 1 20 21
M  V30 21 2 21 22
M  V30 22 1 22 23
M  V30 23 2 23 24
M  V30 24 1 24 25
M  V30 25 1 25 26
M  V30 26 1 26 27
M  V30 27 1 27 28
M  V30 28 1 28 29
M  V30 29 1 29 30
M  V30 30 2 17 31
M  V30 31 1 6 32
M  V30 32 1 32 33
M  V30 33 1 33 34
M  V30 34 1 33 35
M  V30 35 1 35 36
M  V30 36 1 8 3
M  V30 37 1 31 10
M  V30 38 1 36 5
M  V30 39 1 24 19
M  V30 40 1 30 25
M  V30 41 1 1 37
M  V30 42 1 1 38
M  V30 43 1 1 39
M  V30 44 1 4 40
M  V30 45 1 7 41
M  V30 46 1 9 42
M  V30 47 1 12 43
M  V30 48 1 15 44
M  V30 49 1 15 45
M  V30 50 1 18 46
M  V30 51 1 20 47
M  V30 52 1 21 48
M  V30 53 1 22 49
M  V30 54 1 23 50
M  V30 55 1 25 51
M  V30 56 1 26 52
M  V30 57 1 26 53
M  V30 58 1 27 54
M  V30 59 1 27 55
M  V30 60 1 28 56
M  V30 61 1 28 57
M  V30 62 1 30 58
M  V30 63 1 30 59
M  V30 64 1 32 60
M  V30 65 1 32 61
M  V30 66 1 34 62
M  V30 67 1 34 63
M  V30 68 1 34 64
M  V30 69 1 35 65
M  V30 70 1 35 66
M  V30 71 1 36 67
M  V30 72 1 36 68
M  V30 END BOND
M  V30 END CTAB
M  END
>  <Dataset>  (137) 
ChEMBL_Kinases

>  <Ligand_Instance>  (137) 
nan

>  <PDB_ID>  (137) 
nan

>  <Standardized_SMILES>  (137) 
COc1cc2c(cc1Nc1ncc(C(N)=O)c(Nc3ccccc3C3CCCOC3)n1)CN(C)CC2

>  <Name>  (137) 
nan

>  <Pocket>  (137) 
nan

>  <ATP_Site>  (137) 
nan

>  <Peripheral>  (137) 
nan

>  <Num_H_Atoms_ProtBoundConf>  (137) 
nan

>  <Num_Resolved_Atoms>  (137) 
nan

>  <Num_Not_Resolved_Atoms>  (137) 
nan

$$$$
CHEMBL4868683
     RDKit          3D

  0  0  0  0  0  0  0  0  0  0999 V3000
M  V30 BEGIN CTAB
M  V30 COUNTS 76 81 0 0 0
M  V30 BEGIN ATOM
M  V30 1 C 3.992958 -3.998676 2.637912 0
M  V30 2 C 3.538047 -4.319751 1.431638 0
M  V30 3 C 3.773095 -3.949739 0.012265 0
M  V30 4 N 2.553991 -3.420891 -0.592595 0
M  V30 5 C 1.623256 -4.179104 -1.231293 0
M  V30 6 O 1.729415 -5.440908 -1.365188 0
M  V30 7 C 0.590654 -3.405878 -1.692441 0
M  V30 8 C -0.565695 -3.706748 -2.387290 0
M  V30 9 N -1.365718 -2.663268 -2.676179 0
M  V30 10 C -1.061774 -1.398457 -2.311763 0
M  V30 11 N -2.038473 -0.460514 -2.713929 0
M  V30 12 C -3.071880 -0.197129 -1.774041 0
M  V30 13 C -3.092497 -0.807478 -0.538465 0
M  V30 14 C -4.067135 -0.592029 0.412533 0
M  V30 15 C -5.100216 0.280050 0.148310 0
M  V30 16 N -6.151566 0.578064 1.058807 0
M  V30 17 C -7.313608 1.416412 0.837370 0
M  V30 18 C -8.539890 0.634635 1.262540 0
M  V30 19 N -8.225377 -0.747248 1.446943 0
M  V30 20 C -8.075754 -1.517036 0.255318 0
M  V30 21 C -7.286927 -1.017755 2.489951 0
M  V30 22 C -6.205171 0.059594 2.412413 0
M  V30 23 C -5.101430 0.902676 -1.080919 0
M  V30 24 C -4.113795 0.669811 -2.016110 0
M  V30 25 N 0.071361 -1.137816 -1.636018 0
M  V30 26 C 0.936943 -2.141259 -1.304249 0
M  V30 27 N 2.110230 -2.172878 -0.650414 0
M  V30 28 C 2.792199 -1.056032 -0.094258 0
M  V30 29 C 1.956123 -0.092396 0.482501 0
M  V30 30 C 2.449956 1.053832 1.068815 0
M  V30 31 C 3.817015 1.235640 1.075470 0
M  V30 32 C 4.630292 0.276335 0.502555 0
M  V30 33 N 4.119688 -0.835155 -0.063906 0
M  V30 34 C 6.106367 0.404318 0.473487 0 CFG=1
M  V30 35 O 6.625736 -0.812277 0.966629 0
M  V30 36 C 6.627712 0.553684 -0.939245 0
M  V30 37 C 6.219617 -0.686560 -1.729765 0
M  V30 38 C 6.588246 1.480607 1.387443 0
M  V30 39 C 5.742684 2.731397 1.330752 0
M  V30 40 C 4.309079 2.490927 1.721520 0
M  V30 41 H 3.937021 -4.159919 3.707769 0
M  V30 42 H 4.721563 -3.335336 3.083415 0
M  V30 43 H 2.758892 -5.085646 1.523503 0
M  V30 44 H 4.042317 -4.870202 -0.532753 0
M  V30 45 H 4.587081 -3.221679 -0.112288 0
M  V30 46 H -0.801224 -4.735261 -2.677211 0
M  V30 47 H -2.094763 0.071652 -3.632910 0
M  V30 48 H -2.292597 -1.506281 -0.286816 0
M  V30 49 H -4.025787 -1.097797 1.351250 0
M  V30 50 H -7.404318 1.805860 -0.189980 0
M  V30 51 H -7.208864 2.304391 1.520483 0
M  V30 52 H -8.967850 1.067906 2.200224 0
M  V30 53 H -9.358285 0.721051 0.514509 0
M  V30 54 H -8.816210 -2.355150 0.188048 0
M  V30 55 H -7.023552 -1.898484 0.210407 0
M  V30 56 H -8.188211 -0.833986 -0.623005 0
M  V30 57 H -7.764617 -1.027894 3.493554 0
M  V30 58 H -6.763270 -1.987094 2.319879 0
M  V30 59 H -5.250033 -0.351908 2.777223 0
M  V30 60 H -6.460670 0.866336 3.156210 0
M  V30 61 H -5.832361 1.607803 -1.440480 0
M  V30 62 H -4.081688 1.148807 -3.007917 0
M  V30 63 H 0.862845 -0.213539 0.490087 0
M  V30 64 H 1.747532 1.773966 1.505293 0
M  V30 65 H 5.956817 -1.274463 1.551920 0
M  V30 66 H 6.214873 1.441641 -1.414237 0
M  V30 67 H 7.733711 0.611309 -0.953846 0
M  V30 68 H 6.959245 -0.821699 -2.544615 0
M  V30 69 H 6.178379 -1.533426 -1.029568 0
M  V30 70 H 5.213063 -0.501377 -2.151928 0
M  V30 71 H 6.627094 1.098334 2.425976 0
M  V30 72 H 7.616960 1.764576 1.112154 0
M  V30 73 H 6.169237 3.458842 2.052244 0
M  V30 74 H 5.834227 3.220625 0.339532 0
M  V30 75 H 4.156213 2.483596 2.812565 0
M  V30 76 H 3.722074 3.373619 1.331661 0
M  V30 END ATOM
M  V30 BEGIN BOND
M  V30 1 2 1 2
M  V30 2 1 2 3
M  V30 3 1 3 4
M  V30 4 1 4 5
M  V30 5 2 5 6
M  V30 6 1 5 7
M  V30 7 2 7 8
M  V30 8 1 8 9
M  V30 9 2 9 10
M  V30 10 1 10 11
M  V30 11 1 11 12
M  V30 12 2 12 13
M  V30 13 1 13 14
M  V30 14 2 14 15
M  V30 15 1 15 16
M  V30 16 1 16 17
M  V30 17 1 17 18
M  V30 18 1 18 19
M  V30 19 1 19 20
M  V30 20 1 19 21
M  V30 21 1 21 22
M  V30 22 1 15 23
M  V30 23 2 23 24
M  V30 24 1 10 25
M  V30 25 2 25 26
M  V30 26 1 26 27
M  V30 27 1 27 28
M  V30 28 2 28 29
M  V30 29 1 29 30
M  V30 30 2 30 31
M  V30 31 1 31 32
M  V30 32 2 32 33
M  V30 33 1 32 34
M  V30 34 1 34 35 CFG=1
M  V30 35 1 34 36
M  V30 36 1 36 37
M  V30 37 1 34 38
M  V30 38 1 38 39
M  V30 39 1 39 40
M  V30 40 1 27 4
M  V30 41 1 33 28
M  V30 42 1 26 7
M  V30 43 1 40 31
M  V30 44 1 24 12
M  V30 45 1 22 16
M  V30 46 1 1 41
M  V30 47 1 1 42
M  V30 48 1 2 43
M  V30 49 1 3 44
M  V30 50 1 3 45
M  V30 51 1 8 46
M  V30 52 1 11 47
M  V30 53 1 13 48
M  V30 54 1 14 49
M  V30 55 1 17 50
M  V30 56 1 17 51
M  V30 57 1 18 52
M  V30 58 1 18 53
M  V30 59 1 20 54
M  V30 60 1 20 55
M  V30 61 1 20 56
M  V30 62 1 21 57
M  V30 63 1 21 58
M  V30 64 1 22 59
M  V30 65 1 22 60
M  V30 66 1 23 61
M  V30 67 1 24 62
M  V30 68 1 29 63
M  V30 69 1 30 64
M  V30 70 1 35 65
M  V30 71 1 36 66
M  V30 72 1 36 67
M  V30 73 1 37 68
M  V30 74 1 37 69
M  V30 75 1 37 70
M  V30 76 1 38 71
M  V30 77 1 38 72
M  V30 78 1 39 73
M  V30 79 1 39 74
M  V30 80 1 40 75
M  V30 81 1 40 76
M  V30 END BOND
M  V30 END CTAB
M  END
>  <Dataset>  (138) 
ChEMBL_Kinases

>  <Ligand_Instance>  (138) 
nan

>  <PDB_ID>  (138) 
nan

>  <Standardized_SMILES>  (138) 
C=CCn1c(=O)c2cnc(Nc3ccc(N4CCN(C)CC4)cc3)nc2n1-c1ccc2c(n1)[C@@](O)(CC)CCC2

>  <Name>  (138) 
nan

>  <Pocket>  (138) 
nan

>  <ATP_Site>  (138) 
nan

>  <Peripheral>  (138) 
nan

>  <Num_H_Atoms_ProtBoundConf>  (138) 
nan

>  <Num_Resolved_Atoms>  (138) 
nan

>  <Num_Not_Resolved_Atoms>  (138) 
nan

$$$$
CHEMBL4868742
     RDKit          3D

  0  0  0  0  0  0  0  0  0  0999 V3000
M  V30 BEGIN CTAB
M  V30 COUNTS 71 75 0 0 0
M  V30 BEGIN ATOM
M  V30 1 C 7.561806 -1.992403 5.725202 0
M  V30 2 N 7.829947 -1.235660 4.537369 0
M  V30 3 C 8.791602 -1.899625 3.707097 0
M  V30 4 C 6.577890 -1.001638 3.830684 0
M  V30 5 C 6.908511 -0.218961 2.552792 0
M  V30 6 N 5.683926 0.012859 1.830473 0
M  V30 7 C 4.799052 1.020174 1.863174 0
M  V30 8 C 3.768126 0.799137 0.979090 0
M  V30 9 C 2.578697 1.551395 0.601744 0
M  V30 10 C 1.430113 0.893377 0.210076 0
M  V30 11 C 0.318426 1.608541 -0.175915 0
M  V30 12 C 0.273623 2.990373 -0.197350 0
M  V30 13 C -0.865340 3.651230 -0.607702 0
M  V30 14 N -2.027967 2.967408 -1.029138 0
M  V30 15 C -3.062024 2.098234 -0.601418 0
M  V30 16 C -3.801662 2.623792 0.443491 0
M  V30 17 C -4.852801 1.939222 1.006143 0
M  V30 18 N -5.142943 0.705085 0.486919 0
M  V30 19 C -4.411295 0.214324 -0.527242 0
M  V30 20 C -4.787182 -1.099076 -1.031331 0
M  V30 21 C -4.157846 -1.786915 -2.053750 0
M  V30 22 C -4.577687 -3.027491 -2.490450 0
M  V30 23 C -5.671448 -3.651259 -1.911783 0
M  V30 24 C -6.074706 -4.980905 -2.429861 0
M  V30 25 C -5.063112 -5.438496 -3.471346 0
M  V30 26 C -6.183718 -6.021620 -1.376017 0
M  V30 27 C -7.430471 -4.876292 -3.127857 0
M  V30 28 C -6.351134 -3.028883 -0.886765 0
M  V30 29 C -5.864714 -1.795576 -0.513198 0
M  V30 30 C -3.349420 0.860247 -1.123087 0
M  V30 31 C -0.891541 5.035797 -0.638439 0
M  V30 32 C 0.274823 5.644434 -0.239000 0
M  V30 33 N 1.368763 4.983950 0.155056 0
M  V30 34 C 1.421090 3.640765 0.195059 0
M  V30 35 C 2.540099 2.936359 0.583568 0
M  V30 36 C 4.074759 -0.432292 0.386313 0
M  V30 37 N 5.227382 -0.837951 0.942759 0
M  V30 38 H 6.548539 -1.795829 6.141230 0
M  V30 39 H 7.725413 -3.086713 5.561910 0
M  V30 40 H 8.322990 -1.692678 6.501508 0
M  V30 41 H 9.381137 -2.591284 4.330437 0
M  V30 42 H 8.244270 -2.485268 2.934987 0
M  V30 43 H 9.509551 -1.173770 3.265711 0
M  V30 44 H 6.030338 -1.928072 3.608586 0
M  V30 45 H 5.949639 -0.389983 4.512188 0
M  V30 46 H 7.306503 0.769479 2.863312 0
M  V30 47 H 7.628793 -0.798996 1.946299 0
M  V30 48 H 4.863070 1.895646 2.484976 0
M  V30 49 H 1.449372 -0.197004 0.221034 0
M  V30 50 H -0.544591 1.032461 -0.475809 0
M  V30 51 H -2.224111 3.152933 -2.038253 0
M  V30 52 H -3.660645 3.592414 0.934673 0
M  V30 53 H -5.492017 2.253654 1.819607 0
M  V30 54 H -3.300628 -1.323829 -2.522296 0
M  V30 55 H -3.991714 -3.457588 -3.303945 0
M  V30 56 H -4.040661 -5.486501 -3.073575 0
M  V30 57 H -5.043404 -4.824038 -4.379103 0
M  V30 58 H -5.346551 -6.486005 -3.755505 0
M  V30 59 H -5.948062 -7.005158 -1.878841 0
M  V30 60 H -7.219585 -6.162392 -0.993438 0
M  V30 61 H -5.425883 -5.885126 -0.597064 0
M  V30 62 H -7.333559 -4.437052 -4.141359 0
M  V30 63 H -7.896950 -5.866004 -3.123473 0
M  V30 64 H -8.057813 -4.180640 -2.530897 0
M  V30 65 H -7.205447 -3.468347 -0.408684 0
M  V30 66 H -6.409283 -1.309967 0.306645 0
M  V30 67 H -2.749245 0.511353 -1.921282 0
M  V30 68 H -1.723177 5.659530 -0.939946 0
M  V30 69 H 0.430969 6.731674 -0.202637 0
M  V30 70 H 3.433553 3.482614 0.886683 0
M  V30 71 H 3.564833 -1.030603 -0.369438 0
M  V30 END ATOM
M  V30 BEGIN BOND
M  V30 1 1 1 2
M  V30 2 1 2 3
M  V30 3 1 2 4
M  V30 4 1 4 5
M  V30 5 1 5 6
M  V30 6 1 6 7
M  V30 7 2 7 8
M  V30 8 1 8 9
M  V30 9 2 9 10
M  V30 10 1 10 11
M  V30 11 2 11 12
M  V30 12 1 12 13
M  V30 13 1 13 14
M  V30 14 1 14 15
M  V30 15 2 15 16
M  V30 16 1 16 17
M  V30 17 2 17 18
M  V30 18 1 18 19
M  V30 19 1 19 20
M  V30 20 2 20 21
M  V30 21 1 21 22
M  V30 22 2 22 23
M  V30 23 1 23 24
M  V30 24 1 24 25
M  V30 25 1 24 26
M  V30 26 1 24 27
M  V30 27 1 23 28
M  V30 28 2 28 29
M  V30 29 2 19 30
M  V30 30 2 13 31
M  V30 31 1 31 32
M  V30 32 2 32 33
M  V30 33 1 33 34
M  V30 34 2 34 35
M  V30 35 1 8 36
M  V30 36 2 36 37
M  V30 37 1 37 6
M  V30 38 1 35 9
M  V30 39 1 34 12
M  V30 40 1 30 15
M  V30 41 1 29 20
M  V30 42 1 1 38
M  V30 43 1 1 39
M  V30 44 1 1 40
M  V30 45 1 3 41
M  V30 46 1 3 42
M  V30 47 1 3 43
M  V30 48 1 4 44
M  V30 49 1 4 45
M  V30 50 1 5 46
M  V30 51 1 5 47
M  V30 52 1 7 48
M  V30 53 1 10 49
M  V30 54 1 11 50
M  V30 55 1 14 51
M  V30 56 1 16 52
M  V30 57 1 17 53
M  V30 58 1 21 54
M  V30 59 1 22 55
M  V30 60 1 25 56
M  V30 61 1 25 57
M  V30 62 1 25 58
M  V30 63 1 26 59
M  V30 64 1 26 60
M  V30 65 1 26 61
M  V30 66 1 27 62
M  V30 67 1 27 63
M  V30 68 1 27 64
M  V30 69 1 28 65
M  V30 70 1 29 66
M  V30 71 1 30 67
M  V30 72 1 31 68
M  V30 73 1 32 69
M  V30 74 1 35 70
M  V30 75 1 36 71
M  V30 END BOND
M  V30 END CTAB
M  END
>  <Dataset>  (139) 
ChEMBL_Kinases

>  <Ligand_Instance>  (139) 
nan

>  <PDB_ID>  (139) 
nan

>  <Standardized_SMILES>  (139) 
CN(C)CCn1cc(-c2ccc3c(Nc4ccnc(-c5ccc(C(C)(C)C)cc5)c4)ccnc3c2)cn1

>  <Name>  (139) 
nan

>  <Pocket>  (139) 
nan

>  <ATP_Site>  (139) 
nan

>  <Peripheral>  (139) 
nan

>  <Num_H_Atoms_ProtBoundConf>  (139) 
nan

>  <Num_Resolved_Atoms>  (139) 
nan

>  <Num_Not_Resolved_Atoms>  (139) 
nan

$$$$
CHEMBL4868746
     RDKit          3D

  0  0  0  0  0  0  0  0  0  0999 V3000
M  V30 BEGIN CTAB
M  V30 COUNTS 43 46 0 0 0
M  V30 BEGIN ATOM
M  V30 1 C 2.772450 -3.145828 1.065007 0
M  V30 2 C 4.070935 -2.539085 0.517689 0
M  V30 3 C 3.778799 -1.962439 -0.811728 0
M  V30 4 N 4.544809 -1.617495 1.519994 0
M  V30 5 C 5.441280 -1.905407 2.492022 0
M  V30 6 N 5.626245 -0.792977 3.225673 0
M  V30 7 N 4.855924 0.143581 2.703941 0
M  V30 8 C 4.171579 -0.335855 1.643825 0
M  V30 9 C 3.236363 0.443203 0.847566 0
M  V30 10 C 3.808869 1.347848 -0.031885 0
M  V30 11 C 3.015322 2.139101 -0.836365 0
M  V30 12 C 1.640588 1.996563 -0.732795 0
M  V30 13 C 1.082148 1.089412 0.149519 0
M  V30 14 N -0.331910 0.957117 0.241867 0
M  V30 15 C -0.959464 0.038560 1.133635 0
M  V30 16 O -0.246802 -0.691341 1.875277 0
M  V30 17 C -2.420207 -0.062926 1.194223 0
M  V30 18 C -3.088738 -0.931846 2.035817 0
M  V30 19 C -4.439117 -0.687759 1.757449 0
M  V30 20 C -5.618914 -1.220920 2.252850 0
M  V30 21 C -6.859888 -0.780975 1.783657 0
M  V30 22 C -6.908312 0.202362 0.809285 0
M  V30 23 N -5.746250 0.705261 0.343347 0
M  V30 24 C -4.539715 0.297830 0.779427 0
M  V30 25 N -3.275524 0.654653 0.460821 0
M  V30 26 N 1.888083 0.344159 0.908825 0
M  V30 27 H 2.119554 -3.453954 0.204328 0
M  V30 28 H 2.952883 -4.058721 1.658709 0
M  V30 29 H 2.244435 -2.358481 1.625671 0
M  V30 30 H 4.753278 -3.413012 0.393168 0
M  V30 31 H 4.578927 -1.230386 -1.113421 0
M  V30 32 H 2.760782 -1.554760 -0.954617 0
M  V30 33 H 3.868067 -2.766183 -1.576969 0
M  V30 34 H 5.925627 -2.880637 2.644296 0
M  V30 35 H 4.874898 1.522135 -0.175281 0
M  V30 36 H 3.360647 2.872855 -1.552926 0
M  V30 37 H 0.954878 2.593028 -1.341616 0
M  V30 38 H -0.944970 1.538401 -0.350004 0
M  V30 39 H -2.698616 -1.644127 2.751289 0
M  V30 40 H -5.597908 -1.997450 3.021831 0
M  V30 41 H -7.797626 -1.196936 2.169685 0
M  V30 42 H -7.846412 0.580824 0.409190 0
M  V30 43 H -3.032026 1.383227 -0.253488 0
M  V30 END ATOM
M  V30 BEGIN BOND
M  V30 1 1 1 2
M  V30 2 1 2 3
M  V30 3 1 2 4
M  V30 4 1 4 5
M  V30 5 2 5 6
M  V30 6 1 6 7
M  V30 7 2 7 8
M  V30 8 1 8 9
M  V30 9 2 9 10
M  V30 10 1 10 11
M  V30 11 2 11 12
M  V30 12 1 12 13
M  V30 13 1 13 14
M  V30 14 1 14 15
M  V30 15 2 15 16
M  V30 16 1 15 17
M  V30 17 2 17 18
M  V30 18 1 18 19
M  V30 19 2 19 20
M  V30 20 1 20 21
M  V30 21 2 21 22
M  V30 22 1 22 23
M  V30 23 2 23 24
M  V30 24 1 24 25
M  V30 25 2 13 26
M  V30 26 1 8 4
M  V30 27 1 26 9
M  V30 28 1 25 17
M  V30 29 1 24 19
M  V30 30 1 1 27
M  V30 31 1 1 28
M  V30 32 1 1 29
M  V30 33 1 2 30
M  V30 34 1 3 31
M  V30 35 1 3 32
M  V30 36 1 3 33
M  V30 37 1 5 34
M  V30 38 1 10 35
M  V30 39 1 11 36
M  V30 40 1 12 37
M  V30 41 1 14 38
M  V30 42 1 18 39
M  V30 43 1 20 40
M  V30 44 1 21 41
M  V30 45 1 22 42
M  V30 46 1 25 43
M  V30 END BOND
M  V30 END CTAB
M  END
>  <Dataset>  (140) 
ChEMBL_Kinases

>  <Ligand_Instance>  (140) 
nan

>  <PDB_ID>  (140) 
nan

>  <Standardized_SMILES>  (140) 
CC(C)n1cnnc1-c1cccc(NC(=O)c2cc3cccnc3[nH]2)n1

>  <Name>  (140) 
nan

>  <Pocket>  (140) 
nan

>  <ATP_Site>  (140) 
nan

>  <Peripheral>  (140) 
nan

>  <Num_H_Atoms_ProtBoundConf>  (140) 
nan

>  <Num_Resolved_Atoms>  (140) 
nan

>  <Num_Not_Resolved_Atoms>  (140) 
nan

$$$$
CHEMBL4868757
     RDKit          3D

  0  0  0  0  0  0  0  0  0  0999 V3000
M  V30 BEGIN CTAB
M  V30 COUNTS 51 53 0 0 0
M  V30 BEGIN ATOM
M  V30 1 C -0.632376 -4.270143 3.469936 0
M  V30 2 N 0.584858 -3.624314 3.922194 0
M  V30 3 C 1.962935 -3.689609 3.589359 0
M  V30 4 C 2.485780 -2.881493 2.620109 0
M  V30 5 C 3.825141 -2.922422 2.274566 0
M  V30 6 O 4.248667 -2.062404 1.281274 0
M  V30 7 C 3.395824 -1.178445 0.631396 0
M  V30 8 C 3.140376 0.112418 1.041142 0
M  V30 9 C 3.817061 0.610944 2.264375 0
M  V30 10 C 2.282273 0.944582 0.353513 0
M  V30 11 C 1.635232 0.501307 -0.795629 0
M  V30 12 N 0.739091 1.338926 -1.533140 0
M  V30 13 C -0.632038 1.326725 -1.184910 0
M  V30 14 O -0.940276 0.564062 -0.239231 0
M  V30 15 N -1.631670 2.079471 -1.800396 0
M  V30 16 C -3.022489 2.150898 -1.542197 0
M  V30 17 C -3.810017 2.980219 -2.299315 0
M  V30 18 C -5.167588 3.095898 -2.099132 0
M  V30 19 C -5.816284 2.378214 -1.117759 0
M  V30 20 C -5.050623 1.536749 -0.341307 0
M  V30 21 C -5.728151 0.754830 0.721088 0
M  V30 22 F -5.928026 1.525459 1.861214 0
M  V30 23 F -6.979908 0.397323 0.236396 0
M  V30 24 F -5.054343 -0.400860 1.023092 0
M  V30 25 C -3.696517 1.447743 -0.571258 0
M  V30 26 C 1.888874 -0.809653 -1.219711 0
M  V30 27 C 2.750523 -1.612311 -0.509880 0
M  V30 28 C 3.004965 -3.012277 -0.986043 0
M  V30 29 N 4.586133 -3.806257 2.949622 0
M  V30 30 C 4.066520 -4.597430 3.900738 0
M  V30 31 N 2.770514 -4.550577 4.227741 0
M  V30 32 H -0.454677 -4.854989 2.522510 0
M  V30 33 H -0.977730 -4.960936 4.266121 0
M  V30 34 H -1.420598 -3.502815 3.222452 0
M  V30 35 H 0.487741 -2.923722 4.683813 0
M  V30 36 H 1.804289 -2.207479 2.134744 0
M  V30 37 H 4.359831 -0.186950 2.791654 0
M  V30 38 H 3.019915 1.019220 2.946646 0
M  V30 39 H 4.502988 1.469508 2.030608 0
M  V30 40 H 2.092392 1.951034 0.685492 0
M  V30 41 H 1.028485 1.972150 -2.326641 0
M  V30 42 H -1.238900 2.672552 -2.573821 0
M  V30 43 H -3.340201 3.569584 -3.089791 0
M  V30 44 H -5.702856 3.774212 -2.745288 0
M  V30 45 H -6.882929 2.529791 -1.029921 0
M  V30 46 H -3.179397 0.779180 0.067885 0
M  V30 47 H 1.379361 -1.143568 -2.115065 0
M  V30 48 H 3.598485 -3.573365 -0.258338 0
M  V30 49 H 2.009511 -3.510221 -1.049223 0
M  V30 50 H 3.414599 -3.022145 -2.015127 0
M  V30 51 H 4.652932 -5.305322 4.448103 0
M  V30 END ATOM
M  V30 BEGIN BOND
M  V30 1 1 1 2
M  V30 2 1 2 3
M  V30 3 2 3 4
M  V30 4 1 4 5
M  V30 5 1 5 6
M  V30 6 1 6 7
M  V30 7 2 7 8
M  V30 8 1 8 9
M  V30 9 1 8 10
M  V30 10 2 10 11
M  V30 11 1 11 12
M  V30 12 1 12 13
M  V30 13 2 13 14
M  V30 14 1 13 15
M  V30 15 1 15 16
M  V30 16 2 16 17
M  V30 17 1 17 18
M  V30 18 2 18 19
M  V30 19 1 19 20
M  V30 20 1 20 21
M  V30 21 1 21 22
M  V30 22 1 21 23
M  V30 23 1 21 24
M  V30 24 2 20 25
M  V30 25 1 11 26
M  V30 26 2 26 27
M  V30 27 1 27 28
M  V30 28 2 5 29
M  V30 29 1 29 30
M  V30 30 2 30 31
M  V30 31 1 31 3
M  V30 32 1 27 7
M  V30 33 1 25 16
M  V30 34 1 1 32
M  V30 35 1 1 33
M  V30 36 1 1 34
M  V30 37 1 2 35
M  V30 38 1 4 36
M  V30 39 1 9 37
M  V30 40 1 9 38
M  V30 41 1 9 39
M  V30 42 1 10 40
M  V30 43 1 12 41
M  V30 44 1 15 42
M  V30 45 1 17 43
M  V30 46 1 18 44
M  V30 47 1 19 45
M  V30 48 1 25 46
M  V30 49 1 26 47
M  V30 50 1 28 48
M  V30 51 1 28 49
M  V30 52 1 28 50
M  V30 53 1 30 51
M  V30 END BOND
M  V30 END CTAB
M  END
>  <Dataset>  (141) 
ChEMBL_Kinases

>  <Ligand_Instance>  (141) 
nan

>  <PDB_ID>  (141) 
nan

>  <Standardized_SMILES>  (141) 
CNc1cc(Oc2c(C)cc(NC(=O)Nc3cccc(C(F)(F)F)c3)cc2C)ncn1

>  <Name>  (141) 
nan

>  <Pocket>  (141) 
nan

>  <ATP_Site>  (141) 
nan

>  <Peripheral>  (141) 
nan

>  <Num_H_Atoms_ProtBoundConf>  (141) 
nan

>  <Num_Resolved_Atoms>  (141) 
nan

>  <Num_Not_Resolved_Atoms>  (141) 
nan

$$$$
CHEMBL3701783
     RDKit          3D

  0  0  0  0  0  0  0  0  0  0999 V3000
M  V30 BEGIN CTAB
M  V30 COUNTS 55 59 0 0 0
M  V30 BEGIN ATOM
M  V30 1 C 1.352238 -1.814519 4.098337 0
M  V30 2 C 2.138984 -0.829573 3.345393 0
M  V30 3 C 3.334944 -0.347561 3.853033 0
M  V30 4 C 4.073916 0.590922 3.124112 0
M  V30 5 C 3.596749 1.019632 1.910927 0
M  V30 6 C 4.408880 1.998008 1.196170 0
M  V30 7 O 5.482736 2.386585 1.723907 0
M  V30 8 N 4.080572 2.557288 -0.068589 0
M  V30 9 C 4.926641 3.527752 -0.733796 0
M  V30 10 C 5.027649 3.516165 -2.235250 0
M  V30 11 C 4.274963 4.585030 -1.532525 0
M  V30 12 C 2.412160 0.542649 1.407390 0
M  V30 13 C 1.657558 -0.396225 2.120060 0
M  V30 14 C 0.418930 -0.848965 1.518712 0
M  V30 15 C -0.783235 -0.978537 2.181457 0
M  V30 16 C -1.927816 -1.422527 1.522507 0
M  V30 17 C -1.851810 -1.734921 0.190826 0
M  V30 18 C -0.670580 -1.621775 -0.517372 0
M  V30 19 C 0.437750 -1.177752 0.177401 0
M  V30 20 N -0.964493 -2.025110 -1.850575 0
M  V30 21 C -2.355920 -2.391242 -1.953148 0
M  V30 22 O -2.731278 -2.766118 -3.091629 0
M  V30 23 C -3.006765 -2.220978 -0.627138 0
M  V30 24 C -4.164259 -1.281412 -0.634467 0
M  V30 25 C -5.458381 -1.826157 -0.162004 0
M  V30 26 C -5.702209 -3.271697 -0.336303 0
M  V30 27 O -6.103484 -3.878937 0.869605 0
M  V30 28 C -4.537388 -4.073048 -0.846209 0
M  V30 29 C -3.325269 -3.598028 -0.109412 0
M  V30 30 H 0.755174 -1.353004 4.914105 0
M  V30 31 H 0.772270 -2.515622 3.461268 0
M  V30 32 H 2.069725 -2.491501 4.649416 0
M  V30 33 H 3.694438 -0.696807 4.809760 0
M  V30 34 H 5.012164 0.933630 3.580007 0
M  V30 35 H 3.206637 2.255953 -0.522337 0
M  V30 36 H 5.834981 3.772230 -0.150163 0
M  V30 37 H 4.439874 2.754752 -2.777655 0
M  V30 38 H 6.033069 3.773335 -2.631360 0
M  V30 39 H 3.158353 4.599914 -1.647993 0
M  V30 40 H 4.726355 5.589232 -1.523477 0
M  V30 41 H 2.037322 0.888792 0.439143 0
M  V30 42 H -0.820109 -0.731001 3.213669 0
M  V30 43 H -2.828532 -1.490747 2.135146 0
M  V30 44 H 1.361430 -1.089561 -0.377530 0
M  V30 45 H -0.178247 -2.004498 -2.542075 0
M  V30 46 H -3.880655 -0.412171 0.004783 0
M  V30 47 H -4.241441 -0.868294 -1.663913 0
M  V30 48 H -6.279427 -1.268469 -0.679424 0
M  V30 49 H -5.600864 -1.567548 0.917676 0
M  V30 50 H -6.538337 -3.478867 -1.046014 0
M  V30 51 H -5.836454 -4.810397 0.939072 0
M  V30 52 H -4.715954 -5.136698 -0.595213 0
M  V30 53 H -4.358483 -3.986509 -1.918114 0
M  V30 54 H -3.439377 -3.568501 0.982707 0
M  V30 55 H -2.480613 -4.257525 -0.405656 0
M  V30 END ATOM
M  V30 BEGIN BOND
M  V30 1 1 1 2
M  V30 2 2 2 3
M  V30 3 1 3 4
M  V30 4 2 4 5
M  V30 5 1 5 6
M  V30 6 2 6 7
M  V30 7 1 6 8
M  V30 8 1 8 9
M  V30 9 1 9 10
M  V30 10 1 10 11
M  V30 11 1 5 12
M  V30 12 2 12 13
M  V30 13 1 13 14
M  V30 14 2 14 15
M  V30 15 1 15 16
M  V30 16 2 16 17
M  V30 17 1 17 18
M  V30 18 2 18 19
M  V30 19 1 18 20
M  V30 20 1 20 21
M  V30 21 2 21 22
M  V30 22 1 21 23
M  V30 23 1 23 24
M  V30 24 1 24 25
M  V30 25 1 25 26
M  V30 26 1 26 27
M  V30 27 1 26 28
M  V30 28 1 28 29
M  V30 29 1 13 2
M  V30 30 1 19 14
M  V30 31 1 29 23
M  V30 32 1 11 9
M  V30 33 1 23 17
M  V30 34 1 1 30
M  V30 35 1 1 31
M  V30 36 1 1 32
M  V30 37 1 3 33
M  V30 38 1 4 34
M  V30 39 1 8 35
M  V30 40 1 9 36
M  V30 41 1 10 37
M  V30 42 1 10 38
M  V30 43 1 11 39
M  V30 44 1 11 40
M  V30 45 1 12 41
M  V30 46 1 15 42
M  V30 47 1 16 43
M  V30 48 1 19 44
M  V30 49 1 20 45
M  V30 50 1 24 46
M  V30 51 1 24 47
M  V30 52 1 25 48
M  V30 53 1 25 49
M  V30 54 1 26 50
M  V30 55 1 27 51
M  V30 56 1 28 52
M  V30 57 1 28 53
M  V30 58 1 29 54
M  V30 59 1 29 55
M  V30 END BOND
M  V30 END CTAB
M  END
>  <Dataset>  (142) 
ChEMBL_Kinases

>  <Ligand_Instance>  (142) 
nan

>  <PDB_ID>  (142) 
nan

>  <Standardized_SMILES>  (142) 
Cc1ccc(C(=O)NC2CC2)cc1-c1ccc2c(c1)NC(=O)C21CCC(O)CC1

>  <Name>  (142) 
nan

>  <Pocket>  (142) 
nan

>  <ATP_Site>  (142) 
nan

>  <Peripheral>  (142) 
nan

>  <Num_H_Atoms_ProtBoundConf>  (142) 
nan

>  <Num_Resolved_Atoms>  (142) 
nan

>  <Num_Not_Resolved_Atoms>  (142) 
nan

$$$$
CHEMBL3701784
     RDKit          3D

  0  0  0  0  0  0  0  0  0  0999 V3000
M  V30 BEGIN CTAB
M  V30 COUNTS 58 62 0 0 0
M  V30 BEGIN ATOM
M  V30 1 C 0.971521 3.444100 -0.147977 0
M  V30 2 C 1.718369 2.791769 0.963993 0
M  V30 3 C 2.646870 3.537352 1.661775 0
M  V30 4 C 3.349720 2.929545 2.704331 0
M  V30 5 C 3.114800 1.607261 3.025243 0
M  V30 6 C 3.876254 1.017459 4.124293 0
M  V30 7 O 4.702586 1.767845 4.704901 0
M  V30 8 N 3.721296 -0.317345 4.541047 0
M  V30 9 C 4.449282 -0.929540 5.612854 0
M  V30 10 C 3.572473 -1.780259 6.562435 0
M  V30 11 C 4.632503 -2.394709 5.701941 0
M  V30 12 C 2.175662 0.905525 2.296451 0
M  V30 13 C 1.452284 1.466439 1.251801 0
M  V30 14 C 0.476736 0.654744 0.532252 0
M  V30 15 C -0.800886 1.018370 0.174053 0
M  V30 16 C -1.623729 0.145935 -0.510604 0
M  V30 17 C -1.172740 -1.100636 -0.842838 0
M  V30 18 C 0.118782 -1.520101 -0.501986 0
M  V30 19 C 0.904774 -0.612262 0.182549 0
M  V30 20 N 0.252438 -2.849020 -0.994164 0
M  V30 21 C -0.963234 -3.242996 -1.638686 0
M  V30 22 O -1.019745 -4.414187 -2.141927 0
M  V30 23 C -1.957919 -2.125316 -1.574852 0
M  V30 24 C -2.166139 -1.624492 -2.962226 0
M  V30 25 C -3.622867 -1.297639 -3.195867 0
M  V30 26 C -4.421446 -2.552756 -3.033079 0
M  V30 27 C -3.962840 -3.571863 -4.065400 0
M  V30 28 O -5.754408 -2.211060 -3.354612 0
M  V30 29 C -4.298406 -3.060243 -1.636916 0
M  V30 30 C -3.187626 -2.489922 -0.828800 0
M  V30 31 H 0.691789 2.722957 -0.961687 0
M  V30 32 H 1.636422 4.179590 -0.690384 0
M  V30 33 H 0.122049 4.061202 0.199440 0
M  V30 34 H 2.791873 4.579951 1.364431 0
M  V30 35 H 4.054869 3.578049 3.198204 0
M  V30 36 H 3.037999 -0.945597 4.064543 0
M  V30 37 H 5.169626 -0.264946 6.114882 0
M  V30 38 H 3.710505 -1.659457 7.640954 0
M  V30 39 H 2.538594 -2.002366 6.234442 0
M  V30 40 H 5.515032 -2.762789 6.272796 0
M  V30 41 H 4.345572 -3.076392 4.894509 0
M  V30 42 H 1.977575 -0.123085 2.529104 0
M  V30 43 H -1.103273 2.015539 0.463458 0
M  V30 44 H -2.598127 0.557949 -0.728623 0
M  V30 45 H 1.885660 -0.986756 0.418598 0
M  V30 46 H 1.143996 -3.380302 -0.858015 0
M  V30 47 H -1.595046 -0.675084 -3.173914 0
M  V30 48 H -1.780797 -2.332896 -3.745347 0
M  V30 49 H -3.757748 -0.844023 -4.210325 0
M  V30 50 H -3.904959 -0.567741 -2.401857 0
M  V30 51 H -3.301581 -3.141244 -4.837759 0
M  V30 52 H -4.831578 -3.995014 -4.610720 0
M  V30 53 H -3.496936 -4.455933 -3.544276 0
M  V30 54 H -5.701761 -1.858246 -4.299684 0
M  V30 55 H -5.259766 -2.793870 -1.110203 0
M  V30 56 H -4.286962 -4.176340 -1.643967 0
M  V30 57 H -3.551519 -1.611736 -0.229890 0
M  V30 58 H -2.891264 -3.271265 -0.071428 0
M  V30 END ATOM
M  V30 BEGIN BOND
M  V30 1 1 1 2
M  V30 2 2 2 3
M  V30 3 1 3 4
M  V30 4 2 4 5
M  V30 5 1 5 6
M  V30 6 2 6 7
M  V30 7 1 6 8
M  V30 8 1 8 9
M  V30 9 1 9 10
M  V30 10 1 10 11
M  V30 11 1 5 12
M  V30 12 2 12 13
M  V30 13 1 13 14
M  V30 14 2 14 15
M  V30 15 1 15 16
M  V30 16 2 16 17
M  V30 17 1 17 18
M  V30 18 2 18 19
M  V30 19 1 18 20
M  V30 20 1 20 21
M  V30 21 2 21 22
M  V30 22 1 21 23
M  V30 23 1 23 24
M  V30 24 1 24 25
M  V30 25 1 25 26
M  V30 26 1 26 27
M  V30 27 1 26 28
M  V30 28 1 26 29
M  V30 29 1 29 30
M  V30 30 1 13 2
M  V30 31 1 19 14
M  V30 32 1 30 23
M  V30 33 1 11 9
M  V30 34 1 23 17
M  V30 35 1 1 31
M  V30 36 1 1 32
M  V30 37 1 1 33
M  V30 38 1 3 34
M  V30 39 1 4 35
M  V30 40 1 8 36
M  V30 41 1 9 37
M  V30 42 1 10 38
M  V30 43 1 10 39
M  V30 44 1 11 40
M  V30 45 1 11 41
M  V30 46 1 12 42
M  V30 47 1 15 43
M  V30 48 1 16 44
M  V30 49 1 19 45
M  V30 50 1 20 46
M  V30 51 1 24 47
M  V30 52 1 24 48
M  V30 53 1 25 49
M  V30 54 1 25 50
M  V30 55 1 27 51
M  V30 56 1 27 52
M  V30 57 1 27 53
M  V30 58 1 28 54
M  V30 59 1 29 55
M  V30 60 1 29 56
M  V30 61 1 30 57
M  V30 62 1 30 58
M  V30 END BOND
M  V30 END CTAB
M  END
>  <Dataset>  (143) 
ChEMBL_Kinases

>  <Ligand_Instance>  (143) 
nan

>  <PDB_ID>  (143) 
nan

>  <Standardized_SMILES>  (143) 
Cc1ccc(C(=O)NC2CC2)cc1-c1ccc2c(c1)NC(=O)C21CCC(C)(O)CC1

>  <Name>  (143) 
nan

>  <Pocket>  (143) 
nan

>  <ATP_Site>  (143) 
nan

>  <Peripheral>  (143) 
nan

>  <Num_H_Atoms_ProtBoundConf>  (143) 
nan

>  <Num_Resolved_Atoms>  (143) 
nan

>  <Num_Not_Resolved_Atoms>  (143) 
nan

$$$$
CHEMBL3701785
     RDKit          3D

  0  0  0  0  0  0  0  0  0  0999 V3000
M  V30 BEGIN CTAB
M  V30 COUNTS 67 72 0 0 0
M  V30 BEGIN ATOM
M  V30 1 C 2.296275 -2.664079 3.047729 0
M  V30 2 C 2.908879 -1.336954 2.979174 0
M  V30 3 C 3.967259 -1.155585 3.871483 0
M  V30 4 C 4.626443 0.074799 3.888208 0
M  V30 5 C 4.201397 1.064503 3.017218 0
M  V30 6 C 4.925164 2.330806 3.075496 0
M  V30 7 O 5.865636 2.450786 3.886353 0
M  V30 8 N 4.629666 3.446304 2.264956 0
M  V30 9 C 5.391649 4.676073 2.376218 0
M  V30 10 C 5.667764 5.398908 1.028531 0
M  V30 11 C 4.672896 5.975500 1.978077 0
M  V30 12 C 3.150981 0.844443 2.151011 0
M  V30 13 C 2.474701 -0.378027 2.114767 0
M  V30 14 C 1.363841 -0.601770 1.196716 0
M  V30 15 C 0.132944 -1.172037 1.451091 0
M  V30 16 C -0.792299 -1.298307 0.434211 0
M  V30 17 C -0.561950 -0.879329 -0.860766 0
M  V30 18 C 0.668593 -0.305015 -1.131277 0
M  V30 19 C 1.613006 -0.171149 -0.113441 0
M  V30 20 N 0.724544 0.062518 -2.504773 0
M  V30 21 C -0.529627 -0.313144 -3.064495 0
M  V30 22 O -0.989911 -0.212272 -4.215626 0
M  V30 23 C -1.432593 -0.938497 -2.061511 0
M  V30 24 C -2.687047 -0.128489 -1.953518 0
M  V30 25 C -3.831098 -0.804444 -1.271578 0
M  V30 26 C -4.013271 -2.249717 -1.601994 0
M  V30 27 N -4.006383 -3.087619 -0.414802 0
M  V30 28 C -4.152507 -4.484209 -0.674766 0
M  V30 29 C -4.102379 -5.245774 0.634246 0
M  V30 30 O -4.521579 -4.470051 1.712744 0
M  V30 31 C -5.685347 -3.816233 1.246363 0
M  V30 32 C -5.179026 -2.684897 0.381037 0
M  V30 33 C -3.110478 -2.689289 -2.688764 0
M  V30 34 C -1.664402 -2.354959 -2.481381 0
M  V30 35 H 3.020235 -3.468225 3.319434 0
M  V30 36 H 1.800677 -3.017651 2.134240 0
M  V30 37 H 1.534733 -2.660276 3.860310 0
M  V30 38 H 4.312308 -1.924245 4.561703 0
M  V30 39 H 5.450040 0.208645 4.586192 0
M  V30 40 H 3.853249 3.391431 1.574118 0
M  V30 41 H 6.207069 4.751920 3.093079 0
M  V30 42 H 5.327237 4.881845 0.103617 0
M  V30 43 H 6.621776 5.961569 0.960521 0
M  V30 44 H 4.916912 6.897036 2.512317 0
M  V30 45 H 3.614760 5.891210 1.642609 0
M  V30 46 H 2.836271 1.626246 1.482549 0
M  V30 47 H -0.005322 -1.479224 2.457246 0
M  V30 48 H -1.705481 -1.763089 0.788226 0
M  V30 49 H 2.569877 0.294181 -0.399513 0
M  V30 50 H 1.494968 0.515207 -3.046609 0
M  V30 51 H -2.972035 0.240225 -2.961801 0
M  V30 52 H -2.454432 0.785189 -1.347280 0
M  V30 53 H -4.766600 -0.248171 -1.497927 0
M  V30 54 H -3.661251 -0.745195 -0.153211 0
M  V30 55 H -5.065897 -2.366685 -2.005108 0
M  V30 56 H -5.122940 -4.744538 -1.157175 0
M  V30 57 H -3.290428 -4.876142 -1.274537 0
M  V30 58 H -3.123863 -5.720315 0.810676 0
M  V30 59 H -4.830732 -6.109790 0.614113 0
M  V30 60 H -6.263077 -4.542551 0.649103 0
M  V30 61 H -6.304668 -3.457639 2.068450 0
M  V30 62 H -5.974750 -2.426097 -0.353177 0
M  V30 63 H -4.967396 -1.797106 0.986428 0
M  V30 64 H -3.285413 -3.746922 -2.938696 0
M  V30 65 H -3.412098 -2.132356 -3.623392 0
M  V30 66 H -1.304413 -3.013268 -1.664410 0
M  V30 67 H -1.060291 -2.588230 -3.374257 0
M  V30 END ATOM
M  V30 BEGIN BOND
M  V30 1 1 1 2
M  V30 2 2 2 3
M  V30 3 1 3 4
M  V30 4 2 4 5
M  V30 5 1 5 6
M  V30 6 2 6 7
M  V30 7 1 6 8
M  V30 8 1 8 9
M  V30 9 1 9 10
M  V30 10 1 10 11
M  V30 11 1 5 12
M  V30 12 2 12 13
M  V30 13 1 13 14
M  V30 14 2 14 15
M  V30 15 1 15 16
M  V30 16 2 16 17
M  V30 17 1 17 18
M  V30 18 2 18 19
M  V30 19 1 18 20
M  V30 20 1 20 21
M  V30 21 2 21 22
M  V30 22 1 21 23
M  V30 23 1 23 24
M  V30 24 1 24 25
M  V30 25 1 25 26
M  V30 26 1 26 27
M  V30 27 1 27 28
M  V30 28 1 28 29
M  V30 29 1 29 30
M  V30 30 1 30 31
M  V30 31 1 31 32
M  V30 32 1 26 33
M  V30 33 1 33 34
M  V30 34 1 13 2
M  V30 35 1 19 14
M  V30 36 1 34 23
M  V30 37 1 11 9
M  V30 38 1 23 17
M  V30 39 1 32 27
M  V30 40 1 1 35
M  V30 41 1 1 36
M  V30 42 1 1 37
M  V30 43 1 3 38
M  V30 44 1 4 39
M  V30 45 1 8 40
M  V30 46 1 9 41
M  V30 47 1 10 42
M  V30 48 1 10 43
M  V30 49 1 11 44
M  V30 50 1 11 45
M  V30 51 1 12 46
M  V30 52 1 15 47
M  V30 53 1 16 48
M  V30 54 1 19 49
M  V30 55 1 20 50
M  V30 56 1 24 51
M  V30 57 1 24 52
M  V30 58 1 25 53
M  V30 59 1 25 54
M  V30 60 1 26 55
M  V30 61 1 28 56
M  V30 62 1 28 57
M  V30 63 1 29 58
M  V30 64 1 29 59
M  V30 65 1 31 60
M  V30 66 1 31 61
M  V30 67 1 32 62
M  V30 68 1 32 63
M  V30 69 1 33 64
M  V30 70 1 33 65
M  V30 71 1 34 66
M  V30 72 1 34 67
M  V30 END BOND
M  V30 END CTAB
M  END
>  <Dataset>  (144) 
ChEMBL_Kinases

>  <Ligand_Instance>  (144) 
nan

>  <PDB_ID>  (144) 
nan

>  <Standardized_SMILES>  (144) 
Cc1ccc(C(=O)NC2CC2)cc1-c1ccc2c(c1)NC(=O)C21CCC(N2CCOCC2)CC1

>  <Name>  (144) 
nan

>  <Pocket>  (144) 
nan

>  <ATP_Site>  (144) 
nan

>  <Peripheral>  (144) 
nan

>  <Num_H_Atoms_ProtBoundConf>  (144) 
nan

>  <Num_Resolved_Atoms>  (144) 
nan

>  <Num_Not_Resolved_Atoms>  (144) 
nan

$$$$
CHEMBL3976822
     RDKit          3D

  0  0  0  0  0  0  0  0  0  0999 V3000
M  V30 BEGIN CTAB
M  V30 COUNTS 54 57 0 0 0
M  V30 BEGIN ATOM
M  V30 1 N -2.876275 0.594092 2.933170 0
M  V30 2 C -1.908223 -0.402919 2.635280 0
M  V30 3 O -1.793122 -0.834237 3.833837 0
M  V30 4 C -1.574397 -0.405526 1.197644 0 CFG=2
M  V30 5 C -1.061800 0.926400 0.709833 0
M  V30 6 C 0.129005 1.438532 1.365006 0
M  V30 7 C 0.897174 0.970202 2.397343 0
M  V30 8 C 2.005492 1.584653 2.938710 0
M  V30 9 C 2.345916 2.792684 2.355266 0
M  V30 10 C 1.597925 3.299744 1.312821 0
M  V30 11 N 2.049994 4.574375 0.812008 0
M  V30 12 C 3.345898 4.336934 0.217684 0
M  V30 13 C 4.554138 4.491295 0.838455 0
M  V30 14 C 5.586721 4.178167 -0.005948 0
M  V30 15 N 4.976426 3.828795 -1.156481 0
M  V30 16 N 3.645688 3.919118 -1.039696 0
M  V30 17 N 0.514577 2.636948 0.829619 0
M  V30 18 C -2.872173 -0.672835 0.458251 0
M  V30 19 C -3.222003 -2.088683 0.254459 0
M  V30 20 C -2.089883 -3.038317 -0.016188 0 CFG=1
M  V30 21 O -2.298123 -3.932509 -1.058233 0
M  V30 22 C -1.718082 -5.167133 -1.115062 0
M  V30 23 C -2.195859 -5.826726 -2.253781 0
M  V30 24 C -1.787824 -7.125222 -2.606300 0
M  V30 25 C -0.878783 -7.710651 -1.750410 0
M  V30 26 C -0.369486 -7.119086 -0.617505 0
M  V30 27 Cl 0.786558 -7.846978 0.489379 0
M  V30 28 C -0.820265 -5.851404 -0.346570 0
M  V30 29 F -0.347994 -5.210352 0.736299 0
M  V30 30 C -0.914366 -2.134141 -0.475549 0
M  V30 31 C -0.517041 -1.423170 0.824189 0
M  V30 32 H -2.944777 1.656065 2.899091 0
M  V30 33 H -3.876967 0.597615 3.299488 0
M  V30 34 H -1.858029 1.719500 0.765450 0
M  V30 35 H -0.816578 0.863550 -0.395936 0
M  V30 36 H 0.572480 0.030588 2.816281 0
M  V30 37 H 2.519190 1.108230 3.750997 0
M  V30 38 H 3.234157 3.246078 2.821336 0
M  V30 39 H 1.786795 5.595562 0.723246 0
M  V30 40 H 4.751401 4.820432 1.869413 0
M  V30 41 H 6.642410 4.214506 0.242112 0
M  V30 42 H 5.571627 3.534015 -1.977703 0
M  V30 43 H -3.688904 -0.223097 1.096556 0
M  V30 44 H -2.891468 -0.072693 -0.466093 0
M  V30 45 H -3.856398 -2.485653 1.069820 0
M  V30 46 H -3.876237 -2.146161 -0.663934 0
M  V30 47 H -1.724150 -3.548428 0.874314 0
M  V30 48 H -2.918304 -5.455907 -3.005051 0
M  V30 49 H -2.141658 -7.658454 -3.477253 0
M  V30 50 H -0.493893 -8.728045 -1.929381 0
M  V30 51 H -1.226854 -1.388638 -1.195524 0
M  V30 52 H -0.080269 -2.785351 -0.745506 0
M  V30 53 H 0.500958 -0.999244 0.729548 0
M  V30 54 H -0.483389 -2.199975 1.609900 0
M  V30 END ATOM
M  V30 BEGIN BOND
M  V30 1 1 1 2
M  V30 2 2 2 3
M  V30 3 1 2 4
M  V30 4 1 4 5 CFG=3
M  V30 5 1 5 6
M  V30 6 2 6 7
M  V30 7 1 7 8
M  V30 8 2 8 9
M  V30 9 1 9 10
M  V30 10 1 10 11
M  V30 11 1 11 12
M  V30 12 1 12 13
M  V30 13 2 13 14
M  V30 14 1 14 15
M  V30 15 1 15 16
M  V30 16 2 10 17
M  V30 17 1 4 18
M  V30 18 1 18 19
M  V30 19 1 19 20
M  V30 20 1 20 21
M  V30 21 1 21 22
M  V30 22 2 22 23
M  V30 23 1 23 24
M  V30 24 2 24 25
M  V30 25 1 25 26
M  V30 26 1 26 27
M  V30 27 2 26 28
M  V30 28 1 28 29
M  V30 29 1 20 30
M  V30 30 1 30 31
M  V30 31 1 31 4
M  V30 32 1 17 6
M  V30 33 1 28 22
M  V30 34 2 16 12
M  V30 35 1 1 32
M  V30 36 1 1 33
M  V30 37 1 5 34
M  V30 38 1 5 35
M  V30 39 1 7 36
M  V30 40 1 8 37
M  V30 41 1 9 38
M  V30 42 1 11 39
M  V30 43 1 13 40
M  V30 44 1 14 41
M  V30 45 1 15 42
M  V30 46 1 18 43
M  V30 47 1 18 44
M  V30 48 1 19 45
M  V30 49 1 19 46
M  V30 50 1 20 47 CFG=1
M  V30 51 1 23 48
M  V30 52 1 24 49
M  V30 53 1 25 50
M  V30 54 1 30 51
M  V30 55 1 30 52
M  V30 56 1 31 53
M  V30 57 1 31 54
M  V30 END BOND
M  V30 END CTAB
M  END
>  <Dataset>  (145) 
ChEMBL_Kinases

>  <Ligand_Instance>  (145) 
nan

>  <PDB_ID>  (145) 
nan

>  <Standardized_SMILES>  (145) 
NC(=O)[C@]1(Cc2cccc(Nc3cc[nH]n3)n2)CC[C@@H](Oc2cccc(Cl)c2F)CC1

>  <Name>  (145) 
nan

>  <Pocket>  (145) 
nan

>  <ATP_Site>  (145) 
nan

>  <Peripheral>  (145) 
nan

>  <Num_H_Atoms_ProtBoundConf>  (145) 
nan

>  <Num_Resolved_Atoms>  (145) 
nan

>  <Num_Not_Resolved_Atoms>  (145) 
nan

$$$$
CHEMBL4868168
     RDKit          3D

  0  0  0  0  0  0  0  0  0  0999 V3000
M  V30 BEGIN CTAB
M  V30 COUNTS 51 54 0 0 0
M  V30 BEGIN ATOM
M  V30 1 C 3.730626 -3.202439 4.908987 0
M  V30 2 N 4.960567 -2.662974 4.325548 0
M  V30 3 N 6.164413 -2.891521 4.859165 0
M  V30 4 C 7.088085 -2.269197 4.103876 0
M  V30 5 C 6.415588 -1.640581 3.074342 0
M  V30 6 C 5.070052 -1.891165 3.216790 0
M  V30 7 C 3.964615 -1.454193 2.395178 0
M  V30 8 C 2.850119 -0.971323 3.034140 0
M  V30 9 C 1.771672 -0.543161 2.297541 0
M  V30 10 F 0.662719 -0.063723 2.898094 0
M  V30 11 C 1.713977 -0.558755 0.923618 0
M  V30 12 C 0.659235 -0.145421 0.015015 0
M  V30 13 O 0.762343 -0.225264 -1.254978 0
M  V30 14 N -0.599900 0.389597 0.363365 0
M  V30 15 C -1.632718 0.793164 -0.566183 0 CFG=2
M  V30 16 C -1.817478 2.267631 -0.445186 0
M  V30 17 N -2.496998 2.676458 0.755249 0
M  V30 18 C -3.489964 1.748542 1.235668 0
M  V30 19 C -4.023059 0.981183 0.045218 0
M  V30 20 C -2.915597 0.023989 -0.344174 0 CFG=1
M  V30 21 C -3.335682 -0.711999 -1.571384 0
M  V30 22 C -3.566992 -0.010493 -2.736864 0
M  V30 23 C -3.959279 -0.609841 -3.921744 0
M  V30 24 C -4.107720 -1.994036 -3.857927 0
M  V30 25 F -4.495297 -2.605537 -5.020037 0
M  V30 26 C -3.897381 -2.773522 -2.735459 0
M  V30 27 F -4.065097 -4.105405 -2.766009 0
M  V30 28 C -3.505404 -2.080509 -1.593175 0
M  V30 29 C 2.862458 -1.055467 0.295713 0
M  V30 30 F 2.954583 -1.133366 -1.073793 0
M  V30 31 C 3.951577 -1.488493 1.017906 0
M  V30 32 H 3.933380 -4.187177 5.383656 0
M  V30 33 H 2.919677 -3.299342 4.181162 0
M  V30 34 H 3.442289 -2.535425 5.766853 0
M  V30 35 H 8.154746 -2.317663 4.351780 0
M  V30 36 H 6.883166 -1.065893 2.312874 0
M  V30 37 H 2.745537 -0.896639 4.112192 0
M  V30 38 H -0.837543 0.517607 1.359202 0
M  V30 39 H -1.248700 0.603616 -1.594405 0
M  V30 40 H -2.341690 2.727254 -1.310696 0
M  V30 41 H -0.786781 2.719361 -0.457704 0
M  V30 42 H -2.791066 3.653762 0.764861 0
M  V30 43 H -3.106500 1.007862 1.966007 0
M  V30 44 H -4.357347 2.281204 1.711886 0
M  V30 45 H -4.259958 1.691593 -0.769409 0
M  V30 46 H -4.908947 0.362659 0.320550 0
M  V30 47 H -2.764490 -0.659875 0.517316 0
M  V30 48 H -3.445723 1.057461 -2.761197 0
M  V30 49 H -4.145572 -0.087640 -4.841470 0
M  V30 50 H -3.323078 -2.629777 -0.676152 0
M  V30 51 H 4.812243 -1.861836 0.508854 0
M  V30 END ATOM
M  V30 BEGIN BOND
M  V30 1 1 1 2
M  V30 2 1 2 3
M  V30 3 2 3 4
M  V30 4 1 4 5
M  V30 5 2 5 6
M  V30 6 1 6 7
M  V30 7 2 7 8
M  V30 8 1 8 9
M  V30 9 1 9 10
M  V30 10 2 9 11
M  V30 11 1 11 12
M  V30 12 2 12 13
M  V30 13 1 12 14
M  V30 14 1 14 15
M  V30 15 1 15 16
M  V30 16 1 16 17
M  V30 17 1 17 18
M  V30 18 1 18 19
M  V30 19 1 19 20
M  V30 20 1 20 21
M  V30 21 2 21 22
M  V30 22 1 22 23
M  V30 23 2 23 24
M  V30 24 1 24 25
M  V30 25 1 24 26
M  V30 26 1 26 27
M  V30 27 2 26 28
M  V30 28 1 11 29
M  V30 29 1 29 30
M  V30 30 2 29 31
M  V30 31 1 6 2
M  V30 32 1 31 7
M  V30 33 1 20 15
M  V30 34 1 28 21
M  V30 35 1 1 32
M  V30 36 1 1 33
M  V30 37 1 1 34
M  V30 38 1 4 35
M  V30 39 1 5 36
M  V30 40 1 8 37
M  V30 41 1 14 38
M  V30 42 1 15 39 CFG=3
M  V30 43 1 16 40
M  V30 44 1 16 41
M  V30 45 1 17 42
M  V30 46 1 18 43
M  V30 47 1 18 44
M  V30 48 1 19 45
M  V30 49 1 19 46
M  V30 50 1 20 47 CFG=1
M  V30 51 1 22 48
M  V30 52 1 23 49
M  V30 53 1 28 50
M  V30 54 1 31 51
M  V30 END BOND
M  V30 END CTAB
M  END
>  <Dataset>  (146) 
ChEMBL_Kinases

>  <Ligand_Instance>  (146) 
nan

>  <PDB_ID>  (146) 
nan

>  <Standardized_SMILES>  (146) 
Cn1nccc1-c1cc(F)c(C(=O)N[C@@H]2CNCC[C@H]2c2ccc(F)c(F)c2)c(F)c1

>  <Name>  (146) 
nan

>  <Pocket>  (146) 
nan

>  <ATP_Site>  (146) 
nan

>  <Peripheral>  (146) 
nan

>  <Num_H_Atoms_ProtBoundConf>  (146) 
nan

>  <Num_Resolved_Atoms>  (146) 
nan

>  <Num_Not_Resolved_Atoms>  (146) 
nan

$$$$
CHEMBL397649
     RDKit          3D

  0  0  0  0  0  0  0  0  0  0999 V3000
M  V30 BEGIN CTAB
M  V30 COUNTS 35 37 0 0 0
M  V30 BEGIN ATOM
M  V30 1 C -2.389654 -4.592878 2.332960 0
M  V30 2 O -1.094818 -4.847744 1.782434 0
M  V30 3 C -0.318726 -3.759708 1.371939 0
M  V30 4 C 0.929527 -4.081487 0.846147 0
M  V30 5 C 1.765502 -3.050126 0.413099 0
M  V30 6 C 1.312201 -1.742381 0.526755 0
M  V30 7 N 1.960951 -0.598379 0.168400 0
M  V30 8 C 1.138151 0.424167 0.462391 0
M  V30 9 C -0.048814 -0.029767 1.011678 0
M  V30 10 C 0.061729 -1.422183 1.053622 0
M  V30 11 C -0.738471 -2.457900 1.471283 0
M  V30 12 C -1.169133 0.810689 1.447786 0
M  V30 13 C -1.095206 2.201896 0.911185 0
M  V30 14 N -0.017355 2.502930 0.057776 0
M  V30 15 C -0.340828 2.736381 -1.312208 0
M  V30 16 C 1.228786 1.883295 0.327997 0
M  V30 17 C 2.217755 2.251607 -0.702694 0
M  V30 18 O 2.081242 3.005701 -1.725765 0
M  V30 19 O 3.533020 1.804951 -0.717649 0
M  V30 20 H -2.965329 -4.075531 1.559921 0
M  V30 21 H -2.199625 -3.863340 3.169992 0
M  V30 22 H -2.827962 -5.533203 2.696087 0
M  V30 23 H 1.363684 -5.060176 0.719515 0
M  V30 24 H 2.752637 -3.239719 -0.006928 0
M  V30 25 H 2.901963 -0.448566 -0.253437 0
M  V30 26 H -1.699408 -2.241558 1.878085 0
M  V30 27 H -2.137221 0.301643 1.195253 0
M  V30 28 H -1.152326 0.836910 2.567325 0
M  V30 29 H -1.118845 2.938578 1.751585 0
M  V30 30 H -2.045632 2.381454 0.327686 0
M  V30 31 H 0.009196 1.965185 -2.025279 0
M  V30 32 H -0.127856 3.767702 -1.672677 0
M  V30 33 H -1.466964 2.671022 -1.370292 0
M  V30 34 H 1.605372 2.277141 1.294924 0
M  V30 35 H 3.986623 1.411940 -1.529603 0
M  V30 END ATOM
M  V30 BEGIN BOND
M  V30 1 1 1 2
M  V30 2 1 2 3
M  V30 3 2 3 4
M  V30 4 1 4 5
M  V30 5 2 5 6
M  V30 6 1 6 7
M  V30 7 1 7 8
M  V30 8 2 8 9
M  V30 9 1 9 10
M  V30 10 2 10 11
M  V30 11 1 9 12
M  V30 12 1 12 13
M  V30 13 1 13 14
M  V30 14 1 14 15
M  V30 15 1 14 16
M  V30 16 1 16 17
M  V30 17 2 17 18
M  V30 18 1 17 19
M  V30 19 1 11 3
M  V30 20 1 10 6
M  V30 21 1 16 8
M  V30 22 1 1 20
M  V30 23 1 1 21
M  V30 24 1 1 22
M  V30 25 1 4 23
M  V30 26 1 5 24
M  V30 27 1 7 25
M  V30 28 1 11 26
M  V30 29 1 12 27
M  V30 30 1 12 28
M  V30 31 1 13 29
M  V30 32 1 13 30
M  V30 33 1 15 31
M  V30 34 1 15 32
M  V30 35 1 15 33
M  V30 36 1 16 34
M  V30 37 1 19 35
M  V30 END BOND
M  V30 END CTAB
M  END
>  <Dataset>  (147) 
ChEMBL_Kinases

>  <Ligand_Instance>  (147) 
nan

>  <PDB_ID>  (147) 
nan

>  <Standardized_SMILES>  (147) 
COc1ccc2[nH]c3c(c2c1)CCN(C)C3C(=O)O

>  <Name>  (147) 
nan

>  <Pocket>  (147) 
nan

>  <ATP_Site>  (147) 
nan

>  <Peripheral>  (147) 
nan

>  <Num_H_Atoms_ProtBoundConf>  (147) 
nan

>  <Num_Resolved_Atoms>  (147) 
nan

>  <Num_Not_Resolved_Atoms>  (147) 
nan

$$$$
CHEMBL397642
     RDKit          3D

  0  0  0  0  0  0  0  0  0  0999 V3000
M  V30 BEGIN CTAB
M  V30 COUNTS 62 66 0 0 0
M  V30 BEGIN ATOM
M  V30 1 C 4.007095 1.914820 3.848746 0
M  V30 2 C 4.467938 1.067672 2.705167 0
M  V30 3 C 5.878070 0.574860 2.831933 0
M  V30 4 N 6.868079 1.606727 2.534988 0
M  V30 5 C 6.627617 2.305136 1.295655 0
M  V30 6 O 7.608308 2.846458 0.693068 0
M  V30 7 C 5.306300 2.419706 0.699602 0
M  V30 8 N 4.744514 2.964871 -0.388227 0
M  V30 9 C 3.412624 2.742089 -0.426877 0
M  V30 10 C 2.423093 3.092863 -1.322012 0
M  V30 11 C 1.100080 2.702685 -1.080553 0
M  V30 12 C 0.748166 1.970565 0.036401 0
M  V30 13 C -0.639056 1.575601 0.255454 0
M  V30 14 O -1.448611 1.911959 -0.659574 0
M  V30 15 N -0.983626 0.875989 1.417125 0
M  V30 16 C -2.327943 0.415592 1.767777 0
M  V30 17 N -2.910721 -0.676376 1.528714 0
M  V30 18 C -4.165849 -0.842458 1.969737 0
M  V30 19 C -4.675132 -2.182000 1.598017 0
M  V30 20 O -4.847785 -2.794125 2.701871 0
M  V30 21 N -4.924103 -2.700076 0.323956 0
M  V30 22 C -4.808049 -2.192254 -1.030186 0
M  V30 23 C -3.497775 -2.758158 -1.594939 0
M  V30 24 C -3.191638 -4.008163 -0.835327 0
M  V30 25 N -2.126188 -4.804792 -1.338351 0
M  V30 26 C -2.320120 -5.275253 -2.676332 0
M  V30 27 C -0.830331 -4.167313 -1.202886 0
M  V30 28 C -4.427555 -4.846599 -0.583124 0
M  V30 29 C -5.406243 -4.081008 0.287579 0
M  V30 30 C -4.810601 0.210638 2.693520 0
M  V30 31 S -3.396278 1.478561 2.669702 0
M  V30 32 C 1.786182 1.650683 0.895658 0
M  V30 33 C 3.098258 2.011561 0.699793 0
M  V30 34 C 4.266175 1.805759 1.405801 0
M  V30 35 H 3.476296 1.295623 4.595374 0
M  V30 36 H 3.224305 2.612933 3.428956 0
M  V30 37 H 4.820462 2.541347 4.279266 0
M  V30 38 H 3.820423 0.140280 2.698566 0
M  V30 39 H 6.010205 0.117170 3.817358 0
M  V30 40 H 6.017682 -0.216971 2.055531 0
M  V30 41 H 7.705434 1.917241 3.060333 0
M  V30 42 H 5.314948 3.488105 -1.088110 0
M  V30 43 H 2.647795 3.665180 -2.211248 0
M  V30 44 H 0.369327 3.009913 -1.823105 0
M  V30 45 H -0.352737 0.594705 2.171004 0
M  V30 46 H -5.651222 -2.487703 -1.671227 0
M  V30 47 H -4.810897 -1.070176 -1.056672 0
M  V30 48 H -2.746017 -1.958878 -1.441298 0
M  V30 49 H -3.579877 -2.917820 -2.691191 0
M  V30 50 H -2.869541 -3.663381 0.192178 0
M  V30 51 H -2.166751 -6.362010 -2.756643 0
M  V30 52 H -1.550999 -4.806363 -3.324749 0
M  V30 53 H -3.312133 -5.032284 -3.101799 0
M  V30 54 H -0.319274 -4.557191 -0.303647 0
M  V30 55 H -0.259741 -4.331023 -2.135736 0
M  V30 56 H -1.032243 -3.074519 -1.069892 0
M  V30 57 H -4.941572 -5.145160 -1.493080 0
M  V30 58 H -4.094574 -5.765408 -0.050536 0
M  V30 59 H -6.408271 -4.116915 -0.182920 0
M  V30 60 H -5.448497 -4.548146 1.282491 0
M  V30 61 H -5.850588 -0.051995 3.003708 0
M  V30 62 H 1.581979 1.084988 1.778920 0
M  V30 END ATOM
M  V30 BEGIN BOND
M  V30 1 1 1 2
M  V30 2 1 2 3
M  V30 3 1 3 4
M  V30 4 1 4 5
M  V30 5 2 5 6
M  V30 6 1 5 7
M  V30 7 1 7 8
M  V30 8 1 8 9
M  V30 9 2 9 10
M  V30 10 1 10 11
M  V30 11 2 11 12
M  V30 12 1 12 13
M  V30 13 2 13 14
M  V30 14 1 13 15
M  V30 15 1 15 16
M  V30 16 2 16 17
M  V30 17 1 17 18
M  V30 18 1 18 19
M  V30 19 2 19 20
M  V30 20 1 19 21
M  V30 21 1 21 22
M  V30 22 1 22 23
M  V30 23 1 23 24
M  V30 24 1 24 25
M  V30 25 1 25 26
M  V30 26 1 25 27
M  V30 27 1 24 28
M  V30 28 1 28 29
M  V30 29 2 18 30
M  V30 30 1 30 31
M  V30 31 1 12 32
M  V30 32 2 32 33
M  V30 33 1 33 34
M  V30 34 1 34 2
M  V30 35 2 34 7
M  V30 36 1 33 9
M  V30 37 1 31 16
M  V30 38 1 29 21
M  V30 39 1 1 35
M  V30 40 1 1 36
M  V30 41 1 1 37
M  V30 42 1 2 38
M  V30 43 1 3 39
M  V30 44 1 3 40
M  V30 45 1 4 41
M  V30 46 1 8 42
M  V30 47 1 10 43
M  V30 48 1 11 44
M  V30 49 1 15 45
M  V30 50 1 22 46
M  V30 51 1 22 47
M  V30 52 1 23 48
M  V30 53 1 23 49
M  V30 54 1 24 50
M  V30 55 1 26 51
M  V30 56 1 26 52
M  V30 57 1 26 53
M  V30 58 1 27 54
M  V30 59 1 27 55
M  V30 60 1 27 56
M  V30 61 1 28 57
M  V30 62 1 28 58
M  V30 63 1 29 59
M  V30 64 1 29 60
M  V30 65 1 30 61
M  V30 66 1 32 62
M  V30 END BOND
M  V30 END CTAB
M  END
>  <Dataset>  (148) 
ChEMBL_Kinases

>  <Ligand_Instance>  (148) 
nan

>  <PDB_ID>  (148) 
nan

>  <Standardized_SMILES>  (148) 
CC1CNC(=O)c2[nH]c3ccc(C(=O)Nc4nc(C(=O)N5CCC(N(C)C)CC5)cs4)cc3c21

>  <Name>  (148) 
nan

>  <Pocket>  (148) 
nan

>  <ATP_Site>  (148) 
nan

>  <Peripheral>  (148) 
nan

>  <Num_H_Atoms_ProtBoundConf>  (148) 
nan

>  <Num_Resolved_Atoms>  (148) 
nan

>  <Num_Not_Resolved_Atoms>  (148) 
nan

$$$$
CHEMBL3976283
     RDKit          3D

  0  0  0  0  0  0  0  0  0  0999 V3000
M  V30 BEGIN CTAB
M  V30 COUNTS 35 38 0 0 0
M  V30 BEGIN ATOM
M  V30 1 O -1.888827 -3.083804 0.081209 0
M  V30 2 C -1.492200 -1.875818 0.219067 0
M  V30 3 C -0.179242 -1.233555 0.442785 0
M  V30 4 C 0.911402 -2.151921 0.580254 0
M  V30 5 C 1.719825 -1.927592 1.669401 0
M  V30 6 C 2.800711 -2.759553 1.908369 0
M  V30 7 C 3.118106 -3.839873 1.079386 0
M  V30 8 F 4.181061 -4.646206 1.335153 0
M  V30 9 C 2.290756 -4.060585 -0.023318 0
M  V30 10 C 1.239353 -3.225432 -0.228219 0
M  V30 11 C -0.369516 0.066341 0.506376 0
M  V30 12 C 0.674863 1.012625 0.710331 0
M  V30 13 C 1.837659 0.850500 -0.031608 0
M  V30 14 C 2.934391 1.690799 0.043163 0
M  V30 15 N 2.942135 2.751020 0.869042 0
M  V30 16 C 1.856234 2.973055 1.618885 0
M  V30 17 C 0.778919 2.116782 1.518158 0
M  V30 18 C -1.804456 0.349172 0.330417 0
M  V30 19 C -2.441054 1.594557 0.331598 0
M  V30 20 C -3.824463 1.709752 0.151265 0
M  V30 21 C -4.523411 0.505028 -0.030395 0
M  V30 22 C -3.853794 -0.682062 -0.021791 0
M  V30 23 C -2.508476 -0.835787 0.151546 0
M  V30 24 H 1.604798 -1.127590 2.417424 0
M  V30 25 H 3.485564 -2.655329 2.745963 0
M  V30 26 H 2.480630 -4.894532 -0.719288 0
M  V30 27 H 0.583967 -3.376628 -1.075944 0
M  V30 28 H 1.979149 0.052265 -0.738954 0
M  V30 29 H 3.823069 1.552175 -0.540579 0
M  V30 30 H 1.806963 3.809084 2.296413 0
M  V30 31 H -0.131586 2.274361 2.127908 0
M  V30 32 H -1.859693 2.520883 0.477285 0
M  V30 33 H -4.274780 2.689001 0.160298 0
M  V30 34 H -5.587860 0.592727 -0.170381 0
M  V30 35 H -4.416033 -1.605315 -0.161928 0
M  V30 END ATOM
M  V30 BEGIN BOND
M  V30 1 2 1 2
M  V30 2 1 2 3
M  V30 3 1 3 4
M  V30 4 2 4 5
M  V30 5 1 5 6
M  V30 6 2 6 7
M  V30 7 1 7 8
M  V30 8 1 7 9
M  V30 9 2 9 10
M  V30 10 2 3 11
M  V30 11 1 11 12
M  V30 12 2 12 13
M  V30 13 1 13 14
M  V30 14 2 14 15
M  V30 15 1 15 16
M  V30 16 2 16 17
M  V30 17 1 11 18
M  V30 18 2 18 19
M  V30 19 1 19 20
M  V30 20 2 20 21
M  V30 21 1 21 22
M  V30 22 2 22 23
M  V30 23 1 23 2
M  V30 24 1 10 4
M  V30 25 1 17 12
M  V30 26 1 23 18
M  V30 27 1 5 24
M  V30 28 1 6 25
M  V30 29 1 9 26
M  V30 30 1 10 27
M  V30 31 1 13 28
M  V30 32 1 14 29
M  V30 33 1 16 30
M  V30 34 1 17 31
M  V30 35 1 19 32
M  V30 36 1 20 33
M  V30 37 1 21 34
M  V30 38 1 22 35
M  V30 END BOND
M  V30 END CTAB
M  END
>  <Dataset>  (149) 
ChEMBL_Kinases

>  <Ligand_Instance>  (149) 
nan

>  <PDB_ID>  (149) 
nan

>  <Standardized_SMILES>  (149) 
O=C1C(c2ccc(F)cc2)=C(c2ccncc2)c2ccccc21

>  <Name>  (149) 
nan

>  <Pocket>  (149) 
nan

>  <ATP_Site>  (149) 
nan

>  <Peripheral>  (149) 
nan

>  <Num_H_Atoms_ProtBoundConf>  (149) 
nan

>  <Num_Resolved_Atoms>  (149) 
nan

>  <Num_Not_Resolved_Atoms>  (149) 
nan

$$$$
CHEMBL4868956
     RDKit          3D

  0  0  0  0  0  0  0  0  0  0999 V3000
M  V30 BEGIN CTAB
M  V30 COUNTS 70 74 0 0 0
M  V30 BEGIN ATOM
M  V30 1 O 0.674812 -5.400447 3.237172 0
M  V30 2 C -0.062666 -4.474098 2.812696 0
M  V30 3 N -0.198993 -4.329545 1.422242 0
M  V30 4 C 0.478906 -5.208169 0.489144 0
M  V30 5 C 0.133524 -4.798740 -0.928242 0
M  V30 6 C 0.573110 -3.392294 -1.156462 0
M  V30 7 C 0.580523 -3.004431 -2.622825 0
M  V30 8 N 1.353682 -3.896493 -3.425718 0
M  V30 9 C 1.215716 -3.524011 -4.814403 0
M  V30 10 C 1.715898 -2.135113 -4.966303 0
M  V30 11 C 3.086516 -2.081500 -5.237959 0
M  V30 12 C 3.739620 -0.872543 -5.417669 0
M  V30 13 C 3.037699 0.295749 -5.329448 0
M  V30 14 F 3.577931 1.534638 -5.488396 0
M  V30 15 C 1.691252 0.243718 -5.062667 0
M  V30 16 C 1.051488 -0.946069 -4.886371 0
M  V30 17 C 0.854882 -5.250951 -3.280325 0
M  V30 18 C 0.881190 -5.725167 -1.864869 0
M  V30 19 C -0.709096 -3.634152 3.815428 0
M  V30 20 C -0.465830 -3.911482 5.144772 0
M  V30 21 N -1.041705 -3.161539 6.131043 0
M  V30 22 C -1.856383 -2.138508 5.848886 0
M  V30 23 C -2.128656 -1.824033 4.538842 0
M  V30 24 N -2.976787 -0.763192 4.050236 0
M  V30 25 C -2.218437 0.416266 3.867896 0
M  V30 26 O -0.985899 0.299416 4.163502 0
M  V30 27 C -2.759014 1.671824 3.387505 0
M  V30 28 C -4.096872 1.780979 3.072726 0
M  V30 29 C -4.473049 3.029935 2.628697 0
M  V30 30 N -3.634118 4.069160 2.502593 0
M  V30 31 C -2.326746 3.990157 2.802009 0
M  V30 32 N -1.526561 5.143787 2.633836 0
M  V30 33 C -0.143777 5.323262 2.877029 0
M  V30 34 O 0.527009 4.354732 3.306362 0
M  V30 35 C 0.586271 6.581867 2.662076 0
M  V30 36 C -0.156353 7.839615 2.823572 0
M  V30 37 C 0.196164 7.327985 1.431962 0
M  V30 38 C -1.935731 2.750107 3.246770 0
M  V30 39 C -1.547681 -2.581310 3.516162 0
M  V30 40 H -0.814701 -3.556028 1.068809 0
M  V30 41 H 1.584838 -5.100003 0.596720 0
M  V30 42 H 0.259324 -6.278385 0.683787 0
M  V30 43 H -0.965153 -4.871358 -1.019864 0
M  V30 44 H 1.594755 -3.190815 -0.730249 0
M  V30 45 H -0.097046 -2.661856 -0.649903 0
M  V30 46 H -0.471090 -2.875558 -2.975542 0
M  V30 47 H 1.053231 -1.980109 -2.668065 0
M  V30 48 H 1.740298 -4.234305 -5.473215 0
M  V30 49 H 0.152158 -3.504366 -5.136696 0
M  V30 50 H 3.774330 -2.935927 -5.336616 0
M  V30 51 H 4.793746 -0.772282 -5.628697 0
M  V30 52 H 1.080884 1.155200 -4.981481 0
M  V30 53 H -0.009987 -1.071866 -4.672470 0
M  V30 54 H -0.154706 -5.380391 -3.729662 0
M  V30 55 H 1.531186 -5.905715 -3.863196 0
M  V30 56 H 0.430903 -6.717434 -1.804877 0
M  V30 57 H 1.926975 -5.771402 -1.510333 0
M  V30 58 H 0.174912 -4.712989 5.503045 0
M  V30 59 H -2.344446 -1.505196 6.576756 0
M  V30 60 H -3.996068 -0.758299 3.832658 0
M  V30 61 H -4.797079 0.982506 3.157671 0
M  V30 62 H -5.499781 3.233777 2.352185 0
M  V30 63 H -1.963746 6.019412 2.282499 0
M  V30 64 H 1.673316 6.544760 2.908215 0
M  V30 65 H -1.205608 7.835372 3.145827 0
M  V30 66 H 0.421585 8.755664 3.083793 0
M  V30 67 H 1.006192 7.791681 0.865297 0
M  V30 68 H -0.690600 7.007996 0.830298 0
M  V30 69 H -0.898599 2.611179 3.506687 0
M  V30 70 H -1.720089 -2.386990 2.473621 0
M  V30 END ATOM
M  V30 BEGIN BOND
M  V30 1 2 1 2
M  V30 2 1 2 3
M  V30 3 1 3 4
M  V30 4 1 4 5
M  V30 5 1 5 6
M  V30 6 1 6 7
M  V30 7 1 7 8
M  V30 8 1 8 9
M  V30 9 1 9 10
M  V30 10 2 10 11
M  V30 11 1 11 12
M  V30 12 2 12 13
M  V30 13 1 13 14
M  V30 14 1 13 15
M  V30 15 2 15 16
M  V30 16 1 8 17
M  V30 17 1 17 18
M  V30 18 1 2 19
M  V30 19 2 19 20
M  V30 20 1 20 21
M  V30 21 2 21 22
M  V30 22 1 22 23
M  V30 23 1 23 24
M  V30 24 1 24 25
M  V30 25 2 25 26
M  V30 26 1 25 27
M  V30 27 2 27 28
M  V30 28 1 28 29
M  V30 29 2 29 30
M  V30 30 1 30 31
M  V30 31 1 31 32
M  V30 32 1 32 33
M  V30 33 2 33 34
M  V30 34 1 33 35
M  V30 35 1 35 36
M  V30 36 1 36 37
M  V30 37 2 31 38
M  V30 38 2 23 39
M  V30 39 1 18 5
M  V30 40 1 39 19
M  V30 41 1 16 10
M  V30 42 1 38 27
M  V30 43 1 37 35
M  V30 44 1 3 40
M  V30 45 1 4 41
M  V30 46 1 4 42
M  V30 47 1 5 43
M  V30 48 1 6 44
M  V30 49 1 6 45
M  V30 50 1 7 46
M  V30 51 1 7 47
M  V30 52 1 9 48
M  V30 53 1 9 49
M  V30 54 1 11 50
M  V30 55 1 12 51
M  V30 56 1 15 52
M  V30 57 1 16 53
M  V30 58 1 17 54
M  V30 59 1 17 55
M  V30 60 1 18 56
M  V30 61 1 18 57
M  V30 62 1 20 58
M  V30 63 1 22 59
M  V30 64 1 24 60
M  V30 65 1 28 61
M  V30 66 1 29 62
M  V30 67 1 32 63
M  V30 68 1 35 64
M  V30 69 1 36 65
M  V30 70 1 36 66
M  V30 71 1 37 67
M  V30 72 1 37 68
M  V30 73 1 38 69
M  V30 74 1 39 70
M  V30 END BOND
M  V30 END CTAB
M  END
>  <Dataset>  (150) 
ChEMBL_Kinases

>  <Ligand_Instance>  (150) 
nan

>  <PDB_ID>  (150) 
nan

>  <Standardized_SMILES>  (150) 
O=C(NCC1CCN(Cc2ccc(F)cc2)CC1)c1cncc(NC(=O)c2ccnc(NC(=O)C3CC3)c2)c1

>  <Name>  (150) 
nan

>  <Pocket>  (150) 
nan

>  <ATP_Site>  (150) 
nan

>  <Peripheral>  (150) 
nan

>  <Num_H_Atoms_ProtBoundConf>  (150) 
nan

>  <Num_Resolved_Atoms>  (150) 
nan

>  <Num_Not_Resolved_Atoms>  (150) 
nan

$$$$
CHEMBL4868996
     RDKit          3D

  0  0  0  0  0  0  0  0  0  0999 V3000
M  V30 BEGIN CTAB
M  V30 COUNTS 46 47 0 0 0
M  V30 BEGIN ATOM
M  V30 1 C -2.429281 -4.182284 -1.066430 0
M  V30 2 O -2.547537 -3.917097 0.308770 0
M  V30 3 C -1.662264 -3.191412 1.053271 0
M  V30 4 C -0.559071 -2.675270 0.400906 0
M  V30 5 C 0.356783 -1.936162 1.123949 0
M  V30 6 N 1.509209 -1.399186 0.433552 0
M  V30 7 C 1.303133 -0.078826 -0.118592 0
M  V30 8 O 0.090591 0.007630 0.297385 0
M  V30 9 C 2.419645 0.546335 -0.837255 0 CFG=2
M  V30 10 N 3.474022 -0.488828 -0.968616 0
M  V30 11 C 2.976715 1.746673 -0.186003 0
M  V30 12 C 2.144052 2.931624 0.048052 0
M  V30 13 C 3.081491 3.974645 0.719730 0
M  V30 14 C 1.684762 3.566889 -1.258047 0
M  V30 15 C 0.964526 2.830298 0.937896 0
M  V30 16 C 0.167801 -1.720003 2.475669 0
M  V30 17 C -0.954491 -2.261763 3.071355 0
M  V30 18 C -1.901390 -3.007675 2.398130 0
M  V30 19 C -3.049925 -3.534406 3.121207 0
M  V30 20 C -4.109187 -4.293521 2.676780 0
M  V30 21 N -4.968069 -4.573451 3.680825 0
M  V30 22 C -4.400358 -3.963032 4.746655 0
M  V30 23 O -3.293188 -3.369817 4.397099 0
M  V30 24 H -1.422110 -4.524969 -1.369711 0
M  V30 25 H -2.656925 -3.244753 -1.614275 0
M  V30 26 H -3.202435 -4.936468 -1.346809 0
M  V30 27 H -0.398566 -2.835368 -0.651483 0
M  V30 28 H 2.411734 -1.982198 0.371923 0
M  V30 29 H 2.144034 0.728081 -1.922040 0
M  V30 30 H 2.977102 -1.294039 -1.458166 0
M  V30 31 H 4.182279 -0.178249 -1.668121 0
M  V30 32 H 3.841355 2.091511 -0.845300 0
M  V30 33 H 3.539907 1.437397 0.753028 0
M  V30 34 H 2.569334 4.959142 0.724423 0
M  V30 35 H 3.250004 3.706842 1.781716 0
M  V30 36 H 4.012291 4.077363 0.154036 0
M  V30 37 H 1.651747 4.679053 -1.184960 0
M  V30 38 H 2.341565 3.324727 -2.100326 0
M  V30 39 H 0.666453 3.202415 -1.510522 0
M  V30 40 H 1.085761 2.060683 1.723850 0
M  V30 41 H 0.850064 3.795877 1.532359 0
M  V30 42 H -0.012372 2.677307 0.453417 0
M  V30 43 H 0.874673 -1.147818 3.040797 0
M  V30 44 H -1.097075 -2.088488 4.132688 0
M  V30 45 H -4.273623 -4.642534 1.667879 0
M  V30 46 H -4.744868 -3.923344 5.767208 0
M  V30 END ATOM
M  V30 BEGIN BOND
M  V30 1 1 1 2
M  V30 2 1 2 3
M  V30 3 2 3 4
M  V30 4 1 4 5
M  V30 5 1 5 6
M  V30 6 1 6 7
M  V30 7 2 7 8
M  V30 8 1 7 9
M  V30 9 1 9 10
M  V30 10 1 9 11
M  V30 11 1 11 12
M  V30 12 1 12 13
M  V30 13 1 12 14
M  V30 14 1 12 15
M  V30 15 2 5 16
M  V30 16 1 16 17
M  V30 17 2 17 18
M  V30 18 1 18 19
M  V30 19 2 19 20
M  V30 20 1 20 21
M  V30 21 2 21 22
M  V30 22 1 22 23
M  V30 23 1 18 3
M  V30 24 1 23 19
M  V30 25 1 1 24
M  V30 26 1 1 25
M  V30 27 1 1 26
M  V30 28 1 4 27
M  V30 29 1 6 28
M  V30 30 1 9 29 CFG=3
M  V30 31 1 10 30
M  V30 32 1 10 31
M  V30 33 1 11 32
M  V30 34 1 11 33
M  V30 35 1 13 34
M  V30 36 1 13 35
M  V30 37 1 13 36
M  V30 38 1 14 37
M  V30 39 1 14 38
M  V30 40 1 14 39
M  V30 41 1 15 40
M  V30 42 1 15 41
M  V30 43 1 15 42
M  V30 44 1 16 43
M  V30 45 1 17 44
M  V30 46 1 20 45
M  V30 47 1 22 46
M  V30 END BOND
M  V30 END CTAB
M  END
>  <Dataset>  (151) 
ChEMBL_Kinases

>  <Ligand_Instance>  (151) 
nan

>  <PDB_ID>  (151) 
nan

>  <Standardized_SMILES>  (151) 
COc1cc(NC(=O)[C@H](N)CC(C)(C)C)ccc1-c1cnco1

>  <Name>  (151) 
nan

>  <Pocket>  (151) 
nan

>  <ATP_Site>  (151) 
nan

>  <Peripheral>  (151) 
nan

>  <Num_H_Atoms_ProtBoundConf>  (151) 
nan

>  <Num_Resolved_Atoms>  (151) 
nan

>  <Num_Not_Resolved_Atoms>  (151) 
nan

$$$$
CHEMBL4869006
     RDKit          3D

  0  0  0  0  0  0  0  0  0  0999 V3000
M  V30 BEGIN CTAB
M  V30 COUNTS 64 68 0 0 0
M  V30 BEGIN ATOM
M  V30 1 C 6.858392 -0.227027 4.772294 0
M  V30 2 C 5.645665 -0.241560 3.905050 0
M  V30 3 C 4.460673 -0.598910 4.861066 0
M  V30 4 O 5.394659 1.034548 3.365219 0
M  V30 5 C 4.441664 1.403551 2.484066 0
M  V30 6 C 3.417987 0.747859 1.892731 0
M  V30 7 C 2.464897 1.160070 1.004513 0
M  V30 8 C 2.573901 2.514196 0.643655 0
M  V30 9 C 1.624031 3.218684 -0.208919 0
M  V30 10 C 0.478953 2.617108 -0.614637 0
M  V30 11 C -0.469129 3.261785 -1.344092 0
M  V30 12 N -1.792356 2.947538 -1.811536 0
M  V30 13 C -2.817212 2.068265 -1.344338 0
M  V30 14 C -3.876193 2.835357 -0.891789 0
M  V30 15 C -5.060871 2.292551 -0.355826 0
M  V30 16 N -5.100690 0.954772 -0.310006 0
M  V30 17 C -4.078673 0.161070 -0.747435 0
M  V30 18 C -4.128636 -1.213590 -0.720138 0
M  V30 19 C -3.084273 -1.985451 -1.192245 0
M  V30 20 C -3.255012 -3.431385 -1.097828 0
M  V30 21 C -2.706403 -4.325723 -2.024240 0
M  V30 22 C -2.929587 -5.675698 -1.808041 0
M  V30 23 C -3.658627 -6.155377 -0.733354 0
M  V30 24 S -3.779219 -7.906916 -0.723077 0
M  V30 25 C -2.204696 -8.505168 -0.138221 0
M  V30 26 O -4.027410 -8.421581 -2.086618 0
M  V30 27 O -4.826089 -8.328308 0.281954 0
M  V30 28 C -4.199430 -5.276174 0.178896 0
M  V30 29 C -3.989143 -3.932304 -0.018348 0
M  V30 30 C -1.945144 -1.345564 -1.710086 0
M  V30 31 C -1.832845 0.030873 -1.763576 0
M  V30 32 C -2.923180 0.702030 -1.270489 0
M  V30 33 C -0.147411 4.604350 -1.639748 0
M  V30 34 C 0.992627 5.234081 -1.247643 0
M  V30 35 N 1.875428 4.528554 -0.528159 0
M  V30 36 C 3.599013 3.278394 1.196313 0
M  V30 37 C 4.502167 2.737647 2.088530 0
M  V30 38 H 7.449875 -1.131403 4.591597 0
M  V30 39 H 6.613023 -0.202157 5.871799 0
M  V30 40 H 7.456478 0.722784 4.635719 0
M  V30 41 H 5.570854 -1.026996 3.139451 0
M  V30 42 H 3.826260 -1.371272 4.426037 0
M  V30 43 H 4.837303 -0.892783 5.855888 0
M  V30 44 H 3.854694 0.316971 4.989351 0
M  V30 45 H 3.354770 -0.312583 2.183318 0
M  V30 46 H 1.687105 0.591618 0.579102 0
M  V30 47 H 0.196646 1.591511 -0.407329 0
M  V30 48 H -2.142332 3.417087 -2.688790 0
M  V30 49 H -3.975168 3.934835 -0.874762 0
M  V30 50 H -5.912500 2.854217 0.009602 0
M  V30 51 H -5.063572 -1.607616 -0.298028 0
M  V30 52 H -2.146526 -3.905128 -2.845231 0
M  V30 53 H -2.458326 -6.270356 -2.586480 0
M  V30 54 H -2.268702 -9.499802 0.344125 0
M  V30 55 H -1.829761 -7.793831 0.622818 0
M  V30 56 H -1.465603 -8.526348 -0.975033 0
M  V30 57 H -4.743176 -5.765167 0.968987 0
M  V30 58 H -4.456717 -3.315157 0.757008 0
M  V30 59 H -1.148299 -1.988670 -2.074466 0
M  V30 60 H -0.969684 0.535748 -2.162486 0
M  V30 61 H -0.798747 5.273828 -2.221098 0
M  V30 62 H 1.249107 6.257230 -1.461962 0
M  V30 63 H 3.720320 4.347168 0.935722 0
M  V30 64 H 5.275312 3.418341 2.474957 0
M  V30 END ATOM
M  V30 BEGIN BOND
M  V30 1 1 1 2
M  V30 2 1 2 3
M  V30 3 1 2 4
M  V30 4 1 4 5
M  V30 5 2 5 6
M  V30 6 1 6 7
M  V30 7 2 7 8
M  V30 8 1 8 9
M  V30 9 2 9 10
M  V30 10 1 10 11
M  V30 11 1 11 12
M  V30 12 1 12 13
M  V30 13 2 13 14
M  V30 14 1 14 15
M  V30 15 2 15 16
M  V30 16 1 16 17
M  V30 17 2 17 18
M  V30 18 1 18 19
M  V30 19 1 19 20
M  V30 20 2 20 21
M  V30 21 1 21 22
M  V30 22 2 22 23
M  V30 23 1 23 24
M  V30 24 1 24 25
M  V30 25 2 24 26
M  V30 26 2 24 27
M  V30 27 1 23 28
M  V30 28 2 28 29
M  V30 29 2 19 30
M  V30 30 1 30 31
M  V30 31 2 31 32
M  V30 32 2 11 33
M  V30 33 1 33 34
M  V30 34 2 34 35
M  V30 35 1 8 36
M  V30 36 2 36 37
M  V30 37 1 37 5
M  V30 38 1 35 9
M  V30 39 1 32 13
M  V30 40 1 32 17
M  V30 41 1 29 20
M  V30 42 1 1 38
M  V30 43 1 1 39
M  V30 44 1 1 40
M  V30 45 1 2 41
M  V30 46 1 3 42
M  V30 47 1 3 43
M  V30 48 1 3 44
M  V30 49 1 6 45
M  V30 50 1 7 46
M  V30 51 1 10 47
M  V30 52 1 12 48
M  V30 53 1 14 49
M  V30 54 1 15 50
M  V30 55 1 18 51
M  V30 56 1 21 52
M  V30 57 1 22 53
M  V30 58 1 25 54
M  V30 59 1 25 55
M  V30 60 1 25 56
M  V30 61 1 28 57
M  V30 62 1 29 58
M  V30 63 1 30 59
M  V30 64 1 31 60
M  V30 65 1 33 61
M  V30 66 1 34 62
M  V30 67 1 36 63
M  V30 68 1 37 64
M  V30 END BOND
M  V30 END CTAB
M  END
>  <Dataset>  (152) 
ChEMBL_Kinases

>  <Ligand_Instance>  (152) 
nan

>  <PDB_ID>  (152) 
nan

>  <Standardized_SMILES>  (152) 
CC(C)Oc1ccc(-c2cc(Nc3ccnc4cc(-c5ccc(S(C)(=O)=O)cc5)ccc34)ccn2)cc1

>  <Name>  (152) 
nan

>  <Pocket>  (152) 
nan

>  <ATP_Site>  (152) 
nan

>  <Peripheral>  (152) 
nan

>  <Num_H_Atoms_ProtBoundConf>  (152) 
nan

>  <Num_Resolved_Atoms>  (152) 
nan

>  <Num_Not_Resolved_Atoms>  (152) 
nan

$$$$
CHEMBL3701786
     RDKit          3D

  0  0  0  0  0  0  0  0  0  0999 V3000
M  V30 BEGIN CTAB
M  V30 COUNTS 50 54 0 0 0
M  V30 BEGIN ATOM
M  V30 1 C 3.005581 -6.127083 3.500394 0
M  V30 2 C 3.711065 -4.863806 3.185002 0
M  V30 3 N 4.990675 -4.527923 3.419584 0
M  V30 4 N 5.158887 -3.288127 2.957217 0
M  V30 5 C 3.994336 -2.853745 2.438448 0
M  V30 6 C 3.770152 -1.540303 1.831284 0
M  V30 7 C 4.791297 -0.591700 1.737795 0
M  V30 8 C 4.509974 0.641982 1.146867 0
M  V30 9 F 5.487828 1.560678 1.053086 0
M  V30 10 C 3.245858 0.933690 0.657876 0
M  V30 11 C 2.941455 2.228432 0.035024 0
M  V30 12 C 2.228206 0.006442 0.743572 0
M  V30 13 C 0.863184 0.202498 0.264630 0
M  V30 14 C -0.168454 -0.198807 1.115758 0
M  V30 15 C -1.515741 -0.076311 0.799809 0
M  V30 16 C -1.830919 0.473231 -0.424089 0
M  V30 17 C -0.831842 0.879082 -1.286350 0
M  V30 18 C 0.501543 0.747902 -0.951699 0
M  V30 19 N -1.408785 1.408638 -2.474965 0
M  V30 20 C -2.825925 1.311012 -2.307306 0
M  V30 21 O -3.784184 1.645153 -3.077335 0
M  V30 22 C -3.172037 0.709065 -0.990117 0
M  V30 23 C -3.811189 -0.608347 -1.278928 0
M  V30 24 C -5.148149 -0.695257 -0.583041 0
M  V30 25 O -4.925809 -0.399773 0.759461 0
M  V30 26 C -4.779764 0.970664 0.917361 0
M  V30 27 C -4.010902 1.635122 -0.160825 0
M  V30 28 C 2.548382 -1.206774 1.337391 0
M  V30 29 N 3.068008 -3.840414 2.575335 0
M  V30 30 H 2.057844 -5.965966 4.044552 0
M  V30 31 H 3.691647 -6.736310 4.129071 0
M  V30 32 H 2.800761 -6.732196 2.587285 0
M  V30 33 H 5.775942 -0.829081 2.122874 0
M  V30 34 H 1.902176 2.549106 0.182560 0
M  V30 35 H 3.597199 2.983814 0.559476 0
M  V30 36 H 3.295326 2.260154 -1.018641 0
M  V30 37 H 0.084321 -0.634334 2.085801 0
M  V30 38 H -2.262195 -0.405821 1.502067 0
M  V30 39 H 1.303627 1.054079 -1.600570 0
M  V30 40 H -0.977845 1.808813 -3.343875 0
M  V30 41 H -3.160632 -1.453225 -0.982931 0
M  V30 42 H -4.022934 -0.776188 -2.362379 0
M  V30 43 H -5.571522 -1.707015 -0.710387 0
M  V30 44 H -5.804204 0.077031 -1.004678 0
M  V30 45 H -5.798447 1.406003 1.010547 0
M  V30 46 H -4.318113 1.104408 1.938058 0
M  V30 47 H -3.392155 2.439493 0.258113 0
M  V30 48 H -4.748405 2.130848 -0.855515 0
M  V30 49 H 1.761302 -1.958832 1.418075 0
M  V30 50 H 2.085102 -3.791438 2.268522 0
M  V30 END ATOM
M  V30 BEGIN BOND
M  V30 1 1 1 2
M  V30 2 2 2 3
M  V30 3 1 3 4
M  V30 4 2 4 5
M  V30 5 1 5 6
M  V30 6 2 6 7
M  V30 7 1 7 8
M  V30 8 1 8 9
M  V30 9 2 8 10
M  V30 10 1 10 11
M  V30 11 1 10 12
M  V30 12 1 12 13
M  V30 13 2 13 14
M  V30 14 1 14 15
M  V30 15 2 15 16
M  V30 16 1 16 17
M  V30 17 2 17 18
M  V30 18 1 17 19
M  V30 19 1 19 20
M  V30 20 2 20 21
M  V30 21 1 20 22
M  V30 22 1 22 23
M  V30 23 1 23 24
M  V30 24 1 24 25
M  V30 25 1 25 26
M  V30 26 1 26 27
M  V30 27 2 12 28
M  V30 28 1 5 29
M  V30 29 1 29 2
M  V30 30 1 28 6
M  V30 31 1 18 13
M  V30 32 1 27 22
M  V30 33 1 22 16
M  V30 34 1 1 30
M  V30 35 1 1 31
M  V30 36 1 1 32
M  V30 37 1 7 33
M  V30 38 1 11 34
M  V30 39 1 11 35
M  V30 40 1 11 36
M  V30 41 1 14 37
M  V30 42 1 15 38
M  V30 43 1 18 39
M  V30 44 1 19 40
M  V30 45 1 23 41
M  V30 46 1 23 42
M  V30 47 1 24 43
M  V30 48 1 24 44
M  V30 49 1 26 45
M  V30 50 1 26 46
M  V30 51 1 27 47
M  V30 52 1 27 48
M  V30 53 1 28 49
M  V30 54 1 29 50
M  V30 END BOND
M  V30 END CTAB
M  END
>  <Dataset>  (153) 
ChEMBL_Kinases

>  <Ligand_Instance>  (153) 
nan

>  <PDB_ID>  (153) 
nan

>  <Standardized_SMILES>  (153) 
Cc1nnc(-c2cc(F)c(C)c(-c3ccc4c(c3)NC(=O)C43CCOCC3)c2)[nH]1

>  <Name>  (153) 
nan

>  <Pocket>  (153) 
nan

>  <ATP_Site>  (153) 
nan

>  <Peripheral>  (153) 
nan

>  <Num_H_Atoms_ProtBoundConf>  (153) 
nan

>  <Num_Resolved_Atoms>  (153) 
nan

>  <Num_Not_Resolved_Atoms>  (153) 
nan

$$$$
CHEMBL3976213
     RDKit          3D

  0  0  0  0  0  0  0  0  0  0999 V3000
M  V30 BEGIN CTAB
M  V30 COUNTS 29 32 0 0 0
M  V30 BEGIN ATOM
M  V30 1 O 0.090958 -3.768944 -0.113086 0
M  V30 2 C 1.003537 -3.132808 0.495676 0
M  V30 3 N 2.196203 -3.563986 0.995872 0
M  V30 4 C 2.785106 -2.464423 1.549949 0
M  V30 5 C 4.004366 -2.360585 2.188736 0
M  V30 6 C 4.452688 -1.153291 2.697169 0
M  V30 7 C 3.633826 -0.031864 2.546864 0
M  V30 8 C 2.406303 -0.134781 1.904128 0
M  V30 9 C 1.980723 -1.349075 1.405519 0
M  V30 10 N 0.903167 -1.822221 0.751739 0
M  V30 11 C -0.182596 -0.934922 0.412125 0
M  V30 12 N -0.099998 0.366170 0.020133 0
M  V30 13 C -1.349341 0.840028 -0.203618 0
M  V30 14 C -1.808622 2.078165 -0.610684 0
M  V30 15 C -3.160825 2.306742 -0.766052 0
M  V30 16 C -4.049021 1.276373 -0.507704 0
M  V30 17 C -3.591664 0.039123 -0.101034 0
M  V30 18 C -2.225636 -0.213603 0.062583 0
M  V30 19 N -1.492189 -1.289135 0.437367 0
M  V30 20 H 2.528125 -4.542226 0.934255 0
M  V30 21 H 4.678395 -3.211863 2.329272 0
M  V30 22 H 5.393812 -1.009528 3.205123 0
M  V30 23 H 3.860974 0.967289 2.895121 0
M  V30 24 H 1.740305 0.710241 1.766201 0
M  V30 25 H -1.137149 2.891893 -0.816616 0
M  V30 26 H -3.621877 3.220459 -1.074173 0
M  V30 27 H -5.131659 1.283581 -0.578427 0
M  V30 28 H -4.199942 -0.835889 0.127604 0
M  V30 29 H -1.885070 -2.213317 0.694651 0
M  V30 END ATOM
M  V30 BEGIN BOND
M  V30 1 2 1 2
M  V30 2 1 2 3
M  V30 3 1 3 4
M  V30 4 2 4 5
M  V30 5 1 5 6
M  V30 6 2 6 7
M  V30 7 1 7 8
M  V30 8 2 8 9
M  V30 9 1 9 10
M  V30 10 1 10 11
M  V30 11 2 11 12
M  V30 12 1 12 13
M  V30 13 2 13 14
M  V30 14 1 14 15
M  V30 15 2 15 16
M  V30 16 1 16 17
M  V30 17 2 17 18
M  V30 18 1 18 19
M  V30 19 1 10 2
M  V30 20 1 19 11
M  V30 21 1 9 4
M  V30 22 1 18 13
M  V30 23 1 3 20
M  V30 24 1 5 21
M  V30 25 1 6 22
M  V30 26 1 7 23
M  V30 27 1 8 24
M  V30 28 1 14 25
M  V30 29 1 15 26
M  V30 30 1 16 27
M  V30 31 1 17 28
M  V30 32 1 19 29
M  V30 END BOND
M  V30 END CTAB
M  END
>  <Dataset>  (154) 
ChEMBL_Kinases

>  <Ligand_Instance>  (154) 
nan

>  <PDB_ID>  (154) 
nan

>  <Standardized_SMILES>  (154) 
O=c1[nH]c2ccccc2n1-c1nc2ccccc2[nH]1

>  <Name>  (154) 
nan

>  <Pocket>  (154) 
nan

>  <ATP_Site>  (154) 
nan

>  <Peripheral>  (154) 
nan

>  <Num_H_Atoms_ProtBoundConf>  (154) 
nan

>  <Num_Resolved_Atoms>  (154) 
nan

>  <Num_Not_Resolved_Atoms>  (154) 
nan

$$$$
CHEMBL4869016
     RDKit          3D

  0  0  0  0  0  0  0  0  0  0999 V3000
M  V30 BEGIN CTAB
M  V30 COUNTS 60 64 0 0 0
M  V30 BEGIN ATOM
M  V30 1 C 3.002376 -3.405008 3.601273 0
M  V30 2 N 3.337663 -2.147420 4.207622 0
M  V30 3 C 4.585212 -1.590355 3.786005 0
M  V30 4 C 4.631374 -1.242352 2.326283 0
M  V30 5 N 3.512966 -0.354930 2.055141 0
M  V30 6 C 3.449737 -0.051949 0.665678 0
M  V30 7 O 4.375033 -0.630156 0.039512 0
M  V30 8 C 2.500134 0.795995 -0.075612 0
M  V30 9 C 2.972434 1.811010 -0.895293 0
M  V30 10 C 2.095493 2.620011 -1.599644 0
M  V30 11 C 0.753656 2.349471 -1.430527 0
M  V30 12 C -0.157914 3.143733 -2.125019 0
M  V30 13 C -1.523324 2.907062 -1.986229 0
M  V30 14 C -2.010239 1.884371 -1.160759 0
M  V30 15 C -3.473050 1.750780 -1.115669 0
M  V30 16 C -4.041173 0.832688 -2.148162 0
M  V30 17 N -3.530245 -0.525180 -2.032894 0
M  V30 18 C -3.816162 -1.325228 -0.891966 0
M  V30 19 N -4.594635 -0.813201 0.076683 0
M  V30 20 C -4.962290 -1.439259 1.193843 0
M  V30 21 N -4.538544 -2.695576 1.410557 0
M  V30 22 C -3.743444 -3.315026 0.495514 0
M  V30 23 C -3.276464 -4.606760 0.668366 0
M  V30 24 C -2.464701 -5.168253 -0.315284 0
M  V30 25 C -2.117442 -4.472337 -1.449501 0
M  V30 26 C -1.268319 -5.083010 -2.457010 0
M  V30 27 N -0.592476 -5.581394 -3.254451 0
M  V30 28 C -2.576892 -3.177533 -1.638486 0
M  V30 29 C -3.383529 -2.618385 -0.662237 0
M  V30 30 C -1.109493 1.109827 -0.482729 0
M  V30 31 C 0.241368 1.352433 -0.627435 0
M  V30 32 C 1.149216 0.559071 0.065166 0
M  V30 33 C 2.718460 0.027288 3.206552 0
M  V30 34 C 2.287857 -1.198417 4.004207 0
M  V30 35 H 3.261155 -3.450502 2.520606 0
M  V30 36 H 1.892501 -3.512483 3.707451 0
M  V30 37 H 3.432780 -4.272316 4.176478 0
M  V30 38 H 4.747592 -0.662453 4.374838 0
M  V30 39 H 5.455918 -2.241736 4.040260 0
M  V30 40 H 5.548702 -0.639582 2.131227 0
M  V30 41 H 4.561242 -2.120373 1.673776 0
M  V30 42 H 4.051530 1.982572 -0.993374 0
M  V30 43 H 2.412914 3.424695 -2.252362 0
M  V30 44 H 0.163923 3.945150 -2.774237 0
M  V30 45 H -2.194628 3.544431 -2.542650 0
M  V30 46 H -3.740135 1.370125 -0.112474 0
M  V30 47 H -3.938261 2.749985 -1.193954 0
M  V30 48 H -5.143164 0.746408 -1.892739 0
M  V30 49 H -4.026967 1.176903 -3.176276 0
M  V30 50 H -2.960564 -0.829506 -2.836880 0
M  V30 51 H -5.586792 -1.025879 1.970752 0
M  V30 52 H -3.546118 -5.164446 1.561838 0
M  V30 53 H -2.126441 -6.177849 -0.133295 0
M  V30 54 H -2.284772 -2.677088 -2.528163 0
M  V30 55 H -1.491731 0.339170 0.138953 0
M  V30 56 H 0.746805 -0.221031 0.693469 0
M  V30 57 H 3.223924 0.717744 3.895703 0
M  V30 58 H 1.758144 0.507203 2.902917 0
M  V30 59 H 1.426851 -1.692416 3.485586 0
M  V30 60 H 1.879622 -0.863701 4.973923 0
M  V30 END ATOM
M  V30 BEGIN BOND
M  V30 1 1 1 2
M  V30 2 1 2 3
M  V30 3 1 3 4
M  V30 4 1 4 5
M  V30 5 1 5 6
M  V30 6 2 6 7
M  V30 7 1 6 8
M  V30 8 2 8 9
M  V30 9 1 9 10
M  V30 10 2 10 11
M  V30 11 1 11 12
M  V30 12 2 12 13
M  V30 13 1 13 14
M  V30 14 1 14 15
M  V30 15 1 15 16
M  V30 16 1 16 17
M  V30 17 1 17 18
M  V30 18 2 18 19
M  V30 19 1 19 20
M  V30 20 2 20 21
M  V30 21 1 21 22
M  V30 22 2 22 23
M  V30 23 1 23 24
M  V30 24 2 24 25
M  V30 25 1 25 26
M  V30 26 3 26 27
M  V30 27 1 25 28
M  V30 28 2 28 29
M  V30 29 2 14 30
M  V30 30 1 30 31
M  V30 31 2 31 32
M  V30 32 1 5 33
M  V30 33 1 33 34
M  V30 34 1 34 2
M  V30 35 1 32 8
M  V30 36 1 31 11
M  V30 37 1 29 18
M  V30 38 1 29 22
M  V30 39 1 1 35
M  V30 40 1 1 36
M  V30 41 1 1 37
M  V30 42 1 3 38
M  V30 43 1 3 39
M  V30 44 1 4 40
M  V30 45 1 4 41
M  V30 46 1 9 42
M  V30 47 1 10 43
M  V30 48 1 12 44
M  V30 49 1 13 45
M  V30 50 1 15 46
M  V30 51 1 15 47
M  V30 52 1 16 48
M  V30 53 1 16 49
M  V30 54 1 17 50
M  V30 55 1 20 51
M  V30 56 1 23 52
M  V30 57 1 24 53
M  V30 58 1 28 54
M  V30 59 1 30 55
M  V30 60 1 32 56
M  V30 61 1 33 57
M  V30 62 1 33 58
M  V30 63 1 34 59
M  V30 64 1 34 60
M  V30 END BOND
M  V30 END CTAB
M  END
>  <Dataset>  (155) 
ChEMBL_Kinases

>  <Ligand_Instance>  (155) 
nan

>  <PDB_ID>  (155) 
nan

>  <Standardized_SMILES>  (155) 
CN1CCN(C(=O)c2ccc3ccc(CCNc4ncnc5ccc(C#N)cc45)cc3c2)CC1

>  <Name>  (155) 
nan

>  <Pocket>  (155) 
nan

>  <ATP_Site>  (155) 
nan

>  <Peripheral>  (155) 
nan

>  <Num_H_Atoms_ProtBoundConf>  (155) 
nan

>  <Num_Resolved_Atoms>  (155) 
nan

>  <Num_Not_Resolved_Atoms>  (155) 
nan

$$$$
CHEMBL3701787
     RDKit          3D

  0  0  0  0  0  0  0  0  0  0999 V3000
M  V30 BEGIN CTAB
M  V30 COUNTS 56 60 0 0 0
M  V30 BEGIN ATOM
M  V30 1 C 3.585528 -4.487806 5.631208 0
M  V30 2 C 4.173809 -3.231797 5.052737 0
M  V30 3 N 5.321481 -2.582617 5.321199 0
M  V30 4 N 5.417110 -1.509485 4.553175 0
M  V30 5 C 4.331886 -1.431152 3.762442 0
M  V30 6 C 4.063336 -0.384320 2.769818 0
M  V30 7 C 4.946894 0.659004 2.554930 0
M  V30 8 C 4.613145 1.608372 1.594036 0
M  V30 9 F 5.432616 2.653467 1.334620 0
M  V30 10 C 3.437739 1.518503 0.873052 0
M  V30 11 C 3.070508 2.516903 -0.148040 0
M  V30 12 C 2.566727 0.492741 1.082746 0
M  V30 13 C 1.300674 0.270496 0.403092 0
M  V30 14 C 0.194289 -0.076112 1.175199 0
M  V30 15 C -1.019795 -0.291981 0.546570 0
M  V30 16 C -1.225694 -0.190394 -0.800160 0
M  V30 17 C -0.101383 0.155847 -1.530956 0
M  V30 18 C 1.141165 0.385070 -0.962089 0
M  V30 19 N -0.399635 0.241316 -2.923744 0
M  V30 20 C -1.784392 -0.074829 -3.010270 0
M  V30 21 O -2.564739 -0.146857 -4.003826 0
M  V30 22 C -2.400543 -0.370678 -1.667283 0
M  V30 23 C -3.520080 0.579872 -1.357319 0
M  V30 24 C -4.844278 0.070584 -1.899722 0
M  V30 25 C -5.182895 -1.292311 -1.361932 0
M  V30 26 C -5.748906 -2.158103 -2.447297 0
M  V30 27 O -6.134820 -1.183887 -0.325468 0
M  V30 28 C -3.994287 -1.987782 -0.757704 0
M  V30 29 C -2.821227 -1.813892 -1.682270 0
M  V30 30 C 2.871592 -0.479743 2.042142 0
M  V30 31 N 3.572141 -2.497223 4.078271 0
M  V30 32 H 3.106089 -5.011816 4.787919 0
M  V30 33 H 4.347451 -5.070997 6.155826 0
M  V30 34 H 2.758623 -4.117722 6.297748 0
M  V30 35 H 5.866978 0.728741 3.119791 0
M  V30 36 H 3.611559 2.392833 -1.108573 0
M  V30 37 H 1.984153 2.675667 -0.246883 0
M  V30 38 H 3.456626 3.503043 0.246280 0
M  V30 39 H 0.326919 -0.165410 2.256769 0
M  V30 40 H -1.816381 -0.557729 1.248992 0
M  V30 41 H 2.014273 0.655003 -1.540497 0
M  V30 42 H 0.188784 0.471479 -3.744497 0
M  V30 43 H -3.639602 0.661620 -0.258533 0
M  V30 44 H -3.371523 1.583389 -1.786969 0
M  V30 45 H -4.842640 0.089897 -3.028425 0
M  V30 46 H -5.634308 0.791147 -1.561768 0
M  V30 47 H -5.001727 -2.549128 -3.145173 0
M  V30 48 H -6.478764 -1.559155 -3.027076 0
M  V30 49 H -6.324187 -3.025520 -2.034978 0
M  V30 50 H -6.060144 -2.021479 0.216702 0
M  V30 51 H -3.750417 -1.540550 0.227576 0
M  V30 52 H -4.245302 -3.067653 -0.644845 0
M  V30 53 H -3.060416 -2.091099 -2.720204 0
M  V30 54 H -1.964715 -2.462596 -1.389490 0
M  V30 55 H 2.205734 -1.330182 2.253867 0
M  V30 56 H 2.648472 -2.748856 3.652130 0
M  V30 END ATOM
M  V30 BEGIN BOND
M  V30 1 1 1 2
M  V30 2 2 2 3
M  V30 3 1 3 4
M  V30 4 2 4 5
M  V30 5 1 5 6
M  V30 6 2 6 7
M  V30 7 1 7 8
M  V30 8 1 8 9
M  V30 9 2 8 10
M  V30 10 1 10 11
M  V30 11 1 10 12
M  V30 12 1 12 13
M  V30 13 2 13 14
M  V30 14 1 14 15
M  V30 15 2 15 16
M  V30 16 1 16 17
M  V30 17 2 17 18
M  V30 18 1 17 19
M  V30 19 1 19 20
M  V30 20 2 20 21
M  V30 21 1 20 22
M  V30 22 1 22 23
M  V30 23 1 23 24
M  V30 24 1 24 25
M  V30 25 1 25 26
M  V30 26 1 25 27
M  V30 27 1 25 28
M  V30 28 1 28 29
M  V30 29 2 12 30
M  V30 30 1 5 31
M  V30 31 1 31 2
M  V30 32 1 30 6
M  V30 33 1 18 13
M  V30 34 1 29 22
M  V30 35 1 22 16
M  V30 36 1 1 32
M  V30 37 1 1 33
M  V30 38 1 1 34
M  V30 39 1 7 35
M  V30 40 1 11 36
M  V30 41 1 11 37
M  V30 42 1 11 38
M  V30 43 1 14 39
M  V30 44 1 15 40
M  V30 45 1 18 41
M  V30 46 1 19 42
M  V30 47 1 23 43
M  V30 48 1 23 44
M  V30 49 1 24 45
M  V30 50 1 24 46
M  V30 51 1 26 47
M  V30 52 1 26 48
M  V30 53 1 26 49
M  V30 54 1 27 50
M  V30 55 1 28 51
M  V30 56 1 28 52
M  V30 57 1 29 53
M  V30 58 1 29 54
M  V30 59 1 30 55
M  V30 60 1 31 56
M  V30 END BOND
M  V30 END CTAB
M  END
>  <Dataset>  (156) 
ChEMBL_Kinases

>  <Ligand_Instance>  (156) 
nan

>  <PDB_ID>  (156) 
nan

>  <Standardized_SMILES>  (156) 
Cc1nnc(-c2cc(F)c(C)c(-c3ccc4c(c3)NC(=O)C43CCC(C)(O)CC3)c2)[nH]1

>  <Name>  (156) 
nan

>  <Pocket>  (156) 
nan

>  <ATP_Site>  (156) 
nan

>  <Peripheral>  (156) 
nan

>  <Num_H_Atoms_ProtBoundConf>  (156) 
nan

>  <Num_Resolved_Atoms>  (156) 
nan

>  <Num_Not_Resolved_Atoms>  (156) 
nan

$$$$
CHEMBL3701788
     RDKit          3D

  0  0  0  0  0  0  0  0  0  0999 V3000
M  V30 BEGIN CTAB
M  V30 COUNTS 51 55 0 0 0
M  V30 BEGIN ATOM
M  V30 1 C -1.127109 -0.155639 7.759974 0
M  V30 2 C 0.197493 0.309133 7.222151 0
M  V30 3 N 1.310703 0.869319 7.741572 0
M  V30 4 N 2.129091 1.035545 6.716605 0
M  V30 5 C 1.550967 0.591464 5.569544 0
M  V30 6 C 2.227104 0.649858 4.270572 0
M  V30 7 C 3.497263 1.158745 4.117300 0
M  V30 8 C 4.080675 1.186599 2.867241 0
M  V30 9 C 3.401750 0.708077 1.765943 0
M  V30 10 C 4.032814 0.742413 0.418573 0
M  V30 11 C 2.129617 0.187900 1.859925 0
M  V30 12 C 1.336197 -0.342662 0.757704 0
M  V30 13 C 0.023304 0.130096 0.777156 0
M  V30 14 C -0.911296 -0.245333 -0.177242 0
M  V30 15 C -0.541702 -1.111559 -1.179744 0
M  V30 16 C 0.756970 -1.576088 -1.194676 0
M  V30 17 C 1.678987 -1.209962 -0.258843 0
M  V30 18 N 0.973517 -2.459630 -2.293466 0
M  V30 19 C -0.272798 -2.530265 -2.981504 0
M  V30 20 O -0.484177 -3.218363 -4.017855 0
M  V30 21 C -1.288617 -1.693170 -2.325382 0
M  V30 22 C -2.441365 -2.470583 -1.775958 0
M  V30 23 C -3.772081 -2.075895 -2.369226 0
M  V30 24 C -3.700758 -2.059678 -3.880324 0
M  V30 25 F -3.541290 -3.390032 -4.278795 0
M  V30 26 F -4.933379 -1.622466 -4.359213 0
M  V30 27 C -2.575661 -1.181928 -4.355694 0
M  V30 28 C -1.789048 -0.579349 -3.216588 0
M  V30 29 C 1.599724 0.186621 3.132616 0
M  V30 30 O 0.366174 0.152151 5.915437 0
M  V30 31 H -1.300294 -1.231291 7.516301 0
M  V30 32 H -1.921582 0.413214 7.233476 0
M  V30 33 H -1.224249 0.074146 8.831931 0
M  V30 34 H 3.998966 1.526656 5.012998 0
M  V30 35 H 5.083209 1.591490 2.764717 0
M  V30 36 H 4.630270 -0.182877 0.299067 0
M  V30 37 H 4.715786 1.624039 0.359757 0
M  V30 38 H 3.310070 0.781909 -0.407487 0
M  V30 39 H -0.380085 0.818935 1.522360 0
M  V30 40 H -1.928493 0.109039 -0.178382 0
M  V30 41 H 2.711057 -1.526166 -0.195753 0
M  V30 42 H 1.842170 -2.971978 -2.577682 0
M  V30 43 H -2.253483 -3.570740 -1.912674 0
M  V30 44 H -2.546688 -2.344340 -0.678797 0
M  V30 45 H -4.079058 -1.096971 -1.985745 0
M  V30 46 H -4.511956 -2.873893 -2.114447 0
M  V30 47 H -1.943703 -1.727417 -5.078910 0
M  V30 48 H -3.026948 -0.330459 -4.930344 0
M  V30 49 H -0.950145 -0.010498 -3.646473 0
M  V30 50 H -2.493397 0.024033 -2.611558 0
M  V30 51 H 0.603187 -0.208857 3.274501 0
M  V30 END ATOM
M  V30 BEGIN BOND
M  V30 1 1 1 2
M  V30 2 2 2 3
M  V30 3 1 3 4
M  V30 4 2 4 5
M  V30 5 1 5 6
M  V30 6 2 6 7
M  V30 7 1 7 8
M  V30 8 2 8 9
M  V30 9 1 9 10
M  V30 10 1 9 11
M  V30 11 1 11 12
M  V30 12 2 12 13
M  V30 13 1 13 14
M  V30 14 2 14 15
M  V30 15 1 15 16
M  V30 16 2 16 17
M  V30 17 1 16 18
M  V30 18 1 18 19
M  V30 19 2 19 20
M  V30 20 1 19 21
M  V30 21 1 21 22
M  V30 22 1 22 23
M  V30 23 1 23 24
M  V30 24 1 24 25
M  V30 25 1 24 26
M  V30 26 1 24 27
M  V30 27 1 27 28
M  V30 28 2 11 29
M  V30 29 1 5 30
M  V30 30 1 30 2
M  V30 31 1 29 6
M  V30 32 1 17 12
M  V30 33 1 28 21
M  V30 34 1 21 15
M  V30 35 1 1 31
M  V30 36 1 1 32
M  V30 37 1 1 33
M  V30 38 1 7 34
M  V30 39 1 8 35
M  V30 40 1 10 36
M  V30 41 1 10 37
M  V30 42 1 10 38
M  V30 43 1 13 39
M  V30 44 1 14 40
M  V30 45 1 17 41
M  V30 46 1 18 42
M  V30 47 1 22 43
M  V30 48 1 22 44
M  V30 49 1 23 45
M  V30 50 1 23 46
M  V30 51 1 27 47
M  V30 52 1 27 48
M  V30 53 1 28 49
M  V30 54 1 28 50
M  V30 55 1 29 51
M  V30 END BOND
M  V30 END CTAB
M  END
>  <Dataset>  (157) 
ChEMBL_Kinases

>  <Ligand_Instance>  (157) 
nan

>  <PDB_ID>  (157) 
nan

>  <Standardized_SMILES>  (157) 
Cc1nnc(-c2ccc(C)c(-c3ccc4c(c3)NC(=O)C43CCC(F)(F)CC3)c2)o1

>  <Name>  (157) 
nan

>  <Pocket>  (157) 
nan

>  <ATP_Site>  (157) 
nan

>  <Peripheral>  (157) 
nan

>  <Num_H_Atoms_ProtBoundConf>  (157) 
nan

>  <Num_Resolved_Atoms>  (157) 
nan

>  <Num_Not_Resolved_Atoms>  (157) 
nan

$$$$
CHEMBL3976748
     RDKit          3D

  0  0  0  0  0  0  0  0  0  0999 V3000
M  V30 BEGIN CTAB
M  V30 COUNTS 47 50 0 0 0
M  V30 BEGIN ATOM
M  V30 1 C -4.847720 -1.999699 3.088724 0
M  V30 2 C -4.699239 -3.496349 2.967730 0
M  V30 3 O -4.858307 -3.974853 1.648625 0
M  V30 4 C -4.079754 -3.603584 0.588633 0
M  V30 5 C -3.029499 -2.711525 0.656973 0
M  V30 6 C -2.284620 -2.381481 -0.454856 0
M  V30 7 C -1.161127 -1.446009 -0.427636 0
M  V30 8 C -0.346674 -1.313255 0.692075 0
M  V30 9 C 0.695787 -0.415007 0.646283 0
M  V30 10 C 0.952276 0.346056 -0.461214 0
M  V30 11 C 1.949025 1.267890 -0.641838 0
M  V30 12 C 3.042691 1.819105 0.112664 0
M  V30 13 C 3.554029 1.695921 1.302121 0
M  V30 14 C 4.693964 2.341475 1.929745 0
M  V30 15 C 5.011445 2.009409 3.227696 0
M  V30 16 C 6.084405 2.605672 3.840876 0
M  V30 17 C 6.873469 3.540155 3.202751 0
M  V30 18 C 6.569989 3.882024 1.908470 0
M  V30 19 C 5.497655 3.277149 1.315252 0
M  V30 20 N 1.728977 1.704913 -1.909536 0
M  V30 21 N 0.693876 1.091711 -2.424367 0
M  V30 22 C 0.146491 0.214577 -1.568510 0
M  V30 23 C -0.909744 -0.672385 -1.569094 0
M  V30 24 C -2.583859 -2.954015 -1.694798 0
M  V30 25 C -3.634761 -3.850217 -1.776819 0
M  V30 26 C -4.362004 -4.160767 -0.646638 0
M  V30 27 O -5.384751 -5.061950 -0.837850 0
M  V30 28 H -3.961429 -1.525201 3.581684 0
M  V30 29 H -5.713244 -1.737047 3.755925 0
M  V30 30 H -5.017758 -1.498574 2.122171 0
M  V30 31 H -5.372623 -3.979637 3.683081 0
M  V30 32 H -3.630836 -3.734647 3.239894 0
M  V30 33 H -2.786547 -2.260090 1.611185 0
M  V30 34 H -0.539879 -1.917772 1.589360 0
M  V30 35 H 1.296848 -0.346089 1.528402 0
M  V30 36 H 3.695373 2.567355 -0.360517 0
M  V30 37 H 3.000781 0.980890 1.887035 0
M  V30 38 H 4.415458 1.273698 3.775150 0
M  V30 39 H 6.328874 2.341373 4.858832 0
M  V30 40 H 7.718825 4.013223 3.678399 0
M  V30 41 H 7.195719 4.623331 1.402044 0
M  V30 42 H 5.300874 3.580491 0.296971 0
M  V30 43 H 0.354119 1.281513 -3.390675 0
M  V30 44 H -1.492580 -0.719654 -2.465941 0
M  V30 45 H -1.999676 -2.692983 -2.558981 0
M  V30 46 H -3.831618 -4.270728 -2.760871 0
M  V30 47 H -5.682614 -5.678686 -0.067013 0
M  V30 END ATOM
M  V30 BEGIN BOND
M  V30 1 1 1 2
M  V30 2 1 2 3
M  V30 3 1 3 4
M  V30 4 2 4 5
M  V30 5 1 5 6
M  V30 6 1 6 7
M  V30 7 2 7 8
M  V30 8 1 8 9
M  V30 9 2 9 10
M  V30 10 1 10 11
M  V30 11 1 11 12
M  V30 12 2 12 13
M  V30 13 1 13 14
M  V30 14 2 14 15
M  V30 15 1 15 16
M  V30 16 2 16 17
M  V30 17 1 17 18
M  V30 18 2 18 19
M  V30 19 2 11 20
M  V30 20 1 20 21
M  V30 21 1 21 22
M  V30 22 2 22 23
M  V30 23 2 6 24
M  V30 24 1 24 25
M  V30 25 2 25 26
M  V30 26 1 26 27
M  V30 27 1 26 4
M  V30 28 1 23 7
M  V30 29 1 22 10
M  V30 30 1 19 14
M  V30 31 1 1 28
M  V30 32 1 1 29
M  V30 33 1 1 30
M  V30 34 1 2 31
M  V30 35 1 2 32
M  V30 36 1 5 33
M  V30 37 1 8 34
M  V30 38 1 9 35
M  V30 39 1 12 36
M  V30 40 1 13 37
M  V30 41 1 15 38
M  V30 42 1 16 39
M  V30 43 1 17 40
M  V30 44 1 18 41
M  V30 45 1 19 42
M  V30 46 1 21 43
M  V30 47 1 23 44
M  V30 48 1 24 45
M  V30 49 1 25 46
M  V30 50 1 27 47
M  V30 END BOND
M  V30 END CTAB
M  END
>  <Dataset>  (158) 
ChEMBL_Kinases

>  <Ligand_Instance>  (158) 
nan

>  <PDB_ID>  (158) 
nan

>  <Standardized_SMILES>  (158) 
CCOc1cc(-c2ccc3c(/C=C/c4ccccc4)n[nH]c3c2)ccc1O

>  <Name>  (158) 
nan

>  <Pocket>  (158) 
nan

>  <ATP_Site>  (158) 
nan

>  <Peripheral>  (158) 
nan

>  <Num_H_Atoms_ProtBoundConf>  (158) 
nan

>  <Num_Resolved_Atoms>  (158) 
nan

>  <Num_Not_Resolved_Atoms>  (158) 
nan

$$$$
CHEMBL397713
     RDKit          3D

  0  0  0  0  0  0  0  0  0  0999 V3000
M  V30 BEGIN CTAB
M  V30 COUNTS 63 63 0 0 0
M  V30 BEGIN ATOM
M  V30 1 C 1.634357 -3.550858 4.727836 0
M  V30 2 C 1.595481 -3.817319 3.220486 0
M  V30 3 C 0.342086 -3.142795 2.713823 0
M  V30 4 C 2.847241 -3.217561 2.597879 0
M  V30 5 C 2.931593 -1.775993 2.821553 0
M  V30 6 C 2.984479 -0.731296 2.028546 0
M  V30 7 O 3.064195 0.628475 2.244336 0
M  V30 8 C 3.064615 1.314910 1.028359 0
M  V30 9 C 4.317462 2.122803 0.771599 0
M  V30 10 O 4.224401 2.791031 -0.468820 0
M  V30 11 C 1.824790 2.182969 0.858574 0
M  V30 12 O 0.713374 1.341855 0.916243 0
M  V30 13 C -0.600945 1.669116 0.760756 0
M  V30 14 O -0.881292 2.851091 0.535699 0
M  V30 15 C -1.571374 0.570779 0.875161 0
M  V30 16 C -2.475410 0.478388 -0.356098 0
M  V30 17 C -3.417069 -0.643977 -0.165447 0
M  V30 18 C -4.394398 -0.906098 -1.260094 0
M  V30 19 C -5.230800 -2.110945 -0.799121 0
M  V30 20 C -5.363176 0.267240 -1.329469 0
M  V30 21 C -1.721575 0.548031 -1.620244 0
M  V30 22 C -0.680892 -0.443162 -1.919352 0
M  V30 23 C -0.102219 -0.086750 -3.300907 0
M  V30 24 C -0.949483 -1.877117 -1.865894 0
M  V30 25 O 3.025766 0.302740 0.017890 0
M  V30 26 C 2.959871 -0.949257 0.608864 0
M  V30 27 O 2.895772 -1.976692 -0.102775 0
M  V30 28 H 1.239058 -2.547771 4.903720 0
M  V30 29 H 0.982283 -4.298637 5.202224 0
M  V30 30 H 2.695946 -3.646937 5.025992 0
M  V30 31 H 1.520422 -4.902155 3.045939 0
M  V30 32 H 0.546981 -2.724475 1.696468 0
M  V30 33 H -0.505154 -3.831215 2.616009 0
M  V30 34 H 0.065988 -2.262850 3.346677 0
M  V30 35 H 2.808105 -3.455045 1.529836 0
M  V30 36 H 3.707069 -3.755267 3.103659 0
M  V30 37 H 2.953289 -1.578720 3.901605 0
M  V30 38 H 5.209799 1.481594 0.696094 0
M  V30 39 H 4.468412 2.850873 1.586793 0
M  V30 40 H 4.634798 2.224259 -1.178685 0
M  V30 41 H 1.900802 2.752315 -0.087363 0
M  V30 42 H 1.847668 2.921056 1.696520 0
M  V30 43 H -2.248674 0.867472 1.732040 0
M  V30 44 H -1.136913 -0.379938 1.176176 0
M  V30 45 H -3.081169 1.424313 -0.297790 0
M  V30 46 H -2.923749 -1.625404 0.096468 0
M  V30 47 H -4.057797 -0.473535 0.749651 0
M  V30 48 H -3.994278 -1.173301 -2.233962 0
M  V30 49 H -6.225637 -2.132245 -1.294314 0
M  V30 50 H -4.737913 -3.066212 -1.091852 0
M  V30 51 H -5.304647 -2.160622 0.309114 0
M  V30 52 H -6.426855 -0.049994 -1.230898 0
M  V30 53 H -5.178064 1.028402 -0.556132 0
M  V30 54 H -5.271319 0.789393 -2.320950 0
M  V30 55 H -1.176973 1.545663 -1.607655 0
M  V30 56 H -2.458981 0.710737 -2.444982 0
M  V30 57 H 0.223351 -0.253641 -1.256156 0
M  V30 58 H 0.498232 0.866086 -3.229421 0
M  V30 59 H 0.532070 -0.924632 -3.638544 0
M  V30 60 H -0.962169 0.006615 -3.975199 0
M  V30 61 H -0.166844 -2.440049 -2.459302 0
M  V30 62 H -0.777116 -2.281773 -0.825370 0
M  V30 63 H -1.892339 -2.276536 -2.205502 0
M  V30 END ATOM
M  V30 BEGIN BOND
M  V30 1 1 1 2
M  V30 2 1 2 3
M  V30 3 1 2 4
M  V30 4 1 4 5
M  V30 5 2 5 6
M  V30 6 1 6 7
M  V30 7 1 7 8
M  V30 8 1 8 9
M  V30 9 1 9 10
M  V30 10 1 8 11
M  V30 11 1 11 12
M  V30 12 1 12 13
M  V30 13 2 13 14
M  V30 14 1 13 15
M  V30 15 1 15 16
M  V30 16 1 16 17
M  V30 17 1 17 18
M  V30 18 1 18 19
M  V30 19 1 18 20
M  V30 20 1 16 21
M  V30 21 1 21 22
M  V30 22 1 22 23
M  V30 23 1 22 24
M  V30 24 1 8 25
M  V30 25 1 25 26
M  V30 26 2 26 27
M  V30 27 1 26 6
M  V30 28 1 1 28
M  V30 29 1 1 29
M  V30 30 1 1 30
M  V30 31 1 2 31
M  V30 32 1 3 32
M  V30 33 1 3 33
M  V30 34 1 3 34
M  V30 35 1 4 35
M  V30 36 1 4 36
M  V30 37 1 5 37
M  V30 38 1 9 38
M  V30 39 1 9 39
M  V30 40 1 10 40
M  V30 41 1 11 41
M  V30 42 1 11 42
M  V30 43 1 15 43
M  V30 44 1 15 44
M  V30 45 1 16 45
M  V30 46 1 17 46
M  V30 47 1 17 47
M  V30 48 1 18 48
M  V30 49 1 19 49
M  V30 50 1 19 50
M  V30 51 1 19 51
M  V30 52 1 20 52
M  V30 53 1 20 53
M  V30 54 1 20 54
M  V30 55 1 21 55
M  V30 56 1 21 56
M  V30 57 1 22 57
M  V30 58 1 23 58
M  V30 59 1 23 59
M  V30 60 1 23 60
M  V30 61 1 24 61
M  V30 62 1 24 62
M  V30 63 1 24 63
M  V30 END BOND
M  V30 END CTAB
M  END
>  <Dataset>  (159) 
ChEMBL_Kinases

>  <Ligand_Instance>  (159) 
nan

>  <PDB_ID>  (159) 
nan

>  <Standardized_SMILES>  (159) 
CC(C)C/C=C1/OC(CO)(COC(=O)CC(CC(C)C)CC(C)C)OC1=O

>  <Name>  (159) 
nan

>  <Pocket>  (159) 
nan

>  <ATP_Site>  (159) 
nan

>  <Peripheral>  (159) 
nan

>  <Num_H_Atoms_ProtBoundConf>  (159) 
nan

>  <Num_Resolved_Atoms>  (159) 
nan

>  <Num_Not_Resolved_Atoms>  (159) 
nan

$$$$
CHEMBL3977083
     RDKit          3D

  0  0  0  0  0  0  0  0  0  0999 V3000
M  V30 BEGIN CTAB
M  V30 COUNTS 55 59 0 0 0
M  V30 BEGIN ATOM
M  V30 1 C 5.021512 -4.977055 1.920198 0
M  V30 2 O 4.666256 -4.466036 0.649963 0
M  V30 3 C 3.720126 -3.467286 0.450586 0
M  V30 4 O 3.175274 -3.023867 1.493848 0
M  V30 5 N 3.410095 -2.998259 -0.860932 0
M  V30 6 C 2.430208 -1.974312 -0.976593 0
M  V30 7 N 1.773629 -1.414737 0.056527 0
M  V30 8 C 0.914415 -0.477644 -0.389663 0
M  V30 9 C 0.012940 0.382389 0.223551 0
M  V30 10 C -0.741931 1.251933 -0.574090 0
M  V30 11 C -1.650345 2.090957 0.286947 0
M  V30 12 O -2.489374 2.878062 -0.469340 0
M  V30 13 C -0.786391 2.852478 1.224633 0
M  V30 14 C 0.047100 3.860549 0.789099 0
M  V30 15 C 0.841008 4.526765 1.726520 0
M  V30 16 C 0.759335 4.148083 3.056671 0
M  V30 17 C -0.091278 3.125693 3.473150 0
M  V30 18 C -0.873635 2.470064 2.546685 0
M  V30 19 C -1.865128 1.403134 2.520283 0
M  V30 20 O -2.227835 0.779549 3.573492 0
M  V30 21 N -2.341971 1.181997 1.177381 0
M  V30 22 C -3.341401 0.206421 0.875473 0
M  V30 23 C -2.853170 -1.134741 0.555063 0
M  V30 24 C -2.683090 -2.030872 1.616859 0
M  V30 25 C -2.234817 -3.324659 1.459244 0
M  V30 26 C -1.929794 -3.787518 0.196313 0
M  V30 27 C -1.439324 -5.159980 -0.097235 0
M  V30 28 C -2.082995 -2.937319 -0.879162 0
M  V30 29 C -2.531928 -1.645950 -0.709227 0
M  V30 30 C -0.610638 1.273009 -1.947781 0
M  V30 31 C 0.293515 0.406049 -2.524620 0
M  V30 32 C 1.046383 -0.457264 -1.763605 0
M  V30 33 N 1.978880 -1.379969 -2.107344 0
M  V30 34 H 4.081265 -5.234583 2.446274 0
M  V30 35 H 5.580940 -4.256933 2.538354 0
M  V30 36 H 5.554629 -5.929516 1.744406 0
M  V30 37 H 3.879688 -3.385969 -1.711180 0
M  V30 38 H -0.017885 0.293198 1.285353 0
M  V30 39 H -3.247224 3.135509 0.121949 0
M  V30 40 H 0.185519 4.227521 -0.201187 0
M  V30 41 H 1.528242 5.338356 1.457726 0
M  V30 42 H 1.369596 4.655102 3.799775 0
M  V30 43 H -0.183358 2.800517 4.504879 0
M  V30 44 H -4.046164 0.116984 1.751434 0
M  V30 45 H -3.990290 0.556980 0.036229 0
M  V30 46 H -2.899154 -1.756430 2.659397 0
M  V30 47 H -2.112674 -3.995668 2.297773 0
M  V30 48 H -1.956758 -5.523868 -1.016753 0
M  V30 49 H -1.591175 -5.838739 0.752100 0
M  V30 50 H -0.360916 -5.078693 -0.378701 0
M  V30 51 H -1.880695 -3.166782 -1.931324 0
M  V30 52 H -2.674767 -0.923342 -1.517918 0
M  V30 53 H -1.257083 1.994660 -2.428980 0
M  V30 54 H 0.360980 0.458764 -3.598136 0
M  V30 55 H 2.306735 -1.607669 -3.077121 0
M  V30 END ATOM
M  V30 BEGIN BOND
M  V30 1 1 1 2
M  V30 2 1 2 3
M  V30 3 2 3 4
M  V30 4 1 3 5
M  V30 5 1 5 6
M  V30 6 2 6 7
M  V30 7 1 7 8
M  V30 8 2 8 9
M  V30 9 1 9 10
M  V30 10 1 10 11
M  V30 11 1 11 12
M  V30 12 1 11 13
M  V30 13 2 13 14
M  V30 14 1 14 15
M  V30 15 2 15 16
M  V30 16 1 16 17
M  V30 17 2 17 18
M  V30 18 1 18 19
M  V30 19 2 19 20
M  V30 20 1 19 21
M  V30 21 1 21 22
M  V30 22 1 22 23
M  V30 23 2 23 24
M  V30 24 1 24 25
M  V30 25 2 25 26
M  V30 26 1 26 27
M  V30 27 1 26 28
M  V30 28 2 28 29
M  V30 29 2 10 30
M  V30 30 1 30 31
M  V30 31 2 31 32
M  V30 32 1 32 33
M  V30 33 1 33 6
M  V30 34 1 32 8
M  V30 35 1 21 11
M  V30 36 1 29 23
M  V30 37 1 18 13
M  V30 38 1 1 34
M  V30 39 1 1 35
M  V30 40 1 1 36
M  V30 41 1 5 37
M  V30 42 1 9 38
M  V30 43 1 12 39
M  V30 44 1 14 40
M  V30 45 1 15 41
M  V30 46 1 16 42
M  V30 47 1 17 43
M  V30 48 1 22 44
M  V30 49 1 22 45
M  V30 50 1 24 46
M  V30 51 1 25 47
M  V30 52 1 27 48
M  V30 53 1 27 49
M  V30 54 1 27 50
M  V30 55 1 28 51
M  V30 56 1 29 52
M  V30 57 1 30 53
M  V30 58 1 31 54
M  V30 59 1 33 55
M  V30 END BOND
M  V30 END CTAB
M  END
>  <Dataset>  (160) 
ChEMBL_Kinases

>  <Ligand_Instance>  (160) 
nan

>  <PDB_ID>  (160) 
nan

>  <Standardized_SMILES>  (160) 
COC(=O)Nc1nc2cc(C3(O)c4ccccc4C(=O)N3Cc3ccc(C)cc3)ccc2[nH]1

>  <Name>  (160) 
nan

>  <Pocket>  (160) 
nan

>  <ATP_Site>  (160) 
nan

>  <Peripheral>  (160) 
nan

>  <Num_H_Atoms_ProtBoundConf>  (160) 
nan

>  <Num_Resolved_Atoms>  (160) 
nan

>  <Num_Not_Resolved_Atoms>  (160) 
nan

$$$$
CHEMBL4868251
     RDKit          3D

  0  0  0  0  0  0  0  0  0  0999 V3000
M  V30 BEGIN CTAB
M  V30 COUNTS 50 53 0 0 0
M  V30 BEGIN ATOM
M  V30 1 C 2.728480 -2.964008 2.210181 0
M  V30 2 O 2.523001 -1.773345 1.514650 0
M  V30 3 C 3.541869 -0.902640 1.174010 0
M  V30 4 C 4.847288 -1.243039 1.551788 0
M  V30 5 C 5.876992 -0.386187 1.220390 0
M  V30 6 C 5.685502 0.794028 0.532861 0
M  V30 7 N 6.617751 1.681339 0.170124 0
M  V30 8 C 6.268027 2.808045 -0.510447 0
M  V30 9 N 4.968713 3.069147 -0.842906 0
M  V30 10 C 3.966990 2.201443 -0.501087 0
M  V30 11 O 2.846326 2.746210 -0.966491 0
M  V30 12 C 1.570045 2.372003 -0.939092 0
M  V30 13 C 0.699766 2.733730 0.098504 0
M  V30 14 C -0.628731 2.357998 0.144987 0
M  V30 15 C -1.150484 1.590623 -0.863760 0
M  V30 16 N -2.521777 1.218922 -0.788564 0
M  V30 17 C -2.828373 0.017534 -0.131360 0
M  V30 18 O -1.865291 -0.610445 0.324961 0
M  V30 19 N -4.133304 -0.505877 0.037382 0
M  V30 20 C -4.560194 -1.695992 0.676040 0
M  V30 21 C -5.901951 -1.988364 0.709946 0
M  V30 22 C -6.382218 -3.127950 1.314172 0
M  V30 23 C -5.546589 -4.041801 1.920031 0
M  V30 24 C -4.196873 -3.775328 1.901724 0
M  V30 25 C -3.253656 -4.729714 2.541226 0
M  V30 26 F -3.479390 -6.021816 2.111227 0
M  V30 27 F -1.980865 -4.384695 2.127848 0
M  V30 28 F -3.260459 -4.633499 3.925243 0
M  V30 29 C -3.762300 -2.628686 1.288941 0
M  V30 30 C -0.366849 1.188102 -1.925302 0
M  V30 31 C 0.952910 1.589170 -1.925396 0
M  V30 32 C 4.394476 1.101728 0.175474 0
M  V30 33 C 3.346668 0.269640 0.490384 0
M  V30 34 H 3.480761 -2.859954 3.037279 0
M  V30 35 H 3.108997 -3.742444 1.510153 0
M  V30 36 H 1.828037 -3.371340 2.680401 0
M  V30 37 H 5.127119 -2.125609 2.085454 0
M  V30 38 H 6.914141 -0.608918 1.493725 0
M  V30 39 H 7.150852 3.404430 -0.717516 0
M  V30 40 H 1.153239 3.345519 0.883671 0
M  V30 41 H -1.177789 2.718220 1.018230 0
M  V30 42 H -3.315005 1.793876 -1.197429 0
M  V30 43 H -4.850733 0.120859 -0.393698 0
M  V30 44 H -6.608812 -1.290611 0.240582 0
M  V30 45 H -7.457061 -3.271262 1.289290 0
M  V30 46 H -5.966995 -4.922187 2.381944 0
M  V30 47 H -2.695029 -2.479578 1.309650 0
M  V30 48 H -0.745688 0.585891 -2.732314 0
M  V30 49 H 1.606295 1.297115 -2.738200 0
M  V30 50 H 2.333694 0.438281 0.250355 0
M  V30 END ATOM
M  V30 BEGIN BOND
M  V30 1 1 1 2
M  V30 2 1 2 3
M  V30 3 2 3 4
M  V30 4 1 4 5
M  V30 5 2 5 6
M  V30 6 1 6 7
M  V30 7 2 7 8
M  V30 8 1 8 9
M  V30 9 2 9 10
M  V30 10 1 10 11
M  V30 11 1 11 12
M  V30 12 2 12 13
M  V30 13 1 13 14
M  V30 14 2 14 15
M  V30 15 1 15 16
M  V30 16 1 16 17
M  V30 17 2 17 18
M  V30 18 1 17 19
M  V30 19 1 19 20
M  V30 20 2 20 21
M  V30 21 1 21 22
M  V30 22 2 22 23
M  V30 23 1 23 24
M  V30 24 1 24 25
M  V30 25 1 25 26
M  V30 26 1 25 27
M  V30 27 1 25 28
M  V30 28 2 24 29
M  V30 29 1 15 30
M  V30 30 2 30 31
M  V30 31 1 10 32
M  V30 32 2 32 33
M  V30 33 1 33 3
M  V30 34 1 32 6
M  V30 35 1 31 12
M  V30 36 1 29 20
M  V30 37 1 1 34
M  V30 38 1 1 35
M  V30 39 1 1 36
M  V30 40 1 4 37
M  V30 41 1 5 38
M  V30 42 1 8 39
M  V30 43 1 13 40
M  V30 44 1 14 41
M  V30 45 1 16 42
M  V30 46 1 19 43
M  V30 47 1 21 44
M  V30 48 1 22 45
M  V30 49 1 23 46
M  V30 50 1 29 47
M  V30 51 1 30 48
M  V30 52 1 31 49
M  V30 53 1 33 50
M  V30 END BOND
M  V30 END CTAB
M  END
>  <Dataset>  (161) 
ChEMBL_Kinases

>  <Ligand_Instance>  (161) 
nan

>  <PDB_ID>  (161) 
nan

>  <Standardized_SMILES>  (161) 
COc1ccc2ncnc(Oc3ccc(NC(=O)Nc4cccc(C(F)(F)F)c4)cc3)c2c1

>  <Name>  (161) 
nan

>  <Pocket>  (161) 
nan

>  <ATP_Site>  (161) 
nan

>  <Peripheral>  (161) 
nan

>  <Num_H_Atoms_ProtBoundConf>  (161) 
nan

>  <Num_Resolved_Atoms>  (161) 
nan

>  <Num_Not_Resolved_Atoms>  (161) 
nan

$$$$
CHEMBL4868266
     RDKit          3D

  0  0  0  0  0  0  0  0  0  0999 V3000
M  V30 BEGIN CTAB
M  V30 COUNTS 51 54 0 0 0
M  V30 BEGIN ATOM
M  V30 1 C 4.114276 -3.032732 4.675794 0
M  V30 2 N 5.263011 -2.466510 3.995597 0
M  V30 3 N 6.521395 -2.589156 4.319847 0
M  V30 4 C 7.319637 -1.931370 3.466684 0
M  V30 5 C 6.502917 -1.337420 2.515857 0
M  V30 6 C 5.210537 -1.691112 2.873282 0
M  V30 7 C 4.023937 -1.275166 2.135209 0
M  V30 8 C 2.941877 -0.813204 2.847052 0
M  V30 9 C 1.808150 -0.413499 2.180634 0
M  V30 10 F 0.734045 0.043177 2.855491 0
M  V30 11 C 1.659243 -0.437076 0.818869 0
M  V30 12 C 0.543056 -0.054873 -0.026177 0
M  V30 13 O 0.548673 -0.132297 -1.287076 0
M  V30 14 N -0.710717 0.456612 0.401647 0
M  V30 15 C -1.800141 0.827735 -0.454893 0 CFG=2
M  V30 16 C -2.023218 2.313131 -0.322904 0
M  V30 17 N -2.739388 2.715344 0.844881 0
M  V30 18 C -3.785912 1.855730 1.275371 0
M  V30 19 C -4.211151 0.998547 0.086096 0
M  V30 20 C -3.058718 0.044412 -0.153714 0 CFG=1
M  V30 21 C -3.402946 -0.892130 -1.252474 0
M  V30 22 C -3.645552 -0.369173 -2.527212 0
M  V30 23 C -3.967632 -1.250416 -3.553125 0
M  V30 24 C -4.052056 -2.612286 -3.343717 0
M  V30 25 F -4.371535 -3.461045 -4.372031 0
M  V30 26 C -3.814873 -3.151077 -2.085836 0
M  V30 27 F -3.883563 -4.482743 -1.820866 0
M  V30 28 C -3.499350 -2.248872 -1.097261 0
M  V30 29 C 2.772052 -0.910537 0.114057 0
M  V30 30 Cl 2.784130 -1.020661 -1.652154 0
M  V30 31 C 3.915754 -1.314978 0.765904 0
M  V30 32 H 4.432124 -3.991438 5.144026 0
M  V30 33 H 3.270915 -3.251682 4.002395 0
M  V30 34 H 3.761242 -2.400012 5.515481 0
M  V30 35 H 8.393543 -1.812480 3.421595 0
M  V30 36 H 6.824680 -0.723082 1.669306 0
M  V30 37 H 2.937344 -0.747644 3.915858 0
M  V30 38 H -0.882894 0.584145 1.420130 0
M  V30 39 H -1.501375 0.649237 -1.507065 0
M  V30 40 H -2.614555 2.640988 -1.204539 0
M  V30 41 H -1.007235 2.772531 -0.330785 0
M  V30 42 H -2.141293 3.090571 1.608851 0
M  V30 43 H -3.532639 1.141195 2.075813 0
M  V30 44 H -4.693647 2.418259 1.615406 0
M  V30 45 H -4.376601 1.644357 -0.804814 0
M  V30 46 H -5.130606 0.437972 0.308926 0
M  V30 47 H -2.886157 -0.479309 0.817872 0
M  V30 48 H -3.585521 0.697324 -2.717618 0
M  V30 49 H -4.166806 -0.893180 -4.569159 0
M  V30 50 H -3.302921 -2.598037 -0.096593 0
M  V30 51 H 4.754168 -1.672779 0.216743 0
M  V30 END ATOM
M  V30 BEGIN BOND
M  V30 1 1 1 2
M  V30 2 1 2 3
M  V30 3 2 3 4
M  V30 4 1 4 5
M  V30 5 2 5 6
M  V30 6 1 6 7
M  V30 7 2 7 8
M  V30 8 1 8 9
M  V30 9 1 9 10
M  V30 10 2 9 11
M  V30 11 1 11 12
M  V30 12 2 12 13
M  V30 13 1 12 14
M  V30 14 1 14 15
M  V30 15 1 15 16
M  V30 16 1 16 17
M  V30 17 1 17 18
M  V30 18 1 18 19
M  V30 19 1 19 20
M  V30 20 1 20 21
M  V30 21 2 21 22
M  V30 22 1 22 23
M  V30 23 2 23 24
M  V30 24 1 24 25
M  V30 25 1 24 26
M  V30 26 1 26 27
M  V30 27 2 26 28
M  V30 28 1 11 29
M  V30 29 1 29 30
M  V30 30 2 29 31
M  V30 31 1 6 2
M  V30 32 1 31 7
M  V30 33 1 20 15
M  V30 34 1 28 21
M  V30 35 1 1 32
M  V30 36 1 1 33
M  V30 37 1 1 34
M  V30 38 1 4 35
M  V30 39 1 5 36
M  V30 40 1 8 37
M  V30 41 1 14 38
M  V30 42 1 15 39 CFG=3
M  V30 43 1 16 40
M  V30 44 1 16 41
M  V30 45 1 17 42
M  V30 46 1 18 43
M  V30 47 1 18 44
M  V30 48 1 19 45
M  V30 49 1 19 46
M  V30 50 1 20 47 CFG=1
M  V30 51 1 22 48
M  V30 52 1 23 49
M  V30 53 1 28 50
M  V30 54 1 31 51
M  V30 END BOND
M  V30 END CTAB
M  END
>  <Dataset>  (162) 
ChEMBL_Kinases

>  <Ligand_Instance>  (162) 
nan

>  <PDB_ID>  (162) 
nan

>  <Standardized_SMILES>  (162) 
Cn1nccc1-c1cc(F)c(C(=O)N[C@@H]2CNCC[C@H]2c2ccc(F)c(F)c2)c(Cl)c1

>  <Name>  (162) 
nan

>  <Pocket>  (162) 
nan

>  <ATP_Site>  (162) 
nan

>  <Peripheral>  (162) 
nan

>  <Num_H_Atoms_ProtBoundConf>  (162) 
nan

>  <Num_Resolved_Atoms>  (162) 
nan

>  <Num_Not_Resolved_Atoms>  (162) 
nan

$$$$
CHEMBL486828
     RDKit          3D

  0  0  0  0  0  0  0  0  0  0999 V3000
M  V30 BEGIN CTAB
M  V30 COUNTS 59 64 0 0 0
M  V30 BEGIN ATOM
M  V30 1 O 3.757093 2.145383 1.480150 0
M  V30 2 C 2.802236 2.003967 0.674058 0
M  V30 3 N 2.636833 2.591438 -0.630974 0
M  V30 4 C 1.409153 2.154318 -1.181191 0
M  V30 5 O 1.153078 2.587668 -2.294895 0
M  V30 6 C 0.751749 1.285004 -0.266053 0
M  V30 7 C 1.583169 1.203316 0.825833 0
M  V30 8 C 1.246842 0.419889 1.937602 0
M  V30 9 C 2.114220 0.362013 3.110386 0
M  V30 10 C 1.700209 1.370550 3.993847 0
M  V30 11 Cl 0.372978 2.519324 3.765947 0
M  V30 12 C 2.340135 1.579202 5.222429 0
M  V30 13 C 3.408150 0.768272 5.571200 0
M  V30 14 C 3.799746 -0.216091 4.690404 0
M  V30 15 C 3.177803 -0.429720 3.480301 0
M  V30 16 Cl 3.565290 -1.608986 2.278681 0
M  V30 17 C 0.048735 -0.261513 1.882159 0
M  V30 18 C -0.825160 -0.202317 0.787082 0
M  V30 19 C -0.420603 0.590897 -0.264479 0
M  V30 20 C -1.398154 0.538484 -1.212880 0
M  V30 21 C -1.700997 1.025679 -2.448397 0
M  V30 22 C -2.842894 0.758223 -3.166947 0
M  V30 23 O -3.076952 1.302956 -4.436500 0
M  V30 24 C -3.794616 -0.085134 -2.604519 0
M  V30 25 C -3.532907 -0.605160 -1.351470 0
M  V30 26 C -2.362020 -0.292323 -0.686813 0
M  V30 27 N -2.047683 -0.764642 0.532852 0
M  V30 28 C -2.737483 -1.597014 1.462915 0
M  V30 29 C -2.584485 -3.053746 1.226295 0
M  V30 30 C -1.204499 -3.599758 1.218414 0
M  V30 31 N -0.400220 -3.008515 0.158918 0
M  V30 32 C -0.896213 -3.425015 -1.150671 0
M  V30 33 C -0.021435 -2.723365 -2.181700 0
M  V30 34 O 1.013766 -2.008255 -1.583379 0
M  V30 35 C 1.781916 -2.918086 -0.855391 0
M  V30 36 C 0.953315 -3.537433 0.241779 0
M  V30 37 H 3.405170 3.229701 -0.981392 0
M  V30 38 H 2.082476 2.330528 5.953543 0
M  V30 39 H 3.997462 0.810481 6.483167 0
M  V30 40 H 4.619438 -0.893145 4.878415 0
M  V30 41 H -0.230609 -0.871921 2.725293 0
M  V30 42 H -1.025824 1.676606 -2.946328 0
M  V30 43 H -2.716002 2.193851 -4.736789 0
M  V30 44 H -4.699588 -0.310228 -3.149462 0
M  V30 45 H -4.309437 -1.249255 -0.973571 0
M  V30 46 H -3.839726 -1.338045 1.474769 0
M  V30 47 H -2.413360 -1.372241 2.502351 0
M  V30 48 H -3.160860 -3.319343 0.310905 0
M  V30 49 H -3.145331 -3.578905 2.061198 0
M  V30 50 H -1.181287 -4.694354 1.063132 0
M  V30 51 H -0.675695 -3.390014 2.159398 0
M  V30 52 H -0.832342 -4.533473 -1.233375 0
M  V30 53 H -1.934974 -3.119372 -1.334503 0
M  V30 54 H 0.383306 -3.464612 -2.896348 0
M  V30 55 H -0.608621 -2.002630 -2.792443 0
M  V30 56 H 2.178743 -3.672550 -1.576554 0
M  V30 57 H 2.656850 -2.346196 -0.474224 0
M  V30 58 H 1.407151 -3.335207 1.220825 0
M  V30 59 H 0.941833 -4.634120 0.046548 0
M  V30 END ATOM
M  V30 BEGIN BOND
M  V30 1 2 1 2
M  V30 2 1 2 3
M  V30 3 1 3 4
M  V30 4 2 4 5
M  V30 5 1 4 6
M  V30 6 2 6 7
M  V30 7 1 7 8
M  V30 8 1 8 9
M  V30 9 2 9 10
M  V30 10 1 10 11
M  V30 11 1 10 12
M  V30 12 2 12 13
M  V30 13 1 13 14
M  V30 14 2 14 15
M  V30 15 1 15 16
M  V30 16 2 8 17
M  V30 17 1 17 18
M  V30 18 2 18 19
M  V30 19 1 19 20
M  V30 20 2 20 21
M  V30 21 1 21 22
M  V30 22 1 22 23
M  V30 23 2 22 24
M  V30 24 1 24 25
M  V30 25 2 25 26
M  V30 26 1 26 27
M  V30 27 1 27 28
M  V30 28 1 28 29
M  V30 29 1 29 30
M  V30 30 1 30 31
M  V30 31 1 31 32
M  V30 32 1 32 33
M  V30 33 1 33 34
M  V30 34 1 34 35
M  V30 35 1 35 36
M  V30 36 1 7 2
M  V30 37 1 15 9
M  V30 38 1 27 18
M  V30 39 1 36 31
M  V30 40 1 19 6
M  V30 41 1 26 20
M  V30 42 1 3 37
M  V30 43 1 12 38
M  V30 44 1 13 39
M  V30 45 1 14 40
M  V30 46 1 17 41
M  V30 47 1 21 42
M  V30 48 1 23 43
M  V30 49 1 24 44
M  V30 50 1 25 45
M  V30 51 1 28 46
M  V30 52 1 28 47
M  V30 53 1 29 48
M  V30 54 1 29 49
M  V30 55 1 30 50
M  V30 56 1 30 51
M  V30 57 1 32 52
M  V30 58 1 32 53
M  V30 59 1 33 54
M  V30 60 1 33 55
M  V30 61 1 35 56
M  V30 62 1 35 57
M  V30 63 1 36 58
M  V30 64 1 36 59
M  V30 END BOND
M  V30 END CTAB
M  END
>  <Dataset>  (163) 
ChEMBL_Kinases

>  <Ligand_Instance>  (163) 
nan

>  <PDB_ID>  (163) 
nan

>  <Standardized_SMILES>  (163) 
O=C1NC(=O)c2c1c(-c1c(Cl)cccc1Cl)cc1c2c2cc(O)ccc2n1CCCN1CCOCC1

>  <Name>  (163) 
nan

>  <Pocket>  (163) 
nan

>  <ATP_Site>  (163) 
nan

>  <Peripheral>  (163) 
nan

>  <Num_H_Atoms_ProtBoundConf>  (163) 
nan

>  <Num_Resolved_Atoms>  (163) 
nan

>  <Num_Not_Resolved_Atoms>  (163) 
nan

$$$$
CHEMBL486829
     RDKit          3D

  0  0  0  0  0  0  0  0  0  0999 V3000
M  V30 BEGIN CTAB
M  V30 COUNTS 55 57 0 0 0
M  V30 BEGIN ATOM
M  V30 1 O -1.650834 -0.685410 2.424838 0
M  V30 2 C -0.654962 -1.394651 2.134596 0
M  V30 3 O 0.486764 -1.552538 2.894694 0
M  V30 4 C 1.537464 -2.113689 2.099051 0
M  V30 5 C 2.294756 -3.148089 2.949773 0
M  V30 6 O 2.827032 -2.536272 4.060313 0
M  V30 7 C 2.423041 -1.000491 1.707355 0
M  V30 8 O 1.914878 0.067204 1.030838 0
M  V30 9 C 1.359824 0.417918 -0.108122 0
M  V30 10 O 1.124452 -0.340929 -1.060730 0
M  V30 11 C 1.019491 1.867412 -0.168071 0
M  V30 12 C 0.068047 2.311682 0.891411 0
M  V30 13 C 0.664241 3.428746 1.758639 0
M  V30 14 C 2.021768 3.024098 2.248461 0
M  V30 15 C 2.971184 2.762226 1.121966 0
M  V30 16 C 2.309029 2.659817 -0.212289 0
M  V30 17 C 0.879635 -2.811633 0.968178 0
M  V30 18 C -0.474228 -2.207511 0.941012 0
M  V30 19 C -1.407830 -2.329439 0.043901 0
M  V30 20 C -2.762907 -1.773307 -0.059493 0
M  V30 21 C -3.812335 -2.845291 -0.295232 0
M  V30 22 C -3.350297 -3.871571 -1.305365 0
M  V30 23 C -3.027510 -3.149976 -2.578732 0
M  V30 24 C -3.306778 -1.688009 -2.526980 0
M  V30 25 C -2.781511 -0.947260 -1.350518 0
M  V30 26 H 3.060866 -3.628973 2.316443 0
M  V30 27 H 1.561109 -3.915881 3.271141 0
M  V30 28 H 3.636966 -3.032376 4.332024 0
M  V30 29 H 3.331417 -1.444391 1.178501 0
M  V30 30 H 2.818873 -0.563758 2.689432 0
M  V30 31 H 0.528674 2.046047 -1.145441 0
M  V30 32 H -0.215151 1.481755 1.540973 0
M  V30 33 H -0.882770 2.750556 0.471280 0
M  V30 34 H -0.012616 3.541153 2.638332 0
M  V30 35 H 0.752211 4.356915 1.176870 0
M  V30 36 H 1.943395 2.150416 2.948713 0
M  V30 37 H 2.403424 3.858201 2.865610 0
M  V30 38 H 3.706419 3.615202 1.039300 0
M  V30 39 H 3.567840 1.847162 1.311129 0
M  V30 40 H 2.096504 3.661994 -0.664849 0
M  V30 41 H 2.972435 2.150291 -0.937578 0
M  V30 42 H 1.348530 -2.729316 -0.011724 0
M  V30 43 H 0.701574 -3.915371 1.216564 0
M  V30 44 H -1.145074 -2.972731 -0.812593 0
M  V30 45 H -3.101559 -1.149389 0.765945 0
M  V30 46 H -4.161560 -3.353830 0.597590 0
M  V30 47 H -4.694613 -2.330816 -0.729438 0
M  V30 48 H -2.516870 -4.474563 -0.907355 0
M  V30 49 H -4.193792 -4.579619 -1.435916 0
M  V30 50 H -3.722459 -3.563460 -3.369743 0
M  V30 51 H -2.015349 -3.415076 -2.995587 0
M  V30 52 H -2.929173 -1.260573 -3.488888 0
M  V30 53 H -4.425702 -1.555277 -2.595987 0
M  V30 54 H -1.749696 -0.623423 -1.593900 0
M  V30 55 H -3.391187 -0.034840 -1.173095 0
M  V30 END ATOM
M  V30 BEGIN BOND
M  V30 1 2 1 2
M  V30 2 1 2 3
M  V30 3 1 3 4
M  V30 4 1 4 5
M  V30 5 1 5 6
M  V30 6 1 4 7
M  V30 7 1 7 8
M  V30 8 1 8 9
M  V30 9 2 9 10
M  V30 10 1 9 11
M  V30 11 1 11 12
M  V30 12 1 12 13
M  V30 13 1 13 14
M  V30 14 1 14 15
M  V30 15 1 15 16
M  V30 16 1 4 17
M  V30 17 1 17 18
M  V30 18 2 18 19
M  V30 19 1 19 20
M  V30 20 1 20 21
M  V30 21 1 21 22
M  V30 22 1 22 23
M  V30 23 1 23 24
M  V30 24 1 24 25
M  V30 25 1 18 2
M  V30 26 1 25 20
M  V30 27 1 16 11
M  V30 28 1 5 26
M  V30 29 1 5 27
M  V30 30 1 6 28
M  V30 31 1 7 29
M  V30 32 1 7 30
M  V30 33 1 11 31
M  V30 34 1 12 32
M  V30 35 1 12 33
M  V30 36 1 13 34
M  V30 37 1 13 35
M  V30 38 1 14 36
M  V30 39 1 14 37
M  V30 40 1 15 38
M  V30 41 1 15 39
M  V30 42 1 16 40
M  V30 43 1 16 41
M  V30 44 1 17 42
M  V30 45 1 17 43
M  V30 46 1 19 44
M  V30 47 1 20 45
M  V30 48 1 21 46
M  V30 49 1 21 47
M  V30 50 1 22 48
M  V30 51 1 22 49
M  V30 52 1 23 50
M  V30 53 1 23 51
M  V30 54 1 24 52
M  V30 55 1 24 53
M  V30 56 1 25 54
M  V30 57 1 25 55
M  V30 END BOND
M  V30 END CTAB
M  END
>  <Dataset>  (164) 
ChEMBL_Kinases

>  <Ligand_Instance>  (164) 
nan

>  <PDB_ID>  (164) 
nan

>  <Standardized_SMILES>  (164) 
O=C1OC(CO)(COC(=O)C2CCCCC2)C/C1=C/C1CCCCC1

>  <Name>  (164) 
nan

>  <Pocket>  (164) 
nan

>  <ATP_Site>  (164) 
nan

>  <Peripheral>  (164) 
nan

>  <Num_H_Atoms_ProtBoundConf>  (164) 
nan

>  <Num_Resolved_Atoms>  (164) 
nan

>  <Num_Not_Resolved_Atoms>  (164) 
nan

$$$$
CHEMBL486830
     RDKit          3D

  0  0  0  0  0  0  0  0  0  0999 V3000
M  V30 BEGIN CTAB
M  V30 COUNTS 49 51 0 0 0
M  V30 BEGIN ATOM
M  V30 1 O -1.110882 -3.471070 1.305980 0
M  V30 2 C 0.015190 -3.076995 0.895804 0
M  V30 3 O 0.924412 -3.442954 -0.091592 0
M  V30 4 C 2.209456 -3.003213 0.304505 0
M  V30 5 C 3.184222 -4.149126 0.428290 0
M  V30 6 O 2.786223 -5.085222 1.358008 0
M  V30 7 C 2.802311 -2.036048 -0.708524 0
M  V30 8 O 1.944751 -0.890996 -0.831653 0
M  V30 9 C 2.240142 0.149316 -1.685041 0
M  V30 10 O 3.310884 0.007334 -2.335255 0
M  V30 11 C 1.457208 1.344313 -1.890911 0
M  V30 12 C 1.938619 2.264844 -2.797617 0
M  V30 13 C 1.201354 3.429123 -3.015853 0
M  V30 14 C 0.010438 3.669739 -2.344577 0
M  V30 15 C -0.487060 2.743145 -1.422994 0
M  V30 16 C 0.282954 1.613812 -1.249164 0
M  V30 17 C 2.050719 -2.242169 1.604425 0
M  V30 18 C 0.608873 -1.935579 1.578402 0
M  V30 19 C -0.118846 -0.921233 2.001588 0
M  V30 20 C -1.463008 -0.421925 2.060115 0
M  V30 21 C -1.795932 0.249812 3.393472 0
M  V30 22 C -3.263302 0.606133 3.360312 0
M  V30 23 C -4.072206 -0.674533 3.401867 0
M  V30 24 C -3.435842 -1.756591 2.547571 0
M  V30 25 C -2.639613 -1.067302 1.458190 0
M  V30 26 H 3.224988 -4.630425 -0.571633 0
M  V30 27 H 4.175177 -3.741443 0.635019 0
M  V30 28 H 3.523170 -5.263013 1.996194 0
M  V30 29 H 3.746695 -1.616353 -0.305701 0
M  V30 30 H 3.027285 -2.512345 -1.667164 0
M  V30 31 H 2.848453 2.170337 -3.366204 0
M  V30 32 H 1.569151 4.171960 -3.733254 0
M  V30 33 H -0.498647 4.610331 -2.580560 0
M  V30 34 H -1.408170 2.954876 -0.919801 0
M  V30 35 H -0.056361 0.874445 -0.553648 0
M  V30 36 H 2.687203 -1.343871 1.657217 0
M  V30 37 H 2.290746 -2.911481 2.479506 0
M  V30 38 H 0.548770 -0.167483 2.509593 0
M  V30 39 H -1.377138 0.520939 1.418259 0
M  V30 40 H -1.720401 -0.430682 4.249651 0
M  V30 41 H -1.115456 1.081146 3.527847 0
M  V30 42 H -3.534497 1.160232 4.292377 0
M  V30 43 H -3.554039 1.230947 2.504464 0
M  V30 44 H -5.081225 -0.467163 3.004796 0
M  V30 45 H -4.169463 -1.064509 4.436106 0
M  V30 46 H -4.257473 -2.340686 2.096700 0
M  V30 47 H -2.861022 -2.469084 3.158232 0
M  V30 48 H -2.567684 -1.569133 0.506373 0
M  V30 49 H -3.428224 -0.257611 1.145883 0
M  V30 END ATOM
M  V30 BEGIN BOND
M  V30 1 2 1 2
M  V30 2 1 2 3
M  V30 3 1 3 4
M  V30 4 1 4 5
M  V30 5 1 5 6
M  V30 6 1 4 7
M  V30 7 1 7 8
M  V30 8 1 8 9
M  V30 9 2 9 10
M  V30 10 1 9 11
M  V30 11 2 11 12
M  V30 12 1 12 13
M  V30 13 2 13 14
M  V30 14 1 14 15
M  V30 15 2 15 16
M  V30 16 1 4 17
M  V30 17 1 17 18
M  V30 18 2 18 19
M  V30 19 1 19 20
M  V30 20 1 20 21
M  V30 21 1 21 22
M  V30 22 1 22 23
M  V30 23 1 23 24
M  V30 24 1 24 25
M  V30 25 1 18 2
M  V30 26 1 25 20
M  V30 27 1 16 11
M  V30 28 1 5 26
M  V30 29 1 5 27
M  V30 30 1 6 28
M  V30 31 1 7 29
M  V30 32 1 7 30
M  V30 33 1 12 31
M  V30 34 1 13 32
M  V30 35 1 14 33
M  V30 36 1 15 34
M  V30 37 1 16 35
M  V30 38 1 17 36
M  V30 39 1 17 37
M  V30 40 1 19 38
M  V30 41 1 20 39
M  V30 42 1 21 40
M  V30 43 1 21 41
M  V30 44 1 22 42
M  V30 45 1 22 43
M  V30 46 1 23 44
M  V30 47 1 23 45
M  V30 48 1 24 46
M  V30 49 1 24 47
M  V30 50 1 25 48
M  V30 51 1 25 49
M  V30 END BOND
M  V30 END CTAB
M  END
>  <Dataset>  (165) 
ChEMBL_Kinases

>  <Ligand_Instance>  (165) 
nan

>  <PDB_ID>  (165) 
nan

>  <Standardized_SMILES>  (165) 
O=C1OC(CO)(COC(=O)c2ccccc2)C/C1=C/C1CCCCC1

>  <Name>  (165) 
nan

>  <Pocket>  (165) 
nan

>  <ATP_Site>  (165) 
nan

>  <Peripheral>  (165) 
nan

>  <Num_H_Atoms_ProtBoundConf>  (165) 
nan

>  <Num_Resolved_Atoms>  (165) 
nan

>  <Num_Not_Resolved_Atoms>  (165) 
nan

$$$$
CHEMBL3701781
     RDKit          3D

  0  0  0  0  0  0  0  0  0  0999 V3000
M  V30 BEGIN CTAB
M  V30 COUNTS 40 42 0 0 0
M  V30 BEGIN ATOM
M  V30 1 C -1.872624 -1.969806 -1.390206 0
M  V30 2 C -0.568599 -2.648218 -1.113697 0
M  V30 3 C -0.380456 -3.838421 -1.790226 0
M  V30 4 C 0.803770 -4.514320 -1.581546 0
M  V30 5 C 1.759798 -4.011421 -0.726198 0
M  V30 6 C 3.013500 -4.726292 -0.505588 0
M  V30 7 N 3.987371 -4.186703 0.378414 0
M  V30 8 O 3.218068 -5.814742 -1.102142 0
M  V30 9 C 1.497948 -2.818523 -0.088571 0
M  V30 10 C 0.349457 -2.086694 -0.240570 0
M  V30 11 C 0.087793 -0.824502 0.444584 0
M  V30 12 C 1.182647 0.050625 0.394179 0
M  V30 13 C 1.083462 1.291436 1.002936 0
M  V30 14 C -0.063610 1.665128 1.646385 0
M  V30 15 C -1.145878 0.802458 1.697429 0
M  V30 16 C -1.066472 -0.438456 1.096847 0
M  V30 17 N -2.233961 1.381815 2.408323 0
M  V30 18 C -1.761787 2.677961 2.804956 0
M  V30 19 O -2.308725 3.586593 3.440663 0
M  V30 20 C -0.362753 2.918841 2.344730 0
M  V30 21 C -0.246567 4.147625 1.488360 0
M  V30 22 C 0.471980 3.080479 3.577187 0
M  V30 23 H -1.782453 -0.885367 -1.282845 0
M  V30 24 H -2.706897 -2.372299 -0.796671 0
M  V30 25 H -2.146418 -2.123771 -2.476523 0
M  V30 26 H -1.121888 -4.242942 -2.463799 0
M  V30 27 H 1.053537 -5.441718 -2.052902 0
M  V30 28 H 4.702844 -3.457974 0.589936 0
M  V30 29 H 3.937361 -4.861735 1.184680 0
M  V30 30 H 2.254028 -2.408425 0.595905 0
M  V30 31 H 2.121672 -0.179217 -0.098213 0
M  V30 32 H 1.949977 1.964711 0.954856 0
M  V30 33 H -1.861645 -1.170410 1.091456 0
M  V30 34 H -3.181845 1.005194 2.626491 0
M  V30 35 H 0.603968 3.940709 0.782841 0
M  V30 36 H -1.162852 4.406824 0.964124 0
M  V30 37 H 0.076884 4.981882 2.129868 0
M  V30 38 H 0.104222 3.911678 4.216195 0
M  V30 39 H 1.550315 3.220065 3.393270 0
M  V30 40 H 0.368308 2.139485 4.160909 0
M  V30 END ATOM
M  V30 BEGIN BOND
M  V30 1 1 1 2
M  V30 2 2 2 3
M  V30 3 1 3 4
M  V30 4 2 4 5
M  V30 5 1 5 6
M  V30 6 1 6 7
M  V30 7 2 6 8
M  V30 8 1 5 9
M  V30 9 2 9 10
M  V30 10 1 10 11
M  V30 11 2 11 12
M  V30 12 1 12 13
M  V30 13 2 13 14
M  V30 14 1 14 15
M  V30 15 2 15 16
M  V30 16 1 15 17
M  V30 17 1 17 18
M  V30 18 2 18 19
M  V30 19 1 18 20
M  V30 20 1 20 21
M  V30 21 1 20 22
M  V30 22 1 10 2
M  V30 23 1 16 11
M  V30 24 1 20 14
M  V30 25 1 1 23
M  V30 26 1 1 24
M  V30 27 1 1 25
M  V30 28 1 3 26
M  V30 29 1 4 27
M  V30 30 1 7 28
M  V30 31 1 7 29
M  V30 32 1 9 30
M  V30 33 1 12 31
M  V30 34 1 13 32
M  V30 35 1 16 33
M  V30 36 1 17 34
M  V30 37 1 21 35
M  V30 38 1 21 36
M  V30 39 1 21 37
M  V30 40 1 22 38
M  V30 41 1 22 39
M  V30 42 1 22 40
M  V30 END BOND
M  V30 END CTAB
M  END
>  <Dataset>  (166) 
ChEMBL_Kinases

>  <Ligand_Instance>  (166) 
nan

>  <PDB_ID>  (166) 
nan

>  <Standardized_SMILES>  (166) 
Cc1ccc(C(N)=O)cc1-c1ccc2c(c1)NC(=O)C2(C)C

>  <Name>  (166) 
nan

>  <Pocket>  (166) 
nan

>  <ATP_Site>  (166) 
nan

>  <Peripheral>  (166) 
nan

>  <Num_H_Atoms_ProtBoundConf>  (166) 
nan

>  <Num_Resolved_Atoms>  (166) 
nan

>  <Num_Not_Resolved_Atoms>  (166) 
nan

$$$$
CHEMBL4868353
     RDKit          3D

  0  0  0  0  0  0  0  0  0  0999 V3000
M  V30 BEGIN CTAB
M  V30 COUNTS 82 87 0 0 0
M  V30 BEGIN ATOM
M  V30 1 C 0.441096 -4.781686 4.902612 0
M  V30 2 O -0.403594 -3.883419 4.206251 0
M  V30 3 C 0.072395 -3.074561 3.171715 0
M  V30 4 C 1.379416 -3.088659 2.756814 0
M  V30 5 C 1.877289 -2.309295 1.746658 0
M  V30 6 N 3.222671 -2.352932 1.347184 0
M  V30 7 C 4.291934 -3.161331 1.898749 0
M  V30 8 C 4.858319 -4.114622 0.864591 0
M  V30 9 N 4.204801 -3.849915 -0.383003 0
M  V30 10 C 4.423556 -4.834650 -1.402708 0
M  V30 11 C 4.444148 -2.496709 -0.774183 0
M  V30 12 C 3.821284 -1.602200 0.296538 0
M  V30 13 C 0.964094 -1.492459 1.162609 0
M  V30 14 C -0.355199 -1.455872 1.557155 0
M  V30 15 C -0.871158 -2.233106 2.570029 0
M  V30 16 N -2.240240 -2.124676 2.914770 0
M  V30 17 C -3.327381 -1.392834 2.362228 0
M  V30 18 N -4.461981 -1.540512 3.102053 0
M  V30 19 C -5.606584 -0.951620 2.746399 0
M  V30 20 C -5.578274 -0.195990 1.604267 0
M  V30 21 C -6.777366 0.389213 1.274409 0
M  V30 22 C -8.004225 0.218368 2.092235 0
M  V30 23 C -6.821374 1.160287 0.136724 0
M  V30 24 C -5.650324 1.275907 -0.571785 0
M  V30 25 O -5.747714 2.003294 -1.616052 0
M  V30 26 N -4.429945 0.715318 -0.289707 0
M  V30 27 C -3.355915 0.972827 -1.158681 0 CFG=1
M  V30 28 C -2.646067 2.287329 -0.807163 0
M  V30 29 C -1.821717 2.721910 -2.003286 0
M  V30 30 C -0.839216 1.668587 -2.422910 0 CFG=1
M  V30 31 N 0.538435 2.116805 -2.263869 0
M  V30 32 C 1.609186 2.201175 -3.186585 0
M  V30 33 O 1.383070 1.842108 -4.345274 0
M  V30 34 C 2.909792 2.695070 -2.755022 0
M  V30 35 C 3.924982 2.720551 -3.685473 0
M  V30 36 C 5.195210 3.185682 -3.330531 0
M  V30 37 C 5.411507 3.621386 -2.022572 0
M  V30 38 C 4.412927 3.607893 -1.068415 0
M  V30 39 C 3.181724 3.137772 -1.479424 0
M  V30 40 C -0.982429 0.365041 -1.648736 0
M  V30 41 C -2.403322 -0.100638 -1.511833 0
M  V30 42 C -4.461127 -0.017204 0.825567 0
M  V30 43 N -3.377342 -0.637933 1.259290 0
M  V30 44 H 1.408022 -4.362672 5.194513 0
M  V30 45 H -0.123674 -5.209430 5.751443 0
M  V30 46 H 0.596496 -5.648867 4.199862 0
M  V30 47 H 1.989357 -3.785167 3.313491 0
M  V30 48 H 5.099969 -2.482502 2.299731 0
M  V30 49 H 3.934022 -3.815046 2.747020 0
M  V30 50 H 5.958996 -3.968034 0.818470 0
M  V30 51 H 4.674830 -5.189694 1.140003 0
M  V30 52 H 4.391426 -4.332480 -2.384219 0
M  V30 53 H 3.520779 -5.513461 -1.378023 0
M  V30 54 H 5.330025 -5.445839 -1.235389 0
M  V30 55 H 3.985330 -2.358174 -1.772039 0
M  V30 56 H 5.508684 -2.226016 -0.884706 0
M  V30 57 H 3.122581 -0.949402 -0.259987 0
M  V30 58 H 4.599543 -0.922272 0.711953 0
M  V30 59 H 1.218178 -0.825973 0.354803 0
M  V30 60 H -1.058106 -0.793726 1.083756 0
M  V30 61 H -2.379905 -2.725622 3.729876 0
M  V30 62 H -6.506505 -1.082452 3.358968 0
M  V30 63 H -7.776548 0.495020 3.154447 0
M  V30 64 H -8.202221 -0.877378 2.121482 0
M  V30 65 H -8.838733 0.767659 1.655532 0
M  V30 66 H -7.729844 1.646992 -0.180618 0
M  V30 67 H -3.840084 1.260809 -2.166562 0
M  V30 68 H -2.101150 2.199516 0.125239 0
M  V30 69 H -3.453596 3.034697 -0.685992 0
M  V30 70 H -1.357253 3.690999 -1.768994 0
M  V30 71 H -2.552967 2.904946 -2.825240 0
M  V30 72 H -0.975644 1.406933 -3.486189 0
M  V30 73 H 0.594085 2.387321 -1.256762 0
M  V30 74 H 3.831273 2.393677 -4.730207 0
M  V30 75 H 5.993628 3.205209 -4.065733 0
M  V30 76 H 6.387422 3.993004 -1.701777 0
M  V30 77 H 4.564401 3.943291 -0.042663 0
M  V30 78 H 2.404756 3.133533 -0.731638 0
M  V30 79 H -0.425103 -0.404234 -2.229848 0
M  V30 80 H -0.428710 0.504087 -0.723003 0
M  V30 81 H -2.646577 -0.567069 -2.520702 0
M  V30 82 H -2.428908 -0.955044 -0.828211 0
M  V30 END ATOM
M  V30 BEGIN BOND
M  V30 1 1 1 2
M  V30 2 1 2 3
M  V30 3 2 3 4
M  V30 4 1 4 5
M  V30 5 1 5 6
M  V30 6 1 6 7
M  V30 7 1 7 8
M  V30 8 1 8 9
M  V30 9 1 9 10
M  V30 10 1 9 11
M  V30 11 1 11 12
M  V30 12 2 5 13
M  V30 13 1 13 14
M  V30 14 2 14 15
M  V30 15 1 15 16
M  V30 16 1 16 17
M  V30 17 2 17 18
M  V30 18 1 18 19
M  V30 19 2 19 20
M  V30 20 1 20 21
M  V30 21 1 21 22
M  V30 22 2 21 23
M  V30 23 1 23 24
M  V30 24 2 24 25
M  V30 25 1 24 26
M  V30 26 1 26 27
M  V30 27 1 27 28
M  V30 28 1 28 29
M  V30 29 1 29 30
M  V30 30 1 30 31
M  V30 31 1 31 32
M  V30 32 2 32 33
M  V30 33 1 32 34
M  V30 34 2 34 35
M  V30 35 1 35 36
M  V30 36 2 36 37
M  V30 37 1 37 38
M  V30 38 2 38 39
M  V30 39 1 30 40
M  V30 40 1 40 41
M  V30 41 1 26 42
M  V30 42 2 42 43
M  V30 43 1 15 3
M  V30 44 1 43 17
M  V30 45 1 12 6
M  V30 46 1 42 20
M  V30 47 1 41 27
M  V30 48 1 39 34
M  V30 49 1 1 44
M  V30 50 1 1 45
M  V30 51 1 1 46
M  V30 52 1 4 47
M  V30 53 1 7 48
M  V30 54 1 7 49
M  V30 55 1 8 50
M  V30 56 1 8 51
M  V30 57 1 10 52
M  V30 58 1 10 53
M  V30 59 1 10 54
M  V30 60 1 11 55
M  V30 61 1 11 56
M  V30 62 1 12 57
M  V30 63 1 12 58
M  V30 64 1 13 59
M  V30 65 1 14 60
M  V30 66 1 16 61
M  V30 67 1 19 62
M  V30 68 1 22 63
M  V30 69 1 22 64
M  V30 70 1 22 65
M  V30 71 1 23 66
M  V30 72 1 27 67 CFG=3
M  V30 73 1 28 68
M  V30 74 1 28 69
M  V30 75 1 29 70
M  V30 76 1 29 71
M  V30 77 1 30 72 CFG=3
M  V30 78 1 31 73
M  V30 79 1 35 74
M  V30 80 1 36 75
M  V30 81 1 37 76
M  V30 82 1 38 77
M  V30 83 1 39 78
M  V30 84 1 40 79
M  V30 85 1 40 80
M  V30 86 1 41 81
M  V30 87 1 41 82
M  V30 END BOND
M  V30 END CTAB
M  END
>  <Dataset>  (167) 
ChEMBL_Kinases

>  <Ligand_Instance>  (167) 
nan

>  <PDB_ID>  (167) 
nan

>  <Standardized_SMILES>  (167) 
COc1cc(N2CCN(C)CC2)ccc1Nc1ncc2c(C)cc(=O)n([C@H]3CC[C@@H](NC(=O)c4ccccc4)CC3)c2n1

>  <Name>  (167) 
nan

>  <Pocket>  (167) 
nan

>  <ATP_Site>  (167) 
nan

>  <Peripheral>  (167) 
nan

>  <Num_H_Atoms_ProtBoundConf>  (167) 
nan

>  <Num_Resolved_Atoms>  (167) 
nan

>  <Num_Not_Resolved_Atoms>  (167) 
nan

$$$$
CHEMBL4868359
     RDKit          3D

  0  0  0  0  0  0  0  0  0  0999 V3000
M  V30 BEGIN CTAB
M  V30 COUNTS 49 52 0 0 0
M  V30 BEGIN ATOM
M  V30 1 C 1.253159 -5.454044 3.856068 0
M  V30 2 O 1.604557 -4.765166 2.654425 0
M  V30 3 C 2.495382 -3.699532 2.647786 0
M  V30 4 C 3.147187 -3.169346 3.757065 0
M  V30 5 C 3.997028 -2.111058 3.565103 0
M  V30 6 C 4.235431 -1.549590 2.329580 0
M  V30 7 C 3.584049 -2.078834 1.218488 0
M  V30 8 C 3.839000 -1.469718 -0.135649 0
M  V30 9 N 2.829674 -0.416464 -0.282508 0
M  V30 10 C 3.235083 0.888505 0.202757 0
M  V30 11 C 2.375720 1.990792 -0.351747 0
M  V30 12 O 1.048356 1.972883 0.154558 0
M  V30 13 C 0.051590 1.049542 -0.216095 0
M  V30 14 C -1.266003 1.441543 -0.107109 0
M  V30 15 C -2.255224 0.569416 -0.458480 0
M  V30 16 C -3.643616 0.983374 -0.342778 0
M  V30 17 C -4.652879 0.519858 -1.185947 0
M  V30 18 C -5.947806 0.955273 -1.017222 0
M  V30 19 C -6.241343 1.843148 -0.020981 0
M  V30 20 N -7.537347 2.367193 0.255543 0
M  V30 21 N -5.279311 2.296958 0.797109 0
M  V30 22 C -3.993225 1.884238 0.653511 0
M  V30 23 C -2.020340 -0.707439 -0.926268 0
M  V30 24 C -0.715441 -1.138554 -1.050173 0
M  V30 25 C 0.289586 -0.245633 -0.690578 0
M  V30 26 C 1.606522 -0.882038 -0.889629 0
M  V30 27 O 1.675601 -1.894093 -1.633518 0
M  V30 28 C 2.724294 -3.148787 1.409795 0
M  V30 29 H 2.198197 -5.708501 4.370145 0
M  V30 30 H 0.585462 -4.801004 4.489656 0
M  V30 31 H 0.625617 -6.316458 3.581324 0
M  V30 32 H 2.921408 -3.650444 4.700147 0
M  V30 33 H 4.484562 -1.730287 4.464758 0
M  V30 34 H 4.907504 -0.729384 2.253064 0
M  V30 35 H 4.866928 -1.093685 -0.226320 0
M  V30 36 H 3.651489 -2.226614 -0.913875 0
M  V30 37 H 3.258008 0.913572 1.313343 0
M  V30 38 H 4.264978 1.071318 -0.156609 0
M  V30 39 H 2.828807 2.958631 -0.055780 0
M  V30 40 H 2.415002 1.943403 -1.459554 0
M  V30 41 H -1.418309 2.444649 0.261066 0
M  V30 42 H -4.400289 -0.182555 -1.968420 0
M  V30 43 H -6.759889 0.615519 -1.655392 0
M  V30 44 H -8.027650 3.123452 -0.289978 0
M  V30 45 H -8.059966 1.960620 1.087413 0
M  V30 46 H -3.247226 2.284794 1.347463 0
M  V30 47 H -2.784305 -1.395645 -1.203405 0
M  V30 48 H -0.420406 -2.121161 -1.406871 0
M  V30 49 H 2.263293 -3.500095 0.520314 0
M  V30 END ATOM
M  V30 BEGIN BOND
M  V30 1 1 1 2
M  V30 2 1 2 3
M  V30 3 2 3 4
M  V30 4 1 4 5
M  V30 5 2 5 6
M  V30 6 1 6 7
M  V30 7 1 7 8
M  V30 8 1 8 9
M  V30 9 1 9 10
M  V30 10 1 10 11
M  V30 11 1 11 12
M  V30 12 1 12 13
M  V30 13 2 13 14
M  V30 14 1 14 15
M  V30 15 1 15 16
M  V30 16 2 16 17
M  V30 17 1 17 18
M  V30 18 2 18 19
M  V30 19 1 19 20
M  V30 20 1 19 21
M  V30 21 2 21 22
M  V30 22 2 15 23
M  V30 23 1 23 24
M  V30 24 2 24 25
M  V30 25 1 25 26
M  V30 26 2 26 27
M  V30 27 2 7 28
M  V30 28 1 28 3
M  V30 29 1 26 9
M  V30 30 1 25 13
M  V30 31 1 22 16
M  V30 32 1 1 29
M  V30 33 1 1 30
M  V30 34 1 1 31
M  V30 35 1 4 32
M  V30 36 1 5 33
M  V30 37 1 6 34
M  V30 38 1 8 35
M  V30 39 1 8 36
M  V30 40 1 10 37
M  V30 41 1 10 38
M  V30 42 1 11 39
M  V30 43 1 11 40
M  V30 44 1 14 41
M  V30 45 1 17 42
M  V30 46 1 18 43
M  V30 47 1 20 44
M  V30 48 1 20 45
M  V30 49 1 22 46
M  V30 50 1 23 47
M  V30 51 1 24 48
M  V30 52 1 28 49
M  V30 END BOND
M  V30 END CTAB
M  END
>  <Dataset>  (168) 
ChEMBL_Kinases

>  <Ligand_Instance>  (168) 
nan

>  <PDB_ID>  (168) 
nan

>  <Standardized_SMILES>  (168) 
COc1cccc(CN2CCOc3cc(-c4ccc(N)nc4)ccc3C2=O)c1

>  <Name>  (168) 
nan

>  <Pocket>  (168) 
nan

>  <ATP_Site>  (168) 
nan

>  <Peripheral>  (168) 
nan

>  <Num_H_Atoms_ProtBoundConf>  (168) 
nan

>  <Num_Resolved_Atoms>  (168) 
nan

>  <Num_Not_Resolved_Atoms>  (168) 
nan

$$$$
CHEMBL4868362
     RDKit          3D

  0  0  0  0  0  0  0  0  0  0999 V3000
M  V30 BEGIN CTAB
M  V30 COUNTS 45 48 0 0 0
M  V30 BEGIN ATOM
M  V30 1 C 3.912691 -2.729144 2.961818 0
M  V30 2 O 3.440783 -1.583754 2.286842 0
M  V30 3 C 4.350958 -0.686453 1.752568 0
M  V30 4 N 5.691941 -0.794956 1.810939 0
M  V30 5 N 6.199300 0.253422 1.189101 0
M  V30 6 C 7.641556 0.473967 1.052551 0
M  V30 7 C 5.209522 1.012299 0.744806 0
M  V30 8 C 3.982016 0.468371 1.071577 0
M  V30 9 C 2.681698 1.036064 0.741630 0
M  V30 10 O 2.665283 2.118492 0.101915 0
M  V30 11 N 1.454961 0.463646 1.085252 0
M  V30 12 C 0.130179 0.895585 0.835664 0
M  V30 13 C -0.239988 2.036919 0.162733 0
M  V30 14 C -1.541382 2.428811 -0.063283 0
M  V30 15 C -2.564403 1.636047 0.409630 0
M  V30 16 C -2.185425 0.493033 1.083515 0
M  V30 17 C -3.159521 -0.436285 1.643134 0
M  V30 18 N -3.427858 -0.333661 2.957904 0
M  V30 19 N -4.322684 -1.254376 3.260706 0
M  V30 20 C -4.589402 -1.909268 2.121308 0
M  V30 21 N -3.878105 -1.421021 1.093121 0
M  V30 22 C -3.873252 -1.837615 -0.266936 0
M  V30 23 C -4.421973 -3.265947 -0.444949 0
M  V30 24 F -3.670216 -4.176426 0.263391 0
M  V30 25 F -5.725004 -3.252748 -0.054939 0
M  V30 26 F -4.282971 -3.640333 -1.785818 0
M  V30 27 C -2.813190 -1.507865 -1.239672 0
M  V30 28 C -4.266232 -0.955817 -1.386402 0
M  V30 29 N -0.904562 0.189291 1.257524 0
M  V30 30 H 4.791812 -2.470072 3.613034 0
M  V30 31 H 3.148307 -3.172166 3.619539 0
M  V30 32 H 4.207967 -3.465293 2.169943 0
M  V30 33 H 8.214269 0.028984 1.870643 0
M  V30 34 H 8.005853 0.009088 0.109277 0
M  V30 35 H 7.878134 1.548935 1.009648 0
M  V30 36 H 5.415739 1.924430 0.204790 0
M  V30 37 H 1.565202 -0.429063 1.612423 0
M  V30 38 H 0.497868 2.697588 -0.230883 0
M  V30 39 H -1.783620 3.336636 -0.598764 0
M  V30 40 H -3.610816 1.876704 0.271898 0
M  V30 41 H -5.303816 -2.718808 2.124215 0
M  V30 42 H -2.516474 -2.263871 -2.027373 0
M  V30 43 H -2.029232 -0.769352 -1.099838 0
M  V30 44 H -4.813561 -1.353710 -2.267005 0
M  V30 45 H -4.333523 0.126689 -1.307032 0
M  V30 END ATOM
M  V30 BEGIN BOND
M  V30 1 1 1 2
M  V30 2 1 2 3
M  V30 3 2 3 4
M  V30 4 1 4 5
M  V30 5 1 5 6
M  V30 6 1 5 7
M  V30 7 2 7 8
M  V30 8 1 8 9
M  V30 9 2 9 10
M  V30 10 1 9 11
M  V30 11 1 11 12
M  V30 12 2 12 13
M  V30 13 1 13 14
M  V30 14 2 14 15
M  V30 15 1 15 16
M  V30 16 1 16 17
M  V30 17 2 17 18
M  V30 18 1 18 19
M  V30 19 2 19 20
M  V30 20 1 20 21
M  V30 21 1 21 22
M  V30 22 1 22 23
M  V30 23 1 23 24
M  V30 24 1 23 25
M  V30 25 1 23 26
M  V30 26 1 22 27
M  V30 27 1 27 28
M  V30 28 2 16 29
M  V30 29 1 8 3
M  V30 30 1 29 12
M  V30 31 1 21 17
M  V30 32 1 28 22
M  V30 33 1 1 30
M  V30 34 1 1 31
M  V30 35 1 1 32
M  V30 36 1 6 33
M  V30 37 1 6 34
M  V30 38 1 6 35
M  V30 39 1 7 36
M  V30 40 1 11 37
M  V30 41 1 13 38
M  V30 42 1 14 39
M  V30 43 1 15 40
M  V30 44 1 20 41
M  V30 45 1 27 42
M  V30 46 1 27 43
M  V30 47 1 28 44
M  V30 48 1 28 45
M  V30 END BOND
M  V30 END CTAB
M  END
>  <Dataset>  (169) 
ChEMBL_Kinases

>  <Ligand_Instance>  (169) 
nan

>  <PDB_ID>  (169) 
nan

>  <Standardized_SMILES>  (169) 
COc1nn(C)cc1C(=O)Nc1cccc(-c2nncn2C2(C(F)(F)F)CC2)n1

>  <Name>  (169) 
nan

>  <Pocket>  (169) 
nan

>  <ATP_Site>  (169) 
nan

>  <Peripheral>  (169) 
nan

>  <Num_H_Atoms_ProtBoundConf>  (169) 
nan

>  <Num_Resolved_Atoms>  (169) 
nan

>  <Num_Not_Resolved_Atoms>  (169) 
nan

$$$$
CHEMBL3701782
     RDKit          3D

  0  0  0  0  0  0  0  0  0  0999 V3000
M  V30 BEGIN CTAB
M  V30 COUNTS 50 53 0 0 0
M  V30 BEGIN ATOM
M  V30 1 C 0.554716 -3.520143 3.125598 0
M  V30 2 C 1.303562 -2.433415 2.445557 0
M  V30 3 C 2.586439 -2.133076 2.851418 0
M  V30 4 C 3.366905 -1.125278 2.268289 0
M  V30 5 C 2.837104 -0.387577 1.233760 0
M  V30 6 C 3.694676 0.640696 0.672729 0
M  V30 7 O 4.821687 0.780185 1.155299 0
M  V30 8 N 3.383894 1.519548 -0.383715 0
M  V30 9 C 3.955103 2.583356 -1.128395 0
M  V30 10 C 4.314540 3.830003 -0.400396 0
M  V30 11 C 5.270203 3.974004 0.695059 0
M  V30 12 C 3.807960 3.945221 1.018376 0
M  V30 13 C 1.554436 -0.698008 0.838167 0
M  V30 14 C 0.790974 -1.690192 1.414968 0
M  V30 15 C -0.561086 -1.957065 0.937239 0
M  V30 16 C -1.110637 -3.197940 0.686385 0
M  V30 17 C -2.408528 -3.328728 0.234083 0
M  V30 18 C -3.168172 -2.194585 0.029956 0
M  V30 19 C -2.671596 -0.928142 0.263893 0
M  V30 20 C -1.369350 -0.850986 0.715007 0
M  V30 21 N -3.690258 0.018418 -0.038625 0
M  V30 22 C -4.865241 -0.659728 -0.476136 0
M  V30 23 O -5.981875 -0.195228 -0.836486 0
M  V30 24 C -4.578396 -2.107800 -0.449990 0
M  V30 25 C -5.527456 -2.784246 0.520648 0
M  V30 26 C -4.738765 -2.755760 -1.811857 0
M  V30 27 H 0.858071 -4.536798 2.805478 0
M  V30 28 H 0.878734 -3.462940 4.204689 0
M  V30 29 H -0.537804 -3.356322 3.161658 0
M  V30 30 H 3.006529 -2.709105 3.662762 0
M  V30 31 H 4.358348 -0.988756 2.678063 0
M  V30 32 H 2.385847 1.279877 -0.702555 0
M  V30 33 H 4.874283 2.138970 -1.629977 0
M  V30 34 H 3.310290 2.850587 -1.997867 0
M  V30 35 H 4.109827 4.764880 -0.990689 0
M  V30 36 H 5.789613 4.988703 0.786360 0
M  V30 37 H 5.880181 3.186165 1.142237 0
M  V30 38 H 3.375356 4.927916 1.356757 0
M  V30 39 H 3.338417 3.061737 1.480179 0
M  V30 40 H 1.132373 -0.123507 0.027302 0
M  V30 41 H -0.466888 -4.048776 0.864870 0
M  V30 42 H -2.752909 -4.349608 0.064713 0
M  V30 43 H -1.003711 0.166728 0.891516 0
M  V30 44 H -3.616081 1.056821 0.038815 0
M  V30 45 H -5.334918 -2.481944 1.562565 0
M  V30 46 H -6.553440 -2.524179 0.189488 0
M  V30 47 H -5.459398 -3.895802 0.392634 0
M  V30 48 H -5.739722 -3.255308 -1.912815 0
M  V30 49 H -4.003319 -3.593629 -1.850573 0
M  V30 50 H -4.498994 -2.080681 -2.637178 0
M  V30 END ATOM
M  V30 BEGIN BOND
M  V30 1 1 1 2
M  V30 2 2 2 3
M  V30 3 1 3 4
M  V30 4 2 4 5
M  V30 5 1 5 6
M  V30 6 2 6 7
M  V30 7 1 6 8
M  V30 8 1 8 9
M  V30 9 1 9 10
M  V30 10 1 10 11
M  V30 11 1 11 12
M  V30 12 1 5 13
M  V30 13 2 13 14
M  V30 14 1 14 15
M  V30 15 2 15 16
M  V30 16 1 16 17
M  V30 17 2 17 18
M  V30 18 1 18 19
M  V30 19 2 19 20
M  V30 20 1 19 21
M  V30 21 1 21 22
M  V30 22 2 22 23
M  V30 23 1 22 24
M  V30 24 1 24 25
M  V30 25 1 24 26
M  V30 26 1 14 2
M  V30 27 1 20 15
M  V30 28 1 12 10
M  V30 29 1 24 18
M  V30 30 1 1 27
M  V30 31 1 1 28
M  V30 32 1 1 29
M  V30 33 1 3 30
M  V30 34 1 4 31
M  V30 35 1 8 32
M  V30 36 1 9 33
M  V30 37 1 9 34
M  V30 38 1 10 35
M  V30 39 1 11 36
M  V30 40 1 11 37
M  V30 41 1 12 38
M  V30 42 1 12 39
M  V30 43 1 13 40
M  V30 44 1 16 41
M  V30 45 1 17 42
M  V30 46 1 20 43
M  V30 47 1 21 44
M  V30 48 1 25 45
M  V30 49 1 25 46
M  V30 50 1 25 47
M  V30 51 1 26 48
M  V30 52 1 26 49
M  V30 53 1 26 50
M  V30 END BOND
M  V30 END CTAB
M  END
>  <Dataset>  (170) 
ChEMBL_Kinases

>  <Ligand_Instance>  (170) 
nan

>  <PDB_ID>  (170) 
nan

>  <Standardized_SMILES>  (170) 
Cc1ccc(C(=O)NCC2CC2)cc1-c1ccc2c(c1)NC(=O)C2(C)C

>  <Name>  (170) 
nan

>  <Pocket>  (170) 
nan

>  <ATP_Site>  (170) 
nan

>  <Peripheral>  (170) 
nan

>  <Num_H_Atoms_ProtBoundConf>  (170) 
nan

>  <Num_Resolved_Atoms>  (170) 
nan

>  <Num_Not_Resolved_Atoms>  (170) 
nan

$$$$
CHEMBL4868391
     RDKit          3D

  0  0  0  0  0  0  0  0  0  0999 V3000
M  V30 BEGIN CTAB
M  V30 COUNTS 48 50 0 0 0
M  V30 BEGIN ATOM
M  V30 1 C -0.811324 -4.037230 1.204920 0
M  V30 2 N -0.458564 -5.221109 0.477049 0
M  V30 3 C 0.587814 -5.374527 -0.447963 0
M  V30 4 C 1.412671 -4.335293 -0.750746 0
M  V30 5 C 2.435493 -4.545239 -1.677000 0
M  V30 6 O 3.282574 -3.479077 -1.988325 0
M  V30 7 C 3.102712 -2.222805 -1.377257 0
M  V30 8 C 3.734674 -1.899987 -0.192272 0
M  V30 9 C 3.502123 -0.643293 0.339231 0
M  V30 10 C 2.657466 0.225185 -0.330152 0
M  V30 11 N 2.350217 1.558894 0.142206 0
M  V30 12 C 1.209304 1.611402 1.001549 0
M  V30 13 O 0.649200 0.501901 1.216124 0
M  V30 14 N 0.702044 2.792033 1.594937 0
M  V30 15 C -0.462798 2.693748 2.444564 0
M  V30 16 C -0.397606 2.474935 3.807377 0
M  V30 17 C -1.554210 2.393335 4.550422 0
M  V30 18 C -2.779353 2.536000 3.897050 0
M  V30 19 C -2.836387 2.757037 2.518625 0
M  V30 20 C -4.251125 2.871893 2.077812 0
M  V30 21 C -4.371663 3.110853 0.597537 0
M  V30 22 F -4.922270 3.865734 2.781549 0
M  V30 23 F -4.943664 1.689116 2.347483 0
M  V30 24 C -1.679321 2.833464 1.808016 0
M  V30 25 C 2.028102 -0.108457 -1.518807 0
M  V30 26 C 2.258580 -1.362883 -2.051861 0
M  V30 27 N 2.564801 -5.777725 -2.237345 0
M  V30 28 C 1.723857 -6.785529 -1.909657 0
M  V30 29 N 0.742759 -6.580359 -1.019791 0
M  V30 30 H -0.164658 -3.171955 1.056666 0
M  V30 31 H -1.897125 -3.794715 1.034617 0
M  V30 32 H -0.711671 -4.283877 2.302960 0
M  V30 33 H -1.115792 -5.987190 0.741136 0
M  V30 34 H 1.329643 -3.349387 -0.319455 0
M  V30 35 H 4.385517 -2.603510 0.299388 0
M  V30 36 H 3.955279 -0.314382 1.257490 0
M  V30 37 H 2.839606 2.455219 -0.058688 0
M  V30 38 H 1.191564 3.689852 1.394289 0
M  V30 39 H 0.606541 2.383412 4.183157 0
M  V30 40 H -1.461772 2.221220 5.614229 0
M  V30 41 H -3.624461 2.451906 4.593834 0
M  V30 42 H -5.394498 2.851042 0.259613 0
M  V30 43 H -3.677233 2.416309 0.075257 0
M  V30 44 H -4.112624 4.163806 0.385598 0
M  V30 45 H -1.847298 3.005959 0.756930 0
M  V30 46 H 1.366099 0.563670 -2.049458 0
M  V30 47 H 1.775018 -1.650373 -2.987055 0
M  V30 48 H 1.825783 -7.756233 -2.351055 0
M  V30 END ATOM
M  V30 BEGIN BOND
M  V30 1 1 1 2
M  V30 2 1 2 3
M  V30 3 2 3 4
M  V30 4 1 4 5
M  V30 5 1 5 6
M  V30 6 1 6 7
M  V30 7 2 7 8
M  V30 8 1 8 9
M  V30 9 2 9 10
M  V30 10 1 10 11
M  V30 11 1 11 12
M  V30 12 2 12 13
M  V30 13 1 12 14
M  V30 14 1 14 15
M  V30 15 2 15 16
M  V30 16 1 16 17
M  V30 17 2 17 18
M  V30 18 1 18 19
M  V30 19 1 19 20
M  V30 20 1 20 21
M  V30 21 1 20 22
M  V30 22 1 20 23
M  V30 23 2 19 24
M  V30 24 1 10 25
M  V30 25 2 25 26
M  V30 26 2 5 27
M  V30 27 1 27 28
M  V30 28 2 28 29
M  V30 29 1 29 3
M  V30 30 1 26 7
M  V30 31 1 24 15
M  V30 32 1 1 30
M  V30 33 1 1 31
M  V30 34 1 1 32
M  V30 35 1 2 33
M  V30 36 1 4 34
M  V30 37 1 8 35
M  V30 38 1 9 36
M  V30 39 1 11 37
M  V30 40 1 14 38
M  V30 41 1 16 39
M  V30 42 1 17 40
M  V30 43 1 18 41
M  V30 44 1 21 42
M  V30 45 1 21 43
M  V30 46 1 21 44
M  V30 47 1 24 45
M  V30 48 1 25 46
M  V30 49 1 26 47
M  V30 50 1 28 48
M  V30 END BOND
M  V30 END CTAB
M  END
>  <Dataset>  (171) 
ChEMBL_Kinases

>  <Ligand_Instance>  (171) 
nan

>  <PDB_ID>  (171) 
nan

>  <Standardized_SMILES>  (171) 
CNc1cc(Oc2ccc(NC(=O)Nc3cccc(C(C)(F)F)c3)cc2)ncn1

>  <Name>  (171) 
nan

>  <Pocket>  (171) 
nan

>  <ATP_Site>  (171) 
nan

>  <Peripheral>  (171) 
nan

>  <Num_H_Atoms_ProtBoundConf>  (171) 
nan

>  <Num_Resolved_Atoms>  (171) 
nan

>  <Num_Not_Resolved_Atoms>  (171) 
nan

$$$$
CHEMBL397683
     RDKit          3D

  0  0  0  0  0  0  0  0  0  0999 V3000
M  V30 BEGIN CTAB
M  V30 COUNTS 40 43 0 0 0
M  V30 BEGIN ATOM
M  V30 1 C 5.364499 -3.582153 -0.010699 0
M  V30 2 O 5.131813 -3.856524 1.360687 0
M  V30 3 C 3.968321 -3.416523 1.930834 0
M  V30 4 C 2.960659 -2.702025 1.271218 0
M  V30 5 C 1.798932 -2.273155 1.877547 0
M  V30 6 C 0.829649 -1.539702 1.069097 0
M  V30 7 C 0.760551 -1.884538 -0.264052 0
M  V30 8 C -0.097677 -1.303347 -1.204983 0
M  V30 9 C -0.914352 -0.310709 -0.689261 0
M  V30 10 C -0.883937 0.070549 0.633533 0
M  V30 11 C -0.015640 -0.542025 1.507052 0
M  V30 12 N -1.655649 1.066208 1.296838 0
M  V30 13 C -2.393238 2.108511 0.665180 0
M  V30 14 C -2.756987 3.086635 1.568611 0
M  V30 15 C -3.480989 4.201277 1.190849 0
M  V30 16 C -3.881346 4.390584 -0.134866 0
M  V30 17 C -3.482959 3.376190 -0.976128 0
M  V30 18 C -2.763965 2.245802 -0.662549 0
M  V30 19 N -2.523956 1.402374 -1.783476 0
M  V30 20 C -1.752094 0.195132 -1.796003 0
M  V30 21 O -1.790381 -0.487229 -2.829473 0
M  V30 22 C 1.618947 -2.564768 3.211330 0
M  V30 23 C 2.559079 -3.265977 3.946734 0
M  V30 24 C 3.710828 -3.672254 3.279843 0
M  V30 25 Cl 4.884429 -4.560700 4.242691 0
M  V30 26 H 6.445525 -3.841587 -0.203911 0
M  V30 27 H 4.704373 -4.229168 -0.659464 0
M  V30 28 H 5.255822 -2.512219 -0.271983 0
M  V30 29 H 3.221089 -2.531877 0.216253 0
M  V30 30 H 1.402154 -2.670466 -0.689299 0
M  V30 31 H -0.099914 -1.622662 -2.237747 0
M  V30 32 H 0.049157 -0.284188 2.546508 0
M  V30 33 H -1.668946 1.010609 2.330062 0
M  V30 34 H -2.469522 2.990563 2.623299 0
M  V30 35 H -3.780111 4.991855 1.896924 0
M  V30 36 H -4.443976 5.222466 -0.519325 0
M  V30 37 H -3.769628 3.471248 -2.029893 0
M  V30 38 H -2.957884 1.700029 -2.686850 0
M  V30 39 H 0.708102 -2.234088 3.704511 0
M  V30 40 H 2.412704 -3.490590 4.986186 0
M  V30 END ATOM
M  V30 BEGIN BOND
M  V30 1 1 1 2
M  V30 2 1 2 3
M  V30 3 2 3 4
M  V30 4 1 4 5
M  V30 5 1 5 6
M  V30 6 2 6 7
M  V30 7 1 7 8
M  V30 8 2 8 9
M  V30 9 1 9 10
M  V30 10 2 10 11
M  V30 11 1 10 12
M  V30 12 1 12 13
M  V30 13 2 13 14
M  V30 14 1 14 15
M  V30 15 2 15 16
M  V30 16 1 16 17
M  V30 17 2 17 18
M  V30 18 1 18 19
M  V30 19 1 19 20
M  V30 20 2 20 21
M  V30 21 2 5 22
M  V30 22 1 22 23
M  V30 23 2 23 24
M  V30 24 1 24 25
M  V30 25 1 24 3
M  V30 26 1 11 6
M  V30 27 1 18 13
M  V30 28 1 20 9
M  V30 29 1 1 26
M  V30 30 1 1 27
M  V30 31 1 1 28
M  V30 32 1 4 29
M  V30 33 1 7 30
M  V30 34 1 8 31
M  V30 35 1 11 32
M  V30 36 1 12 33
M  V30 37 1 14 34
M  V30 38 1 15 35
M  V30 39 1 16 36
M  V30 40 1 17 37
M  V30 41 1 19 38
M  V30 42 1 22 39
M  V30 43 1 23 40
M  V30 END BOND
M  V30 END CTAB
M  END
>  <Dataset>  (172) 
ChEMBL_Kinases

>  <Ligand_Instance>  (172) 
nan

>  <PDB_ID>  (172) 
nan

>  <Standardized_SMILES>  (172) 
COc1cc(-c2ccc3c(c2)Nc2ccccc2NC3=O)ccc1Cl

>  <Name>  (172) 
nan

>  <Pocket>  (172) 
nan

>  <ATP_Site>  (172) 
nan

>  <Peripheral>  (172) 
nan

>  <Num_H_Atoms_ProtBoundConf>  (172) 
nan

>  <Num_Resolved_Atoms>  (172) 
nan

>  <Num_Not_Resolved_Atoms>  (172) 
nan

$$$$
CHEMBL4868417
     RDKit          3D

  0  0  0  0  0  0  0  0  0  0999 V3000
M  V30 BEGIN CTAB
M  V30 COUNTS 54 58 0 0 0
M  V30 BEGIN ATOM
M  V30 1 C 2.089146 -6.434226 -0.760347 0
M  V30 2 O 3.087082 -5.633081 -1.410723 0
M  V30 3 C 3.156066 -4.270627 -1.126134 0
M  V30 4 C 2.327528 -3.600755 -0.250607 0
M  V30 5 C 2.476509 -2.226277 -0.030563 0
M  V30 6 C 3.482812 -1.535395 -0.714015 0
M  V30 7 C 3.528635 -0.087494 -0.390871 0 CFG=2
M  V30 8 C 4.055553 0.168785 1.001800 0
M  V30 9 N 2.216466 0.516037 -0.422724 0
M  V30 10 C 1.780963 1.616903 -1.164448 0
M  V30 11 O 2.797607 2.010036 -1.835487 0
M  V30 12 C 0.550438 2.339611 -1.324619 0
M  V30 13 C 0.567551 3.430687 -2.177071 0
M  V30 14 N -0.672715 3.961974 -2.192843 0
M  V30 15 C -1.484388 3.267889 -1.394207 0
M  V30 16 C -2.815577 3.389580 -1.064802 0
M  V30 17 C -3.374108 2.472809 -0.176483 0
M  V30 18 C -2.547305 1.487735 0.323863 0
M  V30 19 C -3.215474 0.573212 1.239366 0
M  V30 20 C -4.539464 0.254367 1.095401 0
M  V30 21 C -5.262861 -0.593283 1.902286 0
M  V30 22 C -4.596838 -1.193506 2.974917 0
M  V30 23 N -5.217303 -2.034169 3.816588 0
M  V30 24 C -4.626324 -2.636986 4.860848 0
M  V30 25 C -3.294660 -2.331825 5.026705 0
M  V30 26 C -2.561046 -1.483796 4.223699 0
M  V30 27 C -3.244911 -0.900240 3.164705 0
M  V30 28 C -2.569209 -0.039471 2.320293 0
M  V30 29 C -1.229103 1.419132 -0.042332 0
M  V30 30 N -0.707089 2.300446 -0.891674 0
M  V30 31 C 4.323446 -2.213693 -1.601965 0
M  V30 32 C 4.141376 -3.568724 -1.789040 0
M  V30 33 H 2.305232 -6.522022 0.335195 0
M  V30 34 H 1.945384 -7.390096 -1.269589 0
M  V30 35 H 1.143501 -5.864536 -0.863717 0
M  V30 36 H 1.567651 -4.207992 0.243846 0
M  V30 37 H 1.760452 -1.857148 0.674667 0
M  V30 38 H 4.172344 0.484006 -1.085274 0
M  V30 39 H 3.253844 0.126399 1.772010 0
M  V30 40 H 4.493168 1.187659 1.032375 0
M  V30 41 H 4.847989 -0.526527 1.317433 0
M  V30 42 H 1.488819 0.090173 0.179646 0
M  V30 43 H 1.247711 3.994558 -2.832763 0
M  V30 44 H -3.358011 4.198184 -1.518661 0
M  V30 45 H -4.424703 2.571151 0.081536 0
M  V30 46 H -5.132507 0.669505 0.295595 0
M  V30 47 H -6.308812 -0.823053 1.760865 0
M  V30 48 H -5.143301 -3.314560 5.530939 0
M  V30 49 H -2.784683 -2.810681 5.873414 0
M  V30 50 H -1.519919 -1.263464 4.377579 0
M  V30 51 H -1.520004 0.179506 2.479071 0
M  V30 52 H -0.664040 0.640315 0.380166 0
M  V30 53 H 5.045946 -1.548318 -2.050164 0
M  V30 54 H 4.852097 -3.962169 -2.494985 0
M  V30 END ATOM
M  V30 BEGIN BOND
M  V30 1 1 1 2
M  V30 2 1 2 3
M  V30 3 2 3 4
M  V30 4 1 4 5
M  V30 5 2 5 6
M  V30 6 1 6 7
M  V30 7 1 7 8
M  V30 8 1 7 9
M  V30 9 1 9 10
M  V30 10 2 10 11
M  V30 11 1 10 12
M  V30 12 2 12 13
M  V30 13 1 13 14
M  V30 14 2 14 15
M  V30 15 1 15 16
M  V30 16 2 16 17
M  V30 17 1 17 18
M  V30 18 1 18 19
M  V30 19 2 19 20
M  V30 20 1 20 21
M  V30 21 2 21 22
M  V30 22 1 22 23
M  V30 23 2 23 24
M  V30 24 1 24 25
M  V30 25 2 25 26
M  V30 26 1 26 27
M  V30 27 2 27 28
M  V30 28 2 18 29
M  V30 29 1 29 30
M  V30 30 1 6 31
M  V30 31 2 31 32
M  V30 32 1 32 3
M  V30 33 1 30 12
M  V30 34 1 30 15
M  V30 35 1 28 19
M  V30 36 1 27 22
M  V30 37 1 1 33
M  V30 38 1 1 34
M  V30 39 1 1 35
M  V30 40 1 4 36
M  V30 41 1 5 37
M  V30 42 1 7 38 CFG=3
M  V30 43 1 8 39
M  V30 44 1 8 40
M  V30 45 1 8 41
M  V30 46 1 9 42
M  V30 47 1 13 43
M  V30 48 1 16 44
M  V30 49 1 17 45
M  V30 50 1 20 46
M  V30 51 1 21 47
M  V30 52 1 24 48
M  V30 53 1 25 49
M  V30 54 1 26 50
M  V30 55 1 28 51
M  V30 56 1 29 52
M  V30 57 1 31 53
M  V30 58 1 32 54
M  V30 END BOND
M  V30 END CTAB
M  END
>  <Dataset>  (173) 
ChEMBL_Kinases

>  <Ligand_Instance>  (173) 
nan

>  <PDB_ID>  (173) 
nan

>  <Standardized_SMILES>  (173) 
COc1ccc([C@H](C)NC(=O)c2cnc3ccc(-c4ccc5ncccc5c4)cn23)cc1

>  <Name>  (173) 
nan

>  <Pocket>  (173) 
nan

>  <ATP_Site>  (173) 
nan

>  <Peripheral>  (173) 
nan

>  <Num_H_Atoms_ProtBoundConf>  (173) 
nan

>  <Num_Resolved_Atoms>  (173) 
nan

>  <Num_Not_Resolved_Atoms>  (173) 
nan

$$$$
CHEMBL4868428
     RDKit          3D

  0  0  0  0  0  0  0  0  0  0999 V3000
M  V30 BEGIN CTAB
M  V30 COUNTS 44 45 0 0 0
M  V30 BEGIN ATOM
M  V30 1 C -0.229214 -4.418230 2.663675 0
M  V30 2 N 0.956098 -4.113229 1.977623 0
M  V30 3 C 1.084190 -2.965075 1.187189 0
M  V30 4 C 2.496871 -3.022208 0.558526 0
M  V30 5 C 0.839945 -1.632837 1.792849 0
M  V30 6 C -0.509015 -1.358267 2.340482 0
M  V30 7 N -1.552626 -1.432795 1.302974 0
M  V30 8 C -1.565759 -0.526785 0.206525 0
M  V30 9 N -0.667619 0.452610 0.046149 0
M  V30 10 C -0.610552 1.339354 -0.930418 0
M  V30 11 N 0.337733 2.380884 -1.087415 0
M  V30 12 C 1.398007 2.767017 -0.229410 0
M  V30 13 C 2.341341 3.720132 -0.555175 0
M  V30 14 C 3.352210 4.071896 0.308818 0
M  V30 15 C 3.487644 3.495915 1.553830 0
M  V30 16 C 4.530136 3.846454 2.467493 0
M  V30 17 N 5.359874 4.131232 3.221603 0
M  V30 18 N 2.576921 2.569765 1.879878 0
M  V30 19 C 1.593693 2.234112 1.027715 0
M  V30 20 N -1.573992 1.219081 -1.849744 0
M  V30 21 C -2.532540 0.293257 -1.818431 0
M  V30 22 C -2.518266 -0.583496 -0.774505 0
M  V30 23 C -3.571247 -1.643101 -0.692770 0
M  V30 24 F -3.019986 -2.910545 -0.710473 0
M  V30 25 F -4.337724 -1.543744 0.433986 0
M  V30 26 F -4.428220 -1.539291 -1.785391 0
M  V30 27 H -0.365270 -5.549668 2.578753 0
M  V30 28 H -0.243463 -4.131775 3.738379 0
M  V30 29 H -1.114373 -4.009113 2.184332 0
M  V30 30 H 1.772495 -4.709127 2.131339 0
M  V30 31 H 0.409897 -3.054941 0.299103 0
M  V30 32 H 2.680668 -4.087442 0.307391 0
M  V30 33 H 3.223858 -2.674140 1.302058 0
M  V30 34 H 2.505185 -2.461314 -0.397659 0
M  V30 35 H 1.602610 -1.401374 2.596666 0
M  V30 36 H 1.072483 -0.845875 1.013581 0
M  V30 37 H -0.788914 -1.890270 3.247940 0
M  V30 38 H -0.539776 -0.261868 2.642367 0
M  V30 39 H -2.317007 -2.144237 1.332536 0
M  V30 40 H 0.279283 2.981410 -1.961358 0
M  V30 41 H 2.286400 4.210658 -1.526006 0
M  V30 42 H 4.061804 4.818139 0.008606 0
M  V30 43 H 0.932726 1.482131 1.426261 0
M  V30 44 H -3.298624 0.225876 -2.582285 0
M  V30 END ATOM
M  V30 BEGIN BOND
M  V30 1 1 1 2
M  V30 2 1 2 3
M  V30 3 1 3 4
M  V30 4 1 3 5
M  V30 5 1 5 6
M  V30 6 1 6 7
M  V30 7 1 7 8
M  V30 8 2 8 9
M  V30 9 1 9 10
M  V30 10 1 10 11
M  V30 11 1 11 12
M  V30 12 2 12 13
M  V30 13 1 13 14
M  V30 14 2 14 15
M  V30 15 1 15 16
M  V30 16 3 16 17
M  V30 17 1 15 18
M  V30 18 2 18 19
M  V30 19 2 10 20
M  V30 20 1 20 21
M  V30 21 2 21 22
M  V30 22 1 22 23
M  V30 23 1 23 24
M  V30 24 1 23 25
M  V30 25 1 23 26
M  V30 26 1 22 8
M  V30 27 1 19 12
M  V30 28 1 1 27
M  V30 29 1 1 28
M  V30 30 1 1 29
M  V30 31 1 2 30
M  V30 32 1 3 31
M  V30 33 1 4 32
M  V30 34 1 4 33
M  V30 35 1 4 34
M  V30 36 1 5 35
M  V30 37 1 5 36
M  V30 38 1 6 37
M  V30 39 1 6 38
M  V30 40 1 7 39
M  V30 41 1 11 40
M  V30 42 1 13 41
M  V30 43 1 14 42
M  V30 44 1 19 43
M  V30 45 1 21 44
M  V30 END BOND
M  V30 END CTAB
M  END
>  <Dataset>  (174) 
ChEMBL_Kinases

>  <Ligand_Instance>  (174) 
nan

>  <PDB_ID>  (174) 
nan

>  <Standardized_SMILES>  (174) 
CNC(C)CCNc1nc(Nc2ccc(C#N)nc2)ncc1C(F)(F)F

>  <Name>  (174) 
nan

>  <Pocket>  (174) 
nan

>  <ATP_Site>  (174) 
nan

>  <Peripheral>  (174) 
nan

>  <Num_H_Atoms_ProtBoundConf>  (174) 
nan

>  <Num_Resolved_Atoms>  (174) 
nan

>  <Num_Not_Resolved_Atoms>  (174) 
nan

$$$$
CHEMBL4868487
     RDKit          3D

  0  0  0  0  0  0  0  0  0  0999 V3000
M  V30 BEGIN CTAB
M  V30 COUNTS 54 57 0 0 0
M  V30 BEGIN ATOM
M  V30 1 C 2.274077 0.130960 -5.042607 0
M  V30 2 O 1.814129 0.422597 -3.751680 0
M  V30 3 C 1.071704 -0.440395 -2.954613 0
M  V30 4 C 0.788037 -1.659803 -3.506938 0
M  V30 5 C 0.058866 -2.596251 -2.809303 0
M  V30 6 C -0.390549 -2.287953 -1.527018 0
M  V30 7 C -0.067344 -1.046381 -1.040372 0
M  V30 8 C 0.653364 -0.080058 -1.690290 0
M  V30 9 N 0.984044 1.201901 -1.184042 0
M  V30 10 C 0.656266 1.772383 0.072243 0
M  V30 11 N 1.050903 3.011804 0.381971 0
M  V30 12 C 0.783344 3.626024 1.541303 0
M  V30 13 C 0.052197 2.916139 2.461245 0
M  V30 14 C -0.319802 3.438804 3.761840 0
M  V30 15 N -0.134765 4.624855 4.471961 0
M  V30 16 O -0.985574 2.791463 4.604564 0
M  V30 17 C -0.385934 1.636582 2.208643 0
M  V30 18 N -1.144584 0.911684 3.162220 0
M  V30 19 C -0.861805 0.051682 4.257648 0
M  V30 20 C 0.448335 -0.199990 4.554566 0
M  V30 21 C 0.637463 -1.050709 5.642102 0
M  V30 22 C -0.437838 -1.577612 6.339280 0
M  V30 23 C -1.742373 -1.275123 5.976775 0
M  V30 24 C -1.978422 -0.428104 4.894789 0
M  V30 25 N -0.051640 1.148967 1.023408 0
M  V30 26 C -1.193791 -3.255531 -0.697937 0
M  V30 27 N -1.434441 -4.479165 -1.362750 0
M  V30 28 C -0.705318 -5.620793 -0.853854 0
M  V30 29 C -1.519297 -4.447894 -2.784255 0
M  V30 30 C -0.248170 -3.921050 -3.413415 0
M  V30 31 H 2.872140 -0.811119 -5.024344 0
M  V30 32 H 3.000085 0.929508 -5.311169 0
M  V30 33 H 1.491434 0.117922 -5.818214 0
M  V30 34 H 1.120248 -1.932997 -4.498912 0
M  V30 35 H -0.433754 -0.851651 -0.051379 0
M  V30 36 H 1.555798 1.823584 -1.831198 0
M  V30 37 H 1.118165 4.628891 1.758491 0
M  V30 38 H 0.236476 5.582139 4.679006 0
M  V30 39 H 0.521387 5.169672 3.857125 0
M  V30 40 H -2.084532 1.203178 2.817373 0
M  V30 41 H 1.291355 0.191717 4.035444 0
M  V30 42 H 1.659801 -1.284009 5.920682 0
M  V30 43 H -0.287983 -2.244001 7.191471 0
M  V30 44 H -2.595497 -1.680076 6.513138 0
M  V30 45 H -2.985662 -0.185178 4.602674 0
M  V30 46 H -0.608339 -3.470766 0.217846 0
M  V30 47 H -2.138549 -2.722522 -0.446020 0
M  V30 48 H 0.295025 -5.246523 -0.501729 0
M  V30 49 H -0.610175 -6.372826 -1.647085 0
M  V30 50 H -1.234736 -5.963094 0.058551 0
M  V30 51 H -2.385156 -3.785409 -3.074751 0
M  V30 52 H -1.710043 -5.486292 -3.126317 0
M  V30 53 H -0.445543 -3.847138 -4.491207 0
M  V30 54 H 0.577931 -4.605498 -3.156259 0
M  V30 END ATOM
M  V30 BEGIN BOND
M  V30 1 1 1 2
M  V30 2 1 2 3
M  V30 3 2 3 4
M  V30 4 1 4 5
M  V30 5 2 5 6
M  V30 6 1 6 7
M  V30 7 2 7 8
M  V30 8 1 8 9
M  V30 9 1 9 10
M  V30 10 2 10 11
M  V30 11 1 11 12
M  V30 12 2 12 13
M  V30 13 1 13 14
M  V30 14 1 14 15
M  V30 15 2 14 16
M  V30 16 1 13 17
M  V30 17 1 17 18
M  V30 18 1 18 19
M  V30 19 2 19 20
M  V30 20 1 20 21
M  V30 21 2 21 22
M  V30 22 1 22 23
M  V30 23 2 23 24
M  V30 24 2 17 25
M  V30 25 1 6 26
M  V30 26 1 26 27
M  V30 27 1 27 28
M  V30 28 1 27 29
M  V30 29 1 29 30
M  V30 30 1 8 3
M  V30 31 1 25 10
M  V30 32 1 30 5
M  V30 33 1 24 19
M  V30 34 1 1 31
M  V30 35 1 1 32
M  V30 36 1 1 33
M  V30 37 1 4 34
M  V30 38 1 7 35
M  V30 39 1 9 36
M  V30 40 1 12 37
M  V30 41 1 15 38
M  V30 42 1 15 39
M  V30 43 1 18 40
M  V30 44 1 20 41
M  V30 45 1 21 42
M  V30 46 1 22 43
M  V30 47 1 23 44
M  V30 48 1 24 45
M  V30 49 1 26 46
M  V30 50 1 26 47
M  V30 51 1 28 48
M  V30 52 1 28 49
M  V30 53 1 28 50
M  V30 54 1 29 51
M  V30 55 1 29 52
M  V30 56 1 30 53
M  V30 57 1 30 54
M  V30 END BOND
M  V30 END CTAB
M  END
>  <Dataset>  (175) 
ChEMBL_Kinases

>  <Ligand_Instance>  (175) 
nan

>  <PDB_ID>  (175) 
nan

>  <Standardized_SMILES>  (175) 
COc1cc2c(cc1Nc1ncc(C(N)=O)c(Nc3ccccc3)n1)CN(C)CC2

>  <Name>  (175) 
nan

>  <Pocket>  (175) 
nan

>  <ATP_Site>  (175) 
nan

>  <Peripheral>  (175) 
nan

>  <Num_H_Atoms_ProtBoundConf>  (175) 
nan

>  <Num_Resolved_Atoms>  (175) 
nan

>  <Num_Not_Resolved_Atoms>  (175) 
nan

$$$$
CHEMBL4868512
     RDKit          3D

  0  0  0  0  0  0  0  0  0  0999 V3000
M  V30 BEGIN CTAB
M  V30 COUNTS 58 63 0 0 0
M  V30 BEGIN ATOM
M  V30 1 C 5.326397 2.024348 3.261058 0
M  V30 2 O 3.963018 2.247224 2.967742 0
M  V30 3 C 3.373966 1.524472 1.938109 0
M  V30 4 N 4.105523 0.616575 1.226497 0
M  V30 5 C 3.546106 -0.105025 0.209869 0
M  V30 6 C 2.217010 0.129704 -0.057320 0
M  V30 7 C 1.434545 1.030966 0.626783 0
M  V30 8 C 2.022276 1.744533 1.646361 0
M  V30 9 N 1.337209 2.699929 2.443021 0
M  V30 10 S -0.407546 2.734960 2.525433 0
M  V30 11 O -0.979806 2.883255 1.152632 0
M  V30 12 O -0.839590 3.798465 3.463109 0
M  V30 13 C -0.924933 1.178648 3.192997 0
M  V30 14 C -0.442243 0.792360 4.426730 0
M  V30 15 C -0.805199 -0.417393 4.982295 0
M  V30 16 C -1.677045 -1.228421 4.245454 0
M  V30 17 C -2.141103 -0.810253 3.015683 0
M  V30 18 C -1.784464 0.377692 2.470259 0
M  V30 19 C -3.050905 -1.669307 2.286925 0
M  V30 20 O -2.177037 -2.471112 1.876997 0
M  V30 21 N -4.189439 -2.261687 1.704471 0
M  V30 22 C -4.161362 -3.476152 0.868193 0
M  V30 23 C -3.723321 -3.211301 -0.509962 0
M  V30 24 C -4.773318 -2.950889 -1.394936 0
M  V30 25 N -4.671176 -2.667273 -2.722209 0
M  V30 26 C -3.408213 -2.631169 -3.253890 0
M  V30 27 C -2.334705 -2.888271 -2.388976 0
M  V30 28 C -2.463286 -3.173440 -1.051496 0
M  V30 29 C -1.118148 -2.781813 -3.138501 0
M  V30 30 N -0.822788 -3.256227 -4.331305 0
M  V30 31 C 0.379198 -3.062658 -4.930202 0
M  V30 32 N 1.360551 -2.370624 -4.349456 0
M  V30 33 C 1.217573 -1.824862 -3.138773 0
M  V30 34 C 2.103911 -1.097011 -2.415111 0
M  V30 35 C 3.469245 -0.738629 -2.861952 0
M  V30 36 C 1.655676 -0.627813 -1.111384 0
M  V30 37 S -0.101819 -1.261634 -0.934490 0
M  V30 38 C -0.024895 -2.049499 -2.568496 0
M  V30 39 H 5.544316 0.999613 3.585807 0
M  V30 40 H 5.603090 2.701797 4.096075 0
M  V30 41 H 5.958397 2.207333 2.359653 0
M  V30 42 H 4.116340 -0.827579 -0.355597 0
M  V30 43 H 0.398150 1.173914 0.374483 0
M  V30 44 H 1.893127 3.392930 2.988110 0
M  V30 45 H 0.232976 1.390282 5.027085 0
M  V30 46 H -0.500282 -0.833500 5.931887 0
M  V30 47 H -2.063142 -2.223250 4.522619 0
M  V30 48 H -2.139915 0.709649 1.516252 0
M  V30 49 H -4.614118 -1.452610 2.201212 0
M  V30 50 H -3.435594 -4.176648 1.339395 0
M  V30 51 H -5.181781 -3.894739 0.909211 0
M  V30 52 H -5.811977 -2.950313 -1.094578 0
M  V30 53 H -3.309262 -2.407344 -4.324099 0
M  V30 54 H -1.504998 -3.343770 -0.587806 0
M  V30 55 H 0.598115 -3.463618 -5.913022 0
M  V30 56 H 3.452268 -0.568133 -3.974329 0
M  V30 57 H 4.242116 -1.470579 -2.636553 0
M  V30 58 H 3.776918 0.248045 -2.450699 0
M  V30 END ATOM
M  V30 BEGIN BOND
M  V30 1 1 1 2
M  V30 2 1 2 3
M  V30 3 2 3 4
M  V30 4 1 4 5
M  V30 5 2 5 6
M  V30 6 1 6 7
M  V30 7 2 7 8
M  V30 8 1 8 9
M  V30 9 1 9 10
M  V30 10 2 10 11
M  V30 11 2 10 12
M  V30 12 1 10 13
M  V30 13 2 13 14
M  V30 14 1 14 15
M  V30 15 2 15 16
M  V30 16 1 16 17
M  V30 17 2 17 18
M  V30 18 1 17 19
M  V30 19 2 19 20
M  V30 20 1 19 21
M  V30 21 1 21 22
M  V30 22 1 22 23
M  V30 23 1 23 24
M  V30 24 2 24 25
M  V30 25 1 25 26
M  V30 26 2 26 27
M  V30 27 1 27 28
M  V30 28 1 27 29
M  V30 29 1 29 30
M  V30 30 2 30 31
M  V30 31 1 31 32
M  V30 32 2 32 33
M  V30 33 1 33 34
M  V30 34 1 34 35
M  V30 35 2 34 36
M  V30 36 1 36 37
M  V30 37 1 37 38
M  V30 38 1 8 3
M  V30 39 1 18 13
M  V30 40 2 28 23
M  V30 41 2 38 29
M  V30 42 1 36 6
M  V30 43 1 38 33
M  V30 44 1 1 39
M  V30 45 1 1 40
M  V30 46 1 1 41
M  V30 47 1 5 42
M  V30 48 1 7 43
M  V30 49 1 9 44
M  V30 50 1 14 45
M  V30 51 1 15 46
M  V30 52 1 16 47
M  V30 53 1 18 48
M  V30 54 1 21 49
M  V30 55 1 22 50
M  V30 56 1 22 51
M  V30 57 1 24 52
M  V30 58 1 26 53
M  V30 59 1 28 54
M  V30 60 1 31 55
M  V30 61 1 35 56
M  V30 62 1 35 57
M  V30 63 1 35 58
M  V30 END BOND
M  V30 END CTAB
M  END
>  <Dataset>  (176) 
ChEMBL_Kinases

>  <Ligand_Instance>  (176) 
nan

>  <PDB_ID>  (176) 
nan

>  <Standardized_SMILES>  (176) 
COc1ncc2cc1NS(=O)(=O)c1cccc(c1)C(=O)NCc1cncc(c1)-c1ncnc3c(C)c-2sc13

>  <Name>  (176) 
nan

>  <Pocket>  (176) 
nan

>  <ATP_Site>  (176) 
nan

>  <Peripheral>  (176) 
nan

>  <Num_H_Atoms_ProtBoundConf>  (176) 
nan

>  <Num_Resolved_Atoms>  (176) 
nan

>  <Num_Not_Resolved_Atoms>  (176) 
nan

$$$$
CHEMBL4868525
     RDKit          3D

  0  0  0  0  0  0  0  0  0  0999 V3000
M  V30 BEGIN CTAB
M  V30 COUNTS 440 440 0 0 0
M  V30 BEGIN ATOM
M  V30 1 C 4.412704 0.414912 -6.649116 0
M  V30 2 C 4.000568 -0.491004 -7.746986 0
M  V30 3 C 3.519554 -1.846862 -7.356215 0 CFG=2
M  V30 4 C 2.338905 -1.700274 -6.420034 0
M  V30 5 C 4.535405 -2.841310 -6.941900 0 CFG=2
M  V30 6 N 3.733908 -4.074608 -6.624878 0
M  V30 7 C 5.291609 -2.448069 -5.741021 0
M  V30 8 O 6.188134 -1.671684 -6.091779 0
M  V30 9 N 5.011121 -2.888257 -4.418882 0
M  V30 10 C 5.493772 -2.670999 -3.115957 0 CFG=1
M  V30 11 C 5.744890 -3.905577 -2.347850 0
M  V30 12 C 6.719738 -4.897648 -2.867572 0
M  V30 13 C 6.408359 -5.565029 -4.151807 0
M  V30 14 C 5.156681 -6.407817 -4.139205 0
M  V30 15 N 5.270497 -7.467567 -3.178046 0
M  V30 16 C 6.407239 -1.531823 -2.898135 0
M  V30 17 O 6.887424 -1.815205 -1.742676 0
M  V30 18 N 7.058160 -0.341310 -3.167722 0
M  V30 19 C 8.010555 0.334551 -2.325001 0 CFG=2
M  V30 20 C 7.432455 1.635061 -1.904567 0
M  V30 21 O 8.053155 2.539065 -1.260409 0
M  V30 22 N 6.084150 2.129947 -2.134794 0
M  V30 23 C 5.635557 3.456474 -1.675514 0 CFG=1
M  V30 24 C 5.124248 4.081860 -2.973492 0
M  V30 25 C 4.605497 5.463538 -2.877862 0
M  V30 26 C 4.129883 5.945693 -4.266950 0
M  V30 27 C 5.244319 5.916917 -5.274219 0
M  V30 28 N 4.752657 6.373680 -6.589150 0
M  V30 29 C 4.597316 3.331756 -0.647672 0
M  V30 30 O 4.227812 2.129369 -0.590097 0
M  V30 31 N 4.106778 4.406071 0.125806 0
M  V30 32 C 3.012045 4.095190 1.059274 0 CFG=1
M  V30 33 C 3.791554 3.648688 2.337653 0
M  V30 34 C 2.859914 3.282451 3.445974 0
M  V30 35 C 3.714940 2.842194 4.631436 0
M  V30 36 C 2.756348 2.448946 5.727658 0
M  V30 37 N 1.917984 1.356548 5.248376 0
M  V30 38 C 2.274430 5.269943 1.439602 0
M  V30 39 O 3.306121 5.947196 1.123460 0
M  V30 40 N 1.043607 5.744101 1.942119 0
M  V30 41 C 0.826177 7.142548 2.204584 0 CFG=2
M  V30 42 C -0.237901 7.396320 3.170007 0
M  V30 43 O -0.328123 8.538217 3.698861 0
M  V30 44 N -1.252557 6.560382 3.646795 0
M  V30 45 C -2.330162 6.679643 4.566871 0 CFG=1
M  V30 46 C -3.703591 6.838152 4.020537 0
M  V30 47 C -4.228432 5.747407 3.158195 0
M  V30 48 C -5.619621 6.188476 2.755264 0
M  V30 49 O -6.154923 7.273324 3.131492 0
M  V30 50 O -6.473068 5.478557 1.939634 0
M  V30 51 C -2.185965 5.640837 5.596156 0
M  V30 52 O -1.043264 5.445573 5.128701 0
M  V30 53 N -2.885035 5.037419 6.654539 0
M  V30 54 C -2.061367 3.996056 7.296081 0 CFG=1
M  V30 55 C -2.534341 3.835952 8.703573 0
M  V30 56 C -1.794342 2.832361 9.484521 0
M  V30 57 O -0.843214 2.020769 9.325877 0
M  V30 58 O -2.004535 2.493151 10.802360 0
M  V30 59 C -2.183167 2.747725 6.487761 0
M  V30 60 O -1.281329 1.875100 6.778953 0
M  V30 61 N -3.129613 2.438975 5.503324 0
M  V30 62 C -3.009469 1.118574 4.842783 0 CFG=1
M  V30 63 C -2.951201 0.040531 5.929031 0
M  V30 64 C -4.062656 0.971770 3.876801 0
M  V30 65 O -4.744023 1.870536 3.373067 0
M  V30 66 N -4.361602 -0.358863 3.454451 0
M  V30 67 C -5.200528 -1.147726 2.602214 0 CFG=1
M  V30 68 C -5.650002 -2.420781 3.255332 0
M  V30 69 O -6.311599 -2.135628 4.462290 0
M  V30 70 C -6.258199 -0.461482 1.854763 0
M  V30 71 O -7.180387 -1.386519 1.678638 0
M  V30 72 N -6.952423 0.534140 1.186974 0
M  V30 73 C -8.308920 0.450341 0.615404 0 CFG=1
M  V30 74 C -8.811872 1.858573 0.658970 0
M  V30 75 C -8.766267 2.288776 2.104745 0
M  V30 76 N -8.137945 2.890212 3.208959 0
M  V30 77 O -9.793237 2.025811 2.829817 0
M  V30 78 C -8.210768 -0.233495 -0.679580 0
M  V30 79 O -6.966243 -0.515038 -0.798768 0
M  V30 80 N -9.129888 -0.624188 -1.729876 0
M  V30 81 C -10.391999 0.019563 -1.303963 0
M  V30 82 C -11.452712 -0.476220 -2.316795 0
M  V30 83 C -10.579054 -0.580805 -3.549076 0
M  V30 84 C -9.396508 -1.369383 -2.902837 0 CFG=1
M  V30 85 C -8.453108 -1.681585 -3.924347 0
M  V30 86 O -9.138147 -2.643786 -4.487806 0
M  V30 87 N -7.327497 -1.694968 -4.746704 0
M  V30 88 C -7.225861 -2.684381 -5.898008 0 CFG=1
M  V30 89 C -8.074255 -2.148573 -6.971612 0
M  V30 90 C -8.331665 -2.950557 -8.196158 0
M  V30 91 C -7.233840 -3.361479 -9.094121 0
M  V30 92 C -9.114140 -4.225533 -7.851283 0
M  V30 93 C -5.812469 -2.907521 -6.078407 0
M  V30 94 O -5.597496 -2.753375 -4.831303 0
M  V30 95 N -4.660837 -3.174052 -6.779694 0
M  V30 96 C -3.329279 -3.332299 -6.300103 0 CFG=1
M  V30 97 C -2.624507 -4.470787 -7.049559 0
M  V30 98 C -3.399227 -5.762284 -6.885014 0
M  V30 99 C -3.556922 -6.228318 -5.485673 0
M  V30 100 C -2.646133 -6.834208 -7.670316 0
M  V30 101 C -2.519529 -2.111615 -6.672444 0
M  V30 102 O -1.365346 -2.149888 -6.135763 0
M  V30 103 N -2.878717 -1.021257 -7.482011 0
M  V30 104 C -2.387480 0.229590 -7.989533 0 CFG=1
M  V30 105 C -2.066749 0.141863 -9.475347 0
M  V30 106 C -0.995679 -0.901286 -9.727114 0
M  V30 107 C 0.286972 -0.551304 -8.969579 0
M  V30 108 C -0.673876 -0.961383 -11.185312 0
M  V30 109 C -3.274028 1.330735 -7.651952 0
M  V30 110 O -2.744879 2.348999 -8.228604 0
M  V30 111 N -4.466741 1.585755 -6.927721 0
M  V30 112 C -4.951997 2.979834 -6.891778 0 CFG=2
M  V30 113 C -5.020287 3.495398 -5.527367 0
M  V30 114 O -5.178919 4.754217 -5.389157 0
M  V30 115 N -4.925456 2.720917 -4.318102 0
M  V30 116 C -4.964895 3.200313 -2.959630 0 CFG=1
M  V30 117 C -6.428428 3.585350 -2.682406 0
M  V30 118 S -7.485540 2.154191 -2.906878 0
M  V30 119 C -4.471840 2.244839 -2.011696 0
M  V30 120 O -4.549645 2.342454 -0.736304 0
M  V30 121 N -3.817233 1.026907 -2.177578 0
M  V30 122 C -3.182576 -0.202991 -1.870418 0 CFG=1
M  V30 123 C -3.683662 -1.344868 -2.674995 0
M  V30 124 C -3.009246 -2.643178 -2.368612 0
M  V30 125 C -3.243051 -3.176158 -0.984823 0
M  V30 126 N -4.651709 -3.517079 -0.780052 0
M  V30 127 C -5.327706 -4.154054 0.281959 0
M  V30 128 N -4.498113 -4.665772 1.098277 0
M  V30 129 N -6.752919 -4.152605 0.241972 0
M  V30 130 C -1.667963 -0.130297 -1.905849 0
M  V30 131 O -0.647020 -0.819567 -2.061544 0
M  V30 132 N -1.237216 1.267585 -1.657232 0
M  V30 133 C 0.245609 1.200075 -1.756337 0 CFG=1
M  V30 134 C 0.826386 2.558446 -1.610405 0
M  V30 135 C 0.391568 3.594144 -2.599702 0
M  V30 136 C 0.678606 3.330366 -4.031115 0
M  V30 137 N 0.168457 4.473856 -4.779046 0
M  V30 138 C 0.241531 4.645447 -6.172116 0
M  V30 139 N 0.700476 3.666994 -6.866206 0
M  V30 140 N -0.209552 5.909748 -6.701991 0
M  V30 141 C 0.720445 0.305177 -0.649844 0
M  V30 142 O -0.175583 0.158985 0.254918 0
M  V30 143 N 1.903357 -0.389540 -0.424864 0
M  V30 144 C 2.340500 -1.279626 0.658113 0 CFG=1
M  V30 145 C 1.755447 -2.679329 0.270994 0
M  V30 146 C 2.092328 -3.722723 1.235508 0
M  V30 147 C 1.575127 -3.546683 2.627682 0
M  V30 148 N 0.117954 -3.528374 2.644161 0
M  V30 149 C -0.636530 -3.374745 3.891367 0
M  V30 150 N 0.244146 -3.378623 4.821187 0
M  V30 151 N -2.049300 -3.294213 3.610254 0
M  V30 152 C 3.801504 -1.370974 0.712062 0
M  V30 153 O 4.439783 -0.945823 -0.257559 0
M  V30 154 N 4.616604 -1.889327 1.722001 0
M  V30 155 C 6.032828 -2.066029 1.818935 0 CFG=1
M  V30 156 C 6.754466 -0.697286 2.050231 0
M  V30 157 C 8.210543 -0.965009 2.291595 0
M  V30 158 C 8.970336 -1.662267 1.229229 0
M  V30 159 C 10.426150 -1.843173 1.728048 0
M  V30 160 N 10.434463 -2.679994 2.895524 0
M  V30 161 C 6.443615 -2.934207 2.916252 0
M  V30 162 O 7.249324 -3.808694 3.232438 0
M  V30 163 N 5.600900 -2.611526 4.056088 0
M  V30 164 C 5.801921 -3.306382 5.319594 0 CFG=1
M  V30 165 C 6.457390 -2.399112 6.340925 0
M  V30 166 C 4.528554 -3.805283 5.888593 0
M  V30 167 O 3.782282 -3.387403 4.994714 0
M  V30 168 N 4.520026 -4.520237 7.135905 0
M  V30 169 C 3.168106 -4.880858 7.479874 0 CFG=1
M  V30 170 C 3.008984 -6.214703 8.108071 0
M  V30 171 C 3.489277 -7.337395 7.198368 0
M  V30 172 C 2.738711 -7.377414 5.888038 0
M  V30 173 N 1.322800 -7.580311 6.053239 0
M  V30 174 C 0.556623 -7.596507 4.819752 0
M  V30 175 N 0.881312 -6.873584 3.757582 0
M  V30 176 N -0.614939 -8.416121 4.681359 0
M  V30 177 C 2.587692 -3.753505 8.317111 0
M  V30 178 O 3.529479 -2.917910 8.353541 0
M  V30 179 N 1.348122 -3.558601 8.939852 0
M  V30 180 C 1.113827 -2.322509 9.646038 0 CFG=1
M  V30 181 C 0.006713 -1.517541 9.036410 0
M  V30 182 C 1.010229 -2.449531 11.103772 0
M  V30 183 O 1.279673 -3.547167 11.693393 0
M  V30 184 N 0.592651 -1.256667 11.762539 0
M  V30 185 C 0.424510 -1.126358 13.207767 0 CFG=1
M  V30 186 C 0.596822 0.271920 13.679590 0
M  V30 187 C 1.949716 0.878812 13.381854 0
M  V30 188 C 3.049773 0.093424 14.033331 0
M  V30 189 C 1.947060 2.274114 14.025955 0
M  V30 190 C -1.029426 -1.473630 13.476960 0
M  V30 191 O -2.054157 -1.818903 12.806808 0
M  V30 192 O -1.337233 -1.391512 14.828221 0
M  V30 193 C -6.310833 2.887238 -7.580368 0 CFG=1
M  V30 194 C -6.140895 2.376307 -8.970140 0
M  V30 195 C -7.213341 1.942355 -6.831841 0
M  V30 196 C -8.533826 1.839359 -7.537457 0
M  V30 197 C 0.342944 7.872231 0.910517 0 CFG=1
M  V30 198 C 0.134712 9.323477 1.235059 0
M  V30 199 C 1.282017 7.663865 -0.231408 0
M  V30 200 C 0.682038 8.433938 -1.417123 0
M  V30 201 C 9.343649 0.531160 -3.004327 0 CFG=1
M  V30 202 C 9.286649 1.381932 -4.225375 0
M  V30 203 C 10.350818 0.994371 -1.994549 0
M  V30 204 C 11.741610 1.204359 -2.600340 0
M  V30 205 H 4.227350 0.052062 -5.632784 0
M  V30 206 H 3.749826 1.344812 -6.700092 0
M  V30 207 H 5.434685 0.796381 -6.728612 0
M  V30 208 H 3.231433 0.021778 -8.395903 0
M  V30 209 H 4.889971 -0.629638 -8.426773 0
M  V30 210 H 3.013118 -2.236663 -8.328856 0
M  V30 211 H 2.012006 -0.634668 -6.446521 0
M  V30 212 H 1.473182 -2.300094 -6.728486 0
M  V30 213 H 2.664805 -1.894888 -5.381590 0
M  V30 214 H 5.180508 -3.139589 -7.759507 0
M  V30 215 H 2.906962 -3.782089 -6.018783 0
M  V30 216 H 3.295171 -4.315224 -7.562830 0
M  V30 217 H 4.206584 -3.556142 -4.472242 0
M  V30 218 H 4.479755 -2.254766 -2.585159 0
M  V30 219 H 6.170887 -3.568662 -1.328611 0
M  V30 220 H 4.766227 -4.369335 -2.036959 0
M  V30 221 H 6.848003 -5.714051 -2.088060 0
M  V30 222 H 7.732860 -4.426169 -2.924594 0
M  V30 223 H 6.476263 -4.944340 -5.050374 0
M  V30 224 H 7.250386 -6.329788 -4.312646 0
M  V30 225 H 5.133004 -6.913800 -5.153724 0
M  V30 226 H 4.224293 -5.857962 -4.077801 0
M  V30 227 H 6.200013 -7.533268 -2.706929 0
M  V30 228 H 4.545996 -7.385728 -2.408657 0
M  V30 229 H 6.609486 -0.148063 -4.097061 0
M  V30 230 H 8.217110 -0.208424 -1.396804 0
M  V30 231 H 5.458343 1.463106 -2.660516 0
M  V30 232 H 6.516353 4.014214 -1.342947 0
M  V30 233 H 5.966667 4.065145 -3.688615 0
M  V30 234 H 4.317860 3.439432 -3.447858 0
M  V30 235 H 3.674724 5.445975 -2.244184 0
M  V30 236 H 5.331416 6.211989 -2.536340 0
M  V30 237 H 3.310194 5.291940 -4.634090 0
M  V30 238 H 3.749989 6.979778 -4.216093 0
M  V30 239 H 6.098455 6.562169 -5.029622 0
M  V30 240 H 5.604178 4.876668 -5.487456 0
M  V30 241 H 3.883029 5.875207 -6.862048 0
M  V30 242 H 5.481539 6.195929 -7.314452 0
M  V30 243 H 4.581259 5.308684 -0.062872 0
M  V30 244 H 2.449689 3.221059 0.764976 0
M  V30 245 H 4.429563 2.823906 2.023707 0
M  V30 246 H 4.437319 4.495460 2.625663 0
M  V30 247 H 2.246262 2.422382 3.140898 0
M  V30 248 H 2.290680 4.149886 3.796649 0
M  V30 249 H 4.431331 2.065647 4.384530 0
M  V30 250 H 4.310347 3.735716 4.942395 0
M  V30 251 H 3.293526 2.144127 6.656979 0
M  V30 252 H 2.069083 3.262658 6.004994 0
M  V30 253 H 2.414120 0.883582 4.460428 0
M  V30 254 H 1.830219 0.654850 6.020207 0
M  V30 255 H 0.473832 4.863078 2.028367 0
M  V30 256 H 1.795628 7.621854 2.383607 0
M  V30 257 H -1.250992 5.580121 3.229469 0
M  V30 258 H -2.150536 7.664938 5.132022 0
M  V30 259 H -3.865845 7.869132 3.622189 0
M  V30 260 H -4.373771 6.861177 4.936289 0
M  V30 261 H -3.713214 5.571270 2.215936 0
M  V30 262 H -4.406225 4.848721 3.765906 0
M  V30 263 H -7.494187 5.541571 2.044624 0
M  V30 264 H -3.802869 5.528831 6.646622 0
M  V30 265 H -1.027907 4.317303 7.247945 0
M  V30 266 H -3.627397 3.562274 8.744966 0
M  V30 267 H -2.476215 4.799539 9.267261 0
M  V30 268 H -2.280121 1.555132 11.125600 0
M  V30 269 H -3.793136 3.248182 5.402759 0
M  V30 270 H -1.991826 1.050412 4.383289 0
M  V30 271 H -3.459241 0.433730 6.813626 0
M  V30 272 H -1.880663 -0.231098 6.149598 0
M  V30 273 H -3.426791 -0.886713 5.616506 0
M  V30 274 H -3.778789 -1.127366 3.852624 0
M  V30 275 H -4.477821 -1.471296 1.743940 0
M  V30 276 H -6.419399 -2.927578 2.650484 0
M  V30 277 H -4.831124 -3.128724 3.402133 0
M  V30 278 H -6.050402 -2.745514 5.172926 0
M  V30 279 H -6.164796 1.260426 1.263040 0
M  V30 280 H -8.927007 -0.206512 1.313124 0
M  V30 281 H -9.885406 1.966025 0.419738 0
M  V30 282 H -8.212059 2.504775 0.036614 0
M  V30 283 H -7.427326 2.389175 3.797270 0
M  V30 284 H -8.286304 3.845805 3.544740 0
M  V30 285 H -10.728981 -0.269289 -0.328199 0
M  V30 286 H -10.350201 1.104098 -1.553733 0
M  V30 287 H -12.257028 0.261216 -2.416315 0
M  V30 288 H -11.817193 -1.478741 -2.071194 0
M  V30 289 H -10.999482 -1.179287 -4.357491 0
M  V30 290 H -10.256869 0.403307 -3.907052 0
M  V30 291 H -9.949308 -2.298671 -2.491243 0
M  V30 292 H -6.822881 -0.889875 -4.229791 0
M  V30 293 H -7.726634 -3.637256 -5.573015 0
M  V30 294 H -9.105646 -1.921252 -6.560622 0
M  V30 295 H -7.754867 -1.079870 -7.266922 0
M  V30 296 H -9.073902 -2.398968 -8.868574 0
M  V30 297 H -7.632972 -3.729040 -10.087445 0
M  V30 298 H -6.556109 -2.536624 -9.334930 0
M  V30 299 H -6.687207 -4.267091 -8.709194 0
M  V30 300 H -9.094440 -4.853189 -8.764991 0
M  V30 301 H -10.196041 -3.972811 -7.691002 0
M  V30 302 H -8.657189 -4.819608 -7.065191 0
M  V30 303 H -4.939677 -3.209563 -7.717157 0
M  V30 304 H -3.211344 -3.473685 -5.243966 0
M  V30 305 H -2.510661 -4.252897 -8.103408 0
M  V30 306 H -1.640980 -4.598447 -6.562683 0
M  V30 307 H -4.373075 -5.663965 -7.432647 0
M  V30 308 H -2.989606 -7.161692 -5.248557 0
M  V30 309 H -3.225631 -5.499122 -4.721197 0
M  V30 310 H -4.639537 -6.508812 -5.348136 0
M  V30 311 H -2.244434 -6.411945 -8.604593 0
M  V30 312 H -3.311241 -7.730957 -7.811740 0
M  V30 313 H -1.771553 -7.242394 -7.100984 0
M  V30 314 H -3.814687 -1.103935 -7.896321 0
M  V30 315 H -1.384822 0.466003 -7.485141 0
M  V30 316 H -1.664985 1.094923 -9.816727 0
M  V30 317 H -2.955744 -0.179889 -10.037996 0
M  V30 318 H -1.357628 -1.914361 -9.436745 0
M  V30 319 H 0.573971 0.501262 -9.138725 0
M  V30 320 H 0.132206 -0.695640 -7.892940 0
M  V30 321 H 1.126175 -1.181154 -9.362390 0
M  V30 322 H 0.326476 -0.513697 -11.340462 0
M  V30 323 H -1.381242 -0.369957 -11.828068 0
M  V30 324 H -0.666485 -2.023286 -11.582710 0
M  V30 325 H -4.765495 0.666303 -6.541432 0
M  V30 326 H -4.314111 3.612231 -7.507861 0
M  V30 327 H -4.833600 1.712567 -4.615109 0
M  V30 328 H -4.432788 4.207531 -2.891257 0
M  V30 329 H -6.720538 4.401905 -3.388347 0
M  V30 330 H -6.552925 3.958417 -1.632982 0
M  V30 331 H -8.852073 2.527813 -2.866292 0
M  V30 332 H -3.648694 0.930680 -3.242376 0
M  V30 333 H -3.375139 -0.445617 -0.773882 0
M  V30 334 H -3.637529 -1.060234 -3.732870 0
M  V30 335 H -4.781336 -1.455783 -2.448970 0
M  V30 336 H -3.387124 -3.442918 -3.042663 0
M  V30 337 H -1.906507 -2.647314 -2.556291 0
M  V30 338 H -3.017622 -2.403530 -0.257436 0
M  V30 339 H -2.638641 -4.094037 -0.856705 0
M  V30 340 H -5.245418 -3.214544 -1.613881 0
M  V30 341 H -4.742169 -5.184039 1.950525 0
M  V30 342 H -7.294180 -3.980327 -0.622752 0
M  V30 343 H -7.429957 -4.316115 0.999461 0
M  V30 344 H -1.854324 2.064914 -1.458203 0
M  V30 345 H 0.508447 0.691865 -2.684650 0
M  V30 346 H 1.928070 2.453156 -1.734764 0
M  V30 347 H 0.548895 2.950869 -0.607508 0
M  V30 348 H -0.694116 3.803262 -2.519691 0
M  V30 349 H 0.899790 4.549236 -2.265677 0
M  V30 350 H 1.744443 3.146611 -4.232606 0
M  V30 351 H 0.049768 2.437176 -4.322345 0
M  V30 352 H -0.307860 5.267771 -4.249410 0
M  V30 353 H 0.762782 3.770449 -7.890675 0
M  V30 354 H -0.133564 6.856455 -7.107540 0
M  V30 355 H -1.150583 6.354407 -6.868973 0
M  V30 356 H 2.592530 -0.191519 -1.227423 0
M  V30 357 H 1.846763 -1.031931 1.569637 0
M  V30 358 H 0.645475 -2.495921 0.203359 0
M  V30 359 H 2.045361 -2.954390 -0.755897 0
M  V30 360 H 1.697835 -4.743301 0.887842 0
M  V30 361 H 3.200324 -3.915007 1.223267 0
M  V30 362 H 1.969858 -4.392560 3.240917 0
M  V30 363 H 1.931228 -2.598299 3.072771 0
M  V30 364 H -0.367731 -3.629489 1.705237 0
M  V30 365 H 0.013517 -3.299314 5.798167 0
M  V30 366 H -2.264700 -3.923659 4.422690 0
M  V30 367 H -2.146155 -3.942223 4.462703 0
M  V30 368 H 4.086241 -2.186565 2.554659 0
M  V30 369 H 6.463131 -2.431946 0.846715 0
M  V30 370 H 6.655559 -0.163293 1.095921 0
M  V30 371 H 6.329867 -0.178067 2.909091 0
M  V30 372 H 8.685545 0.025625 2.460079 0
M  V30 373 H 8.277452 -1.575588 3.236382 0
M  V30 374 H 8.611967 -2.730961 1.122607 0
M  V30 375 H 9.067580 -1.181930 0.271272 0
M  V30 376 H 10.827531 -0.840640 1.974342 0
M  V30 377 H 11.019741 -2.313148 0.929298 0
M  V30 378 H 10.122071 -2.254109 3.772940 0
M  V30 379 H 9.904800 -3.571418 2.681363 0
M  V30 380 H 4.830006 -1.951069 4.322476 0
M  V30 381 H 6.481460 -4.147007 5.158662 0
M  V30 382 H 7.134613 -1.681836 5.854617 0
M  V30 383 H 7.047199 -3.028104 7.023511 0
M  V30 384 H 5.694860 -1.909061 7.003937 0
M  V30 385 H 5.425312 -4.672122 7.583204 0
M  V30 386 H 2.529192 -4.848325 6.542786 0
M  V30 387 H 3.642228 -6.212137 9.025999 0
M  V30 388 H 1.983891 -6.436900 8.401725 0
M  V30 389 H 4.566019 -7.290401 6.970198 0
M  V30 390 H 3.295600 -8.292263 7.713958 0
M  V30 391 H 2.882756 -6.480532 5.278426 0
M  V30 392 H 3.145928 -8.250895 5.323217 0
M  V30 393 H 0.682615 -7.732419 6.839179 0
M  V30 394 H 0.257205 -6.958259 2.899872 0
M  V30 395 H -1.019771 -9.358272 4.522519 0
M  V30 396 H -1.671760 -8.416496 4.688026 0
M  V30 397 H 0.741214 -4.401674 8.782456 0
M  V30 398 H 2.054948 -1.691350 9.459954 0
M  V30 399 H 0.287815 -0.443250 8.909906 0
M  V30 400 H -0.948320 -1.585900 9.579688 0
M  V30 401 H -0.221505 -1.881839 7.989834 0
M  V30 402 H 0.349803 -0.355661 11.255014 0
M  V30 403 H 1.003097 -1.845134 13.762174 0
M  V30 404 H 0.486774 0.269983 14.799089 0
M  V30 405 H -0.220972 0.929084 13.258655 0
M  V30 406 H 2.102496 0.925109 12.294305 0
M  V30 407 H 2.579863 -0.656114 14.714786 0
M  V30 408 H 3.723462 0.711567 14.641476 0
M  V30 409 H 3.652191 -0.413819 13.252718 0
M  V30 410 H 2.960744 2.682369 14.133136 0
M  V30 411 H 1.295266 2.947765 13.400201 0
M  V30 412 H 1.471683 2.182284 15.028984 0
M  V30 413 H -2.102007 -1.888388 15.268757 0
M  V30 414 H -6.767325 3.887362 -7.562241 0
M  V30 415 H -5.199234 2.688131 -9.461984 0
M  V30 416 H -6.948753 2.741610 -9.633181 0
M  V30 417 H -6.161264 1.279331 -9.012445 0
M  V30 418 H -6.777591 0.933452 -6.723600 0
M  V30 419 H -7.435249 2.357248 -5.814001 0
M  V30 420 H -8.429670 1.826279 -8.670584 0
M  V30 421 H -9.195345 2.719216 -7.348645 0
M  V30 422 H -9.070808 0.922183 -7.263850 0
M  V30 423 H -0.619638 7.383734 0.670947 0
M  V30 424 H -0.903319 9.419258 1.659629 0
M  V30 425 H 0.837527 9.615519 2.008320 0
M  V30 426 H 0.128491 9.996036 0.352415 0
M  V30 427 H 2.273407 8.132499 -0.079464 0
M  V30 428 H 1.279249 6.622441 -0.526788 0
M  V30 429 H 1.054784 9.486752 -1.407237 0
M  V30 430 H 0.953791 7.932071 -2.370282 0
M  V30 431 H -0.404229 8.476861 -1.276209 0
M  V30 432 H 9.705926 -0.497785 -3.323924 0
M  V30 433 H 8.235937 1.558600 -4.517644 0
M  V30 434 H 9.820306 2.346383 -4.063772 0
M  V30 435 H 9.786959 0.866166 -5.066275 0
M  V30 436 H 10.106901 1.908242 -1.467619 0
M  V30 437 H 10.473661 0.205878 -1.196931 0
M  V30 438 H 11.824937 2.222543 -3.005697 0
M  V30 439 H 12.460944 1.161603 -1.735782 0
M  V30 440 H 11.962064 0.397310 -3.312822 0
M  V30 END ATOM
M  V30 BEGIN BOND
M  V30 1 1 1 2
M  V30 2 1 2 3
M  V30 3 1 3 4
M  V30 4 1 3 5
M  V30 5 1 5 6
M  V30 6 1 5 7
M  V30 7 2 7 8
M  V30 8 1 7 9
M  V30 9 1 9 10
M  V30 10 1 10 11
M  V30 11 1 11 12
M  V30 12 1 12 13
M  V30 13 1 13 14
M  V30 14 1 14 15
M  V30 15 1 10 16
M  V30 16 2 16 17
M  V30 17 1 16 18
M  V30 18 1 18 19
M  V30 19 1 19 20
M  V30 20 2 20 21
M  V30 21 1 20 22
M  V30 22 1 22 23
M  V30 23 1 23 24
M  V30 24 1 24 25
M  V30 25 1 25 26
M  V30 26 1 26 27
M  V30 27 1 27 28
M  V30 28 1 23 29
M  V30 29 2 29 30
M  V30 30 1 29 31
M  V30 31 1 31 32
M  V30 32 1 32 33
M  V30 33 1 33 34
M  V30 34 1 34 35
M  V30 35 1 35 36
M  V30 36 1 36 37
M  V30 37 1 32 38
M  V30 38 2 38 39
M  V30 39 1 38 40
M  V30 40 1 40 41
M  V30 41 1 41 42
M  V30 42 2 42 43
M  V30 43 1 42 44
M  V30 44 1 44 45
M  V30 45 1 45 46
M  V30 46 1 46 47
M  V30 47 1 47 48
M  V30 48 2 48 49
M  V30 49 1 48 50
M  V30 50 1 45 51
M  V30 51 2 51 52
M  V30 52 1 51 53
M  V30 53 1 53 54
M  V30 54 1 54 55
M  V30 55 1 55 56
M  V30 56 2 56 57
M  V30 57 1 56 58
M  V30 58 1 54 59
M  V30 59 2 59 60
M  V30 60 1 59 61
M  V30 61 1 61 62
M  V30 62 1 62 63
M  V30 63 1 62 64
M  V30 64 2 64 65
M  V30 65 1 64 66
M  V30 66 1 66 67
M  V30 67 1 67 68
M  V30 68 1 68 69
M  V30 69 1 67 70
M  V30 70 2 70 71
M  V30 71 1 70 72
M  V30 72 1 72 73
M  V30 73 1 73 74
M  V30 74 1 74 75
M  V30 75 1 75 76
M  V30 76 2 75 77
M  V30 77 1 73 78
M  V30 78 2 78 79
M  V30 79 1 78 80
M  V30 80 1 80 81
M  V30 81 1 81 82
M  V30 82 1 82 83
M  V30 83 1 83 84
M  V30 84 1 84 85
M  V30 85 2 85 86
M  V30 86 1 85 87
M  V30 87 1 87 88
M  V30 88 1 88 89
M  V30 89 1 89 90
M  V30 90 1 90 91
M  V30 91 1 90 92
M  V30 92 1 88 93
M  V30 93 2 93 94
M  V30 94 1 93 95
M  V30 95 1 95 96
M  V30 96 1 96 97
M  V30 97 1 97 98
M  V30 98 1 98 99
M  V30 99 1 98 100
M  V30 100 1 96 101
M  V30 101 2 101 102
M  V30 102 1 101 103
M  V30 103 1 103 104
M  V30 104 1 104 105
M  V30 105 1 105 106
M  V30 106 1 106 107
M  V30 107 1 106 108
M  V30 108 1 104 109
M  V30 109 2 109 110
M  V30 110 1 109 111
M  V30 111 1 111 112
M  V30 112 1 112 113
M  V30 113 2 113 114
M  V30 114 1 113 115
M  V30 115 1 115 116
M  V30 116 1 116 117
M  V30 117 1 117 118
M  V30 118 1 116 119
M  V30 119 2 119 120
M  V30 120 1 119 121
M  V30 121 1 121 122
M  V30 122 1 122 123
M  V30 123 1 123 124
M  V30 124 1 124 125
M  V30 125 1 125 126
M  V30 126 1 126 127
M  V30 127 2 127 128 CFG=2
M  V30 128 1 127 129
M  V30 129 1 122 130
M  V30 130 2 130 131
M  V30 131 1 130 132
M  V30 132 1 132 133
M  V30 133 1 133 134
M  V30 134 1 134 135
M  V30 135 1 135 136
M  V30 136 1 136 137
M  V30 137 1 137 138
M  V30 138 2 138 139 CFG=2
M  V30 139 1 138 140
M  V30 140 1 133 141
M  V30 141 2 141 142
M  V30 142 1 141 143
M  V30 143 1 143 144
M  V30 144 1 144 145
M  V30 145 1 145 146
M  V30 146 1 146 147
M  V30 147 1 147 148
M  V30 148 1 148 149
M  V30 149 2 149 150 CFG=2
M  V30 150 1 149 151
M  V30 151 1 144 152
M  V30 152 2 152 153
M  V30 153 1 152 154
M  V30 154 1 154 155
M  V30 155 1 155 156
M  V30 156 1 156 157
M  V30 157 1 157 158
M  V30 158 1 158 159
M  V30 159 1 159 160
M  V30 160 1 155 161
M  V30 161 2 161 162
M  V30 162 1 161 163
M  V30 163 1 163 164
M  V30 164 1 164 165
M  V30 165 1 164 166
M  V30 166 2 166 167
M  V30 167 1 166 168
M  V30 168 1 168 169
M  V30 169 1 169 170
M  V30 170 1 170 171
M  V30 171 1 171 172
M  V30 172 1 172 173
M  V30 173 1 173 174
M  V30 174 2 174 175 CFG=2
M  V30 175 1 174 176
M  V30 176 1 169 177
M  V30 177 2 177 178
M  V30 178 1 177 179
M  V30 179 1 179 180
M  V30 180 1 180 181
M  V30 181 1 180 182
M  V30 182 2 182 183
M  V30 183 1 182 184
M  V30 184 1 184 185
M  V30 185 1 185 186
M  V30 186 1 186 187
M  V30 187 1 187 188
M  V30 188 1 187 189
M  V30 189 1 185 190
M  V30 190 2 190 191
M  V30 191 1 190 192
M  V30 192 1 112 193
M  V30 193 1 193 194
M  V30 194 1 193 195
M  V30 195 1 195 196
M  V30 196 1 41 197
M  V30 197 1 197 198
M  V30 198 1 197 199
M  V30 199 1 199 200
M  V30 200 1 19 201
M  V30 201 1 201 202
M  V30 202 1 201 203
M  V30 203 1 203 204
M  V30 204 1 84 80
M  V30 205 1 1 205
M  V30 206 1 1 206
M  V30 207 1 1 207
M  V30 208 1 2 208
M  V30 209 1 2 209
M  V30 210 1 3 210 CFG=3
M  V30 211 1 4 211
M  V30 212 1 4 212
M  V30 213 1 4 213
M  V30 214 1 5 214 CFG=3
M  V30 215 1 6 215
M  V30 216 1 6 216
M  V30 217 1 9 217
M  V30 218 1 10 218 CFG=1
M  V30 219 1 11 219
M  V30 220 1 11 220
M  V30 221 1 12 221
M  V30 222 1 12 222
M  V30 223 1 13 223
M  V30 224 1 13 224
M  V30 225 1 14 225
M  V30 226 1 14 226
M  V30 227 1 15 227
M  V30 228 1 15 228
M  V30 229 1 18 229
M  V30 230 1 19 230 CFG=1
M  V30 231 1 22 231
M  V30 232 1 23 232 CFG=1
M  V30 233 1 24 233
M  V30 234 1 24 234
M  V30 235 1 25 235
M  V30 236 1 25 236
M  V30 237 1 26 237
M  V30 238 1 26 238
M  V30 239 1 27 239
M  V30 240 1 27 240
M  V30 241 1 28 241
M  V30 242 1 28 242
M  V30 243 1 31 243
M  V30 244 1 32 244 CFG=3
M  V30 245 1 33 245
M  V30 246 1 33 246
M  V30 247 1 34 247
M  V30 248 1 34 248
M  V30 249 1 35 249
M  V30 250 1 35 250
M  V30 251 1 36 251
M  V30 252 1 36 252
M  V30 253 1 37 253
M  V30 254 1 37 254
M  V30 255 1 40 255
M  V30 256 1 41 256 CFG=1
M  V30 257 1 44 257
M  V30 258 1 45 258 CFG=1
M  V30 259 1 46 259
M  V30 260 1 46 260
M  V30 261 1 47 261
M  V30 262 1 47 262
M  V30 263 1 50 263
M  V30 264 1 53 264
M  V30 265 1 54 265 CFG=1
M  V30 266 1 55 266
M  V30 267 1 55 267
M  V30 268 1 58 268
M  V30 269 1 61 269
M  V30 270 1 62 270 CFG=3
M  V30 271 1 63 271
M  V30 272 1 63 272
M  V30 273 1 63 273
M  V30 274 1 66 274
M  V30 275 1 67 275 CFG=3
M  V30 276 1 68 276
M  V30 277 1 68 277
M  V30 278 1 69 278
M  V30 279 1 72 279
M  V30 280 1 73 280 CFG=1
M  V30 281 1 74 281
M  V30 282 1 74 282
M  V30 283 1 76 283
M  V30 284 1 76 284
M  V30 285 1 81 285
M  V30 286 1 81 286
M  V30 287 1 82 287
M  V30 288 1 82 288
M  V30 289 1 83 289
M  V30 290 1 83 290
M  V30 291 1 84 291 CFG=1
M  V30 292 1 87 292
M  V30 293 1 88 293 CFG=1
M  V30 294 1 89 294
M  V30 295 1 89 295
M  V30 296 1 90 296
M  V30 297 1 91 297
M  V30 298 1 91 298
M  V30 299 1 91 299
M  V30 300 1 92 300
M  V30 301 1 92 301
M  V30 302 1 92 302
M  V30 303 1 95 303
M  V30 304 1 96 304 CFG=1
M  V30 305 1 97 305
M  V30 306 1 97 306
M  V30 307 1 98 307
M  V30 308 1 99 308
M  V30 309 1 99 309
M  V30 310 1 99 310
M  V30 311 1 100 311
M  V30 312 1 100 312
M  V30 313 1 100 313
M  V30 314 1 103 314
M  V30 315 1 104 315 CFG=1
M  V30 316 1 105 316
M  V30 317 1 105 317
M  V30 318 1 106 318
M  V30 319 1 107 319
M  V30 320 1 107 320
M  V30 321 1 107 321
M  V30 322 1 108 322
M  V30 323 1 108 323
M  V30 324 1 108 324
M  V30 325 1 111 325
M  V30 326 1 112 326 CFG=3
M  V30 327 1 115 327
M  V30 328 1 116 328 CFG=3
M  V30 329 1 117 329
M  V30 330 1 117 330
M  V30 331 1 118 331
M  V30 332 1 121 332
M  V30 333 1 122 333 CFG=1
M  V30 334 1 123 334
M  V30 335 1 123 335
M  V30 336 1 124 336
M  V30 337 1 124 337
M  V30 338 1 125 338
M  V30 339 1 125 339
M  V30 340 1 126 340
M  V30 341 1 128 341
M  V30 342 1 129 342
M  V30 343 1 129 343
M  V30 344 1 132 344
M  V30 345 1 133 345 CFG=3
M  V30 346 1 134 346
M  V30 347 1 134 347
M  V30 348 1 135 348
M  V30 349 1 135 349
M  V30 350 1 136 350
M  V30 351 1 136 351
M  V30 352 1 137 352
M  V30 353 1 139 353
M  V30 354 1 140 354
M  V30 355 1 140 355
M  V30 356 1 143 356
M  V30 357 1 144 357 CFG=1
M  V30 358 1 145 358
M  V30 359 1 145 359
M  V30 360 1 146 360
M  V30 361 1 146 361
M  V30 362 1 147 362
M  V30 363 1 147 363
M  V30 364 1 148 364
M  V30 365 1 150 365
M  V30 366 1 151 366
M  V30 367 1 151 367
M  V30 368 1 154 368
M  V30 369 1 155 369 CFG=3
M  V30 370 1 156 370
M  V30 371 1 156 371
M  V30 372 1 157 372
M  V30 373 1 157 373
M  V30 374 1 158 374
M  V30 375 1 158 375
M  V30 376 1 159 376
M  V30 377 1 159 377
M  V30 378 1 160 378
M  V30 379 1 160 379
M  V30 380 1 163 380
M  V30 381 1 164 381 CFG=3
M  V30 382 1 165 382
M  V30 383 1 165 383
M  V30 384 1 165 384
M  V30 385 1 168 385
M  V30 386 1 169 386 CFG=3
M  V30 387 1 170 387
M  V30 388 1 170 388
M  V30 389 1 171 389
M  V30 390 1 171 390
M  V30 391 1 172 391
M  V30 392 1 172 392
M  V30 393 1 173 393
M  V30 394 1 175 394
M  V30 395 1 176 395
M  V30 396 1 176 396
M  V30 397 1 179 397
M  V30 398 1 180 398 CFG=1
M  V30 399 1 181 399
M  V30 400 1 181 400
M  V30 401 1 181 401
M  V30 402 1 184 402
M  V30 403 1 185 403 CFG=1
M  V30 404 1 186 404
M  V30 405 1 186 405
M  V30 406 1 187 406
M  V30 407 1 188 407
M  V30 408 1 188 408
M  V30 409 1 188 409
M  V30 410 1 189 410
M  V30 411 1 189 411
M  V30 412 1 189 412
M  V30 413 1 192 413
M  V30 414 1 193 414 CFG=3
M  V30 415 1 194 415
M  V30 416 1 194 416
M  V30 417 1 194 417
M  V30 418 1 195 418
M  V30 419 1 195 419
M  V30 420 1 196 420
M  V30 421 1 196 421
M  V30 422 1 196 422
M  V30 423 1 197 423 CFG=3
M  V30 424 1 198 424
M  V30 425 1 198 425
M  V30 426 1 198 426
M  V30 427 1 199 427
M  V30 428 1 199 428
M  V30 429 1 200 429
M  V30 430 1 200 430
M  V30 431 1 200 431
M  V30 432 1 201 432 CFG=3
M  V30 433 1 202 433
M  V30 434 1 202 434
M  V30 435 1 202 435
M  V30 436 1 203 436
M  V30 437 1 203 437
M  V30 438 1 204 438
M  V30 439 1 204 439
M  V30 440 1 204 440
M  V30 END BOND
M  V30 END CTAB
M  END
>  <Dataset>  (177) 
ChEMBL_Kinases

>  <Ligand_Instance>  (177) 
nan

>  <PDB_ID>  (177) 
nan

>  <Standardized_SMILES>  (177) 
CC[C@H](C)[C@H](N)C(=O)N[C@@H](CCCCN)C(=O)N[C@H](C(=O)N[C@@H](CCCCN)C(=O)N[C@@H](CCCCN)C(=O)N[C@H](C(=O)N[C@@H](CCC(=O)O)C(=O)N[C@@H](CC(=O)O)C(=O)N[C@@H](C)C(=O)N[C@@H](CO)C(=O)N[C@@H](CC(N)=O)C(=O)N1CCC[C@H]1C(=O)N[C@@H](CC(C)C)C(=O)N[C@@H](CC(C)C)C(=O)N[C@@H](CC(C)C)C(=O)N[C@H](C(=O)N[C@@H](CS)C(=O)N[C@@H](CCCNC(=N)N)C(=O)N[C@@H](CCCNC(=N)N)C(=O)N[C@@H](CCCNC(=N)N)C(=O)N[C@@H](CCCCN)C(=O)N[C@@H](C)C(=O)N[C@@H](CCCNC(=N)N)C(=O)N[C@@H](C)C(=O)N[C@@H](CC(C)C)C(=O)O)[C@@H](C)CC)[C@@H](C)CC)[C@@H](C)CC

>  <Name>  (177) 
nan

>  <Pocket>  (177) 
nan

>  <ATP_Site>  (177) 
nan

>  <Peripheral>  (177) 
nan

>  <Num_H_Atoms_ProtBoundConf>  (177) 
nan

>  <Num_Resolved_Atoms>  (177) 
nan

>  <Num_Not_Resolved_Atoms>  (177) 
nan

$$$$
CHEMBL4868527
     RDKit          3D

  0  0  0  0  0  0  0  0  0  0999 V3000
M  V30 BEGIN CTAB
M  V30 COUNTS 50 53 0 0 0
M  V30 BEGIN ATOM
M  V30 1 C -4.040403 -1.466132 -0.419441 0
M  V30 2 O -2.728139 -1.018594 -0.069850 0
M  V30 3 C -1.608874 -1.650543 -0.593883 0
M  V30 4 C -1.774506 -2.711175 -1.452516 0
M  V30 5 C -0.702494 -3.378303 -2.004641 0
M  V30 6 C 0.555698 -2.937138 -1.659669 0
M  V30 7 C 0.684290 -1.885572 -0.808038 0
M  V30 8 C -0.343373 -1.179143 -0.224476 0
M  V30 9 N -0.187013 -0.087577 0.659623 0
M  V30 10 C 1.013503 0.495424 1.118938 0
M  V30 11 N 2.257455 0.147549 0.820689 0
M  V30 12 C 3.379551 0.711281 1.265348 0
M  V30 13 C 3.201619 1.762139 2.122237 0
M  V30 14 C 1.958287 2.200940 2.494448 0
M  V30 15 N 1.827448 3.295429 3.386226 0
M  V30 16 C 0.656618 3.910182 3.901694 0
M  V30 17 C 0.721554 4.990481 4.778153 0
M  V30 18 C -0.404231 5.592639 5.282914 0
M  V30 19 C -1.662345 5.148735 4.939951 0
M  V30 20 C -1.783130 4.083810 4.076713 0
M  V30 21 C -0.622451 3.518409 3.601326 0
M  V30 22 N 0.950671 1.522299 1.954888 0
M  V30 23 C 1.689824 -3.674867 -2.269503 0
M  V30 24 N 1.435122 -5.076276 -2.272097 0
M  V30 25 C 1.867928 -5.770832 -1.104398 0
M  V30 26 C 0.216200 -5.509130 -2.856116 0
M  V30 27 C -0.887397 -4.512363 -2.923217 0
M  V30 28 H -4.143168 -2.564134 -0.218815 0
M  V30 29 H -4.782892 -0.971222 0.236038 0
M  V30 30 H -4.249374 -1.309196 -1.494053 0
M  V30 31 H -2.800625 -3.017889 -1.690801 0
M  V30 32 H 1.705909 -1.613846 -0.598020 0
M  V30 33 H -1.103759 0.325405 1.005428 0
M  V30 34 H 4.362904 0.370870 0.976396 0
M  V30 35 H 4.093898 2.261870 2.517651 0
M  V30 36 H 2.726445 3.731811 3.729240 0
M  V30 37 H 1.711589 5.369872 5.072384 0
M  V30 38 H -0.256782 6.425581 5.957398 0
M  V30 39 H -2.509658 5.662427 5.369013 0
M  V30 40 H -2.773765 3.741418 3.812319 0
M  V30 41 H -0.805076 2.693287 2.933623 0
M  V30 42 H 2.606844 -3.520734 -1.641700 0
M  V30 43 H 1.943481 -3.315504 -3.283423 0
M  V30 44 H 1.319017 -5.527511 -0.174515 0
M  V30 45 H 2.971201 -5.627151 -1.014881 0
M  V30 46 H 1.709831 -6.855928 -1.282885 0
M  V30 47 H -0.161232 -6.363206 -2.222467 0
M  V30 48 H 0.443916 -5.977888 -3.836578 0
M  V30 49 H -0.880814 -4.094038 -3.969640 0
M  V30 50 H -1.897778 -4.987405 -2.757752 0
M  V30 END ATOM
M  V30 BEGIN BOND
M  V30 1 1 1 2
M  V30 2 1 2 3
M  V30 3 2 3 4
M  V30 4 1 4 5
M  V30 5 2 5 6
M  V30 6 1 6 7
M  V30 7 2 7 8
M  V30 8 1 8 9
M  V30 9 1 9 10
M  V30 10 2 10 11
M  V30 11 1 11 12
M  V30 12 2 12 13
M  V30 13 1 13 14
M  V30 14 1 14 15
M  V30 15 1 15 16
M  V30 16 2 16 17
M  V30 17 1 17 18
M  V30 18 2 18 19
M  V30 19 1 19 20
M  V30 20 2 20 21
M  V30 21 2 14 22
M  V30 22 1 6 23
M  V30 23 1 23 24
M  V30 24 1 24 25
M  V30 25 1 24 26
M  V30 26 1 26 27
M  V30 27 1 8 3
M  V30 28 1 22 10
M  V30 29 1 27 5
M  V30 30 1 21 16
M  V30 31 1 1 28
M  V30 32 1 1 29
M  V30 33 1 1 30
M  V30 34 1 4 31
M  V30 35 1 7 32
M  V30 36 1 9 33
M  V30 37 1 12 34
M  V30 38 1 13 35
M  V30 39 1 15 36
M  V30 40 1 17 37
M  V30 41 1 18 38
M  V30 42 1 19 39
M  V30 43 1 20 40
M  V30 44 1 21 41
M  V30 45 1 23 42
M  V30 46 1 23 43
M  V30 47 1 25 44
M  V30 48 1 25 45
M  V30 49 1 25 46
M  V30 50 1 26 47
M  V30 51 1 26 48
M  V30 52 1 27 49
M  V30 53 1 27 50
M  V30 END BOND
M  V30 END CTAB
M  END
>  <Dataset>  (178) 
ChEMBL_Kinases

>  <Ligand_Instance>  (178) 
nan

>  <PDB_ID>  (178) 
nan

>  <Standardized_SMILES>  (178) 
COc1cc2c(cc1Nc1nccc(Nc3ccccc3)n1)CN(C)CC2

>  <Name>  (178) 
nan

>  <Pocket>  (178) 
nan

>  <ATP_Site>  (178) 
nan

>  <Peripheral>  (178) 
nan

>  <Num_H_Atoms_ProtBoundConf>  (178) 
nan

>  <Num_Resolved_Atoms>  (178) 
nan

>  <Num_Not_Resolved_Atoms>  (178) 
nan

$$$$
CHEMBL4868536
     RDKit          3D

  0  0  0  0  0  0  0  0  0  0999 V3000
M  V30 BEGIN CTAB
M  V30 COUNTS 69 74 0 0 0
M  V30 BEGIN ATOM
M  V30 1 O 1.526855 -2.777291 5.172658 0
M  V30 2 C 1.459954 -2.497887 3.944441 0
M  V30 3 C 1.745512 -3.631201 3.024145 0
M  V30 4 N 1.643024 -3.207470 1.630762 0
M  V30 5 C 2.778920 -2.681181 0.879644 0
M  V30 6 C 2.217167 -2.395323 -0.446572 0
M  V30 7 C 2.823194 -1.879866 -1.578459 0
M  V30 8 C 2.084333 -1.697299 -2.719784 0
M  V30 9 C 0.747668 -1.997065 -2.825737 0
M  V30 10 C -0.037358 -1.803408 -4.037726 0
M  V30 11 N -1.251779 -1.236814 -3.917594 0
M  V30 12 C -2.076356 -0.999804 -4.938793 0
M  V30 13 N -3.353424 -0.398287 -4.772011 0
M  V30 14 C -3.810179 -0.014737 -3.454801 0
M  V30 15 C -2.883206 0.993982 -2.817958 0
M  V30 16 C -2.622068 0.558171 -1.396970 0
M  V30 17 O -3.867496 0.322251 -0.794426 0
M  V30 18 C -4.326038 -0.933453 -1.184018 0
M  V30 19 C -3.996599 -1.254728 -2.607129 0
M  V30 20 N -1.629728 -1.364357 -6.149063 0
M  V30 21 C -0.432487 -1.934836 -6.356525 0
M  V30 22 C 0.392381 -2.166741 -5.296178 0
M  V30 23 Cl 1.967596 -2.904784 -5.475085 0
M  V30 24 C 0.148711 -2.517277 -1.673558 0
M  V30 25 C 0.868553 -2.709763 -0.516288 0
M  V30 26 C 0.486706 -3.226973 0.794063 0
M  V30 27 O -0.641076 -3.619915 1.139559 0
M  V30 28 N 1.131486 -1.180302 3.533005 0
M  V30 29 C 0.862487 -0.113812 4.480950 0 CFG=1
M  V30 30 C -0.295903 -0.394680 5.392128 0
M  V30 31 O -0.421320 0.726699 6.240273 0
M  V30 32 C 2.069288 0.218934 5.315010 0
M  V30 33 C 2.175369 1.720616 5.389903 0
M  V30 34 C 1.409584 2.177520 4.201497 0
M  V30 35 C 1.307864 3.391190 3.546646 0
M  V30 36 C 0.525192 3.626815 2.431806 0
M  V30 37 C -0.206707 2.565230 1.941854 0
M  V30 38 C -0.143410 1.314361 2.562966 0
M  V30 39 C 0.652388 1.128068 3.673556 0
M  V30 40 H 2.770492 -4.002822 3.206779 0
M  V30 41 H 1.002413 -4.436537 3.169569 0
M  V30 42 H 3.131709 -1.791632 1.418270 0
M  V30 43 H 3.532750 -3.490649 0.846740 0
M  V30 44 H 3.877394 -1.627083 -1.545477 0
M  V30 45 H 2.585074 -1.295140 -3.581301 0
M  V30 46 H -3.945779 -0.242822 -5.617588 0
M  V30 47 H -4.824289 0.466643 -3.562153 0
M  V30 48 H -1.909516 1.057931 -3.375844 0
M  V30 49 H -3.335313 2.019945 -2.754973 0
M  V30 50 H -2.111818 1.377377 -0.840054 0
M  V30 51 H -2.017557 -0.362895 -1.324834 0
M  V30 52 H -3.859595 -1.675760 -0.504105 0
M  V30 53 H -5.427270 -0.996410 -1.007531 0
M  V30 54 H -4.880752 -1.796355 -3.043426 0
M  V30 55 H -3.126199 -1.924204 -2.624224 0
M  V30 56 H -0.077510 -2.229183 -7.352915 0
M  V30 57 H -0.905041 -2.765988 -1.718543 0
M  V30 58 H 1.104041 -1.060406 2.493634 0
M  V30 59 H -1.253790 -0.507321 4.878912 0
M  V30 60 H 0.003427 -1.223443 6.045699 0
M  V30 61 H -0.519706 1.536089 5.655763 0
M  V30 62 H 2.996641 -0.251745 4.931298 0
M  V30 63 H 1.928474 -0.150703 6.357260 0
M  V30 64 H 1.708793 2.164502 6.286978 0
M  V30 65 H 3.240571 2.061992 5.346094 0
M  V30 66 H 1.897956 4.188836 3.966764 0
M  V30 67 H 0.542421 4.622428 2.024965 0
M  V30 68 H -0.809233 2.791316 1.064196 0
M  V30 69 H -0.739047 0.533684 2.128180 0
M  V30 END ATOM
M  V30 BEGIN BOND
M  V30 1 2 1 2
M  V30 2 1 2 3
M  V30 3 1 3 4
M  V30 4 1 4 5
M  V30 5 1 5 6
M  V30 6 2 6 7
M  V30 7 1 7 8
M  V30 8 2 8 9
M  V30 9 1 9 10
M  V30 10 2 10 11
M  V30 11 1 11 12
M  V30 12 1 12 13
M  V30 13 1 13 14
M  V30 14 1 14 15
M  V30 15 1 15 16
M  V30 16 1 16 17
M  V30 17 1 17 18
M  V30 18 1 18 19
M  V30 19 2 12 20
M  V30 20 1 20 21
M  V30 21 2 21 22
M  V30 22 1 22 23
M  V30 23 1 9 24
M  V30 24 2 24 25
M  V30 25 1 25 26
M  V30 26 2 26 27
M  V30 27 1 2 28
M  V30 28 1 29 28 CFG=3
M  V30 29 1 29 30
M  V30 30 1 30 31
M  V30 31 1 29 32
M  V30 32 1 32 33
M  V30 33 1 33 34
M  V30 34 2 34 35
M  V30 35 1 35 36
M  V30 36 2 36 37
M  V30 37 1 37 38
M  V30 38 2 38 39
M  V30 39 1 26 4
M  V30 40 1 39 29
M  V30 41 1 25 6
M  V30 42 1 39 34
M  V30 43 1 22 10
M  V30 44 1 19 14
M  V30 45 1 3 40
M  V30 46 1 3 41
M  V30 47 1 5 42
M  V30 48 1 5 43
M  V30 49 1 7 44
M  V30 50 1 8 45
M  V30 51 1 13 46
M  V30 52 1 14 47
M  V30 53 1 15 48
M  V30 54 1 15 49
M  V30 55 1 16 50
M  V30 56 1 16 51
M  V30 57 1 18 52
M  V30 58 1 18 53
M  V30 59 1 19 54
M  V30 60 1 19 55
M  V30 61 1 21 56
M  V30 62 1 24 57
M  V30 63 1 28 58
M  V30 64 1 30 59
M  V30 65 1 30 60
M  V30 66 1 31 61
M  V30 67 1 32 62
M  V30 68 1 32 63
M  V30 69 1 33 64
M  V30 70 1 33 65
M  V30 71 1 35 66
M  V30 72 1 36 67
M  V30 73 1 37 68
M  V30 74 1 38 69
M  V30 END BOND
M  V30 END CTAB
M  END
>  <Dataset>  (179) 
ChEMBL_Kinases

>  <Ligand_Instance>  (179) 
nan

>  <PDB_ID>  (179) 
nan

>  <Standardized_SMILES>  (179) 
O=C(CN1Cc2ccc(-c3nc(NC4CCOCC4)ncc3Cl)cc2C1=O)N[C@@]1(CO)CCc2ccccc21

>  <Name>  (179) 
nan

>  <Pocket>  (179) 
nan

>  <ATP_Site>  (179) 
nan

>  <Peripheral>  (179) 
nan

>  <Num_H_Atoms_ProtBoundConf>  (179) 
nan

>  <Num_Resolved_Atoms>  (179) 
nan

>  <Num_Not_Resolved_Atoms>  (179) 
nan

$$$$
CHEMBL4868537
     RDKit          3D

  0  0  0  0  0  0  0  0  0  0999 V3000
M  V30 BEGIN CTAB
M  V30 COUNTS 61 66 0 0 0
M  V30 BEGIN ATOM
M  V30 1 O -0.061593 -4.148150 3.932466 0
M  V30 2 C -0.624307 -3.452350 2.996049 0
M  V30 3 C -0.356993 -2.060983 3.163847 0
M  V30 4 C -0.617308 -1.600670 4.476263 0
M  V30 5 C -0.489109 -0.290574 4.948482 0
M  V30 6 C -0.061891 0.611353 4.002275 0
M  V30 7 C 0.223824 0.289647 2.697374 0
M  V30 8 N 0.668101 1.209676 1.714995 0
M  V30 9 S 0.630265 2.900121 2.047683 0
M  V30 10 O 1.455175 3.177801 3.269386 0
M  V30 11 O 1.247492 3.656779 0.894627 0
M  V30 12 C -1.014791 3.502105 2.352237 0
M  V30 13 C -1.030625 4.953068 2.637410 0
M  V30 14 C -1.170245 5.888716 1.617914 0
M  V30 15 C -1.193703 7.265240 1.809411 0
M  V30 16 C -1.065607 7.694056 3.128037 0
M  V30 17 C -0.924656 6.809365 4.175042 0
M  V30 18 C -0.907543 5.439554 3.926362 0
M  V30 19 C 0.056128 -1.028107 2.367656 0
M  V30 20 F 0.332472 -1.366710 1.095557 0
M  V30 21 C -1.339628 -4.345821 2.109049 0
M  V30 22 C -2.367227 -5.115832 2.700100 0
M  V30 23 N -3.041599 -5.859368 1.807216 0
M  V30 24 C -2.494475 -5.616090 0.606882 0
M  V30 25 N -2.715886 -6.054351 -0.644773 0
M  V30 26 C -1.951089 -5.606237 -1.655809 0
M  V30 27 C -0.906067 -4.687431 -1.500888 0
M  V30 28 C -0.102904 -4.229610 -2.631532 0
M  V30 29 C 1.286982 -4.170485 -2.527805 0
M  V30 30 C 2.064115 -3.734451 -3.605637 0
M  V30 31 C 1.424783 -3.369161 -4.759485 0
M  V30 32 C 0.064978 -3.416055 -4.891801 0
M  V30 33 C -0.686085 -3.847461 -3.821985 0
M  V30 34 Cl -2.420930 -3.889427 -4.036272 0
M  V30 35 O 2.232133 -2.950934 -5.780847 0
M  V30 36 C 3.628669 -3.163744 -5.871343 0
M  V30 37 C 4.305467 -3.326775 -4.547501 0
M  V30 38 O 3.444376 -3.677854 -3.496526 0
M  V30 39 C -0.687139 -4.244001 -0.215966 0
M  V30 40 C -1.483096 -4.716647 0.793920 0
M  V30 41 H -0.956454 -2.286877 5.251041 0
M  V30 42 H -0.709384 -0.029917 5.964284 0
M  V30 43 H 0.053722 1.633552 4.318478 0
M  V30 44 H 1.011345 0.877617 0.809847 0
M  V30 45 H -1.606670 3.383451 1.397511 0
M  V30 46 H -1.537508 2.949350 3.129320 0
M  V30 47 H -1.267044 5.512221 0.606255 0
M  V30 48 H -1.306425 7.892005 0.948580 0
M  V30 49 H -1.086134 8.780481 3.260753 0
M  V30 50 H -0.828607 7.207469 5.185679 0
M  V30 51 H -0.796078 4.756644 4.759054 0
M  V30 52 H -2.700587 -5.209278 3.733082 0
M  V30 53 H -3.837237 -6.522221 1.899684 0
M  V30 54 H -2.183869 -6.000265 -2.634800 0
M  V30 55 H 1.791664 -4.459930 -1.614100 0
M  V30 56 H -0.390765 -3.114493 -5.830262 0
M  V30 57 H 4.055071 -2.283575 -6.405116 0
M  V30 58 H 3.825167 -4.047245 -6.542375 0
M  V30 59 H 5.075141 -4.142383 -4.669063 0
M  V30 60 H 4.903950 -2.421109 -4.329309 0
M  V30 61 H 0.112417 -3.564315 -0.085185 0
M  V30 END ATOM
M  V30 BEGIN BOND
M  V30 1 2 1 2
M  V30 2 1 2 3
M  V30 3 2 3 4
M  V30 4 1 4 5
M  V30 5 2 5 6
M  V30 6 1 6 7
M  V30 7 1 7 8
M  V30 8 1 8 9
M  V30 9 2 9 10
M  V30 10 2 9 11
M  V30 11 1 9 12
M  V30 12 1 12 13
M  V30 13 2 13 14
M  V30 14 1 14 15
M  V30 15 2 15 16
M  V30 16 1 16 17
M  V30 17 2 17 18
M  V30 18 2 7 19
M  V30 19 1 19 20
M  V30 20 1 2 21
M  V30 21 2 21 22
M  V30 22 1 22 23
M  V30 23 1 23 24
M  V30 24 2 24 25
M  V30 25 1 25 26
M  V30 26 2 26 27
M  V30 27 1 27 28
M  V30 28 2 28 29
M  V30 29 1 29 30
M  V30 30 2 30 31
M  V30 31 1 31 32
M  V30 32 2 32 33
M  V30 33 1 33 34
M  V30 34 1 31 35
M  V30 35 1 35 36
M  V30 36 1 36 37
M  V30 37 1 37 38
M  V30 38 1 27 39
M  V30 39 2 39 40
M  V30 40 1 19 3
M  V30 41 1 40 21
M  V30 42 1 18 13
M  V30 43 1 40 24
M  V30 44 1 33 28
M  V30 45 1 38 30
M  V30 46 1 4 41
M  V30 47 1 5 42
M  V30 48 1 6 43
M  V30 49 1 8 44
M  V30 50 1 12 45
M  V30 51 1 12 46
M  V30 52 1 14 47
M  V30 53 1 15 48
M  V30 54 1 16 49
M  V30 55 1 17 50
M  V30 56 1 18 51
M  V30 57 1 22 52
M  V30 58 1 23 53
M  V30 59 1 26 54
M  V30 60 1 29 55
M  V30 61 1 32 56
M  V30 62 1 36 57
M  V30 63 1 36 58
M  V30 64 1 37 59
M  V30 65 1 37 60
M  V30 66 1 39 61
M  V30 END BOND
M  V30 END CTAB
M  END
>  <Dataset>  (180) 
ChEMBL_Kinases

>  <Ligand_Instance>  (180) 
nan

>  <PDB_ID>  (180) 
nan

>  <Standardized_SMILES>  (180) 
O=C(c1cccc(NS(=O)(=O)Cc2ccccc2)c1F)c1c[nH]c2ncc(-c3cc4c(cc3Cl)OCCO4)cc12

>  <Name>  (180) 
nan

>  <Pocket>  (180) 
nan

>  <ATP_Site>  (180) 
nan

>  <Peripheral>  (180) 
nan

>  <Num_H_Atoms_ProtBoundConf>  (180) 
nan

>  <Num_Resolved_Atoms>  (180) 
nan

>  <Num_Not_Resolved_Atoms>  (180) 
nan

$$$$
CHEMBL4868574
     RDKit          3D

  0  0  0  0  0  0  0  0  0  0999 V3000
M  V30 BEGIN CTAB
M  V30 COUNTS 52 55 0 0 0
M  V30 BEGIN ATOM
M  V30 1 C -1.297654 -1.371269 4.624523 0
M  V30 2 C -1.637476 -2.506991 3.717229 0
M  V30 3 C -0.458880 -3.141879 3.074501 0
M  V30 4 C 0.069234 -2.738969 1.852143 0
M  V30 5 C 1.165461 -3.531891 1.525759 0
M  V30 6 N 1.992630 -3.458799 0.357652 0
M  V30 7 C 1.606849 -2.408400 -0.522301 0
M  V30 8 N 2.267729 -1.232096 -0.460009 0
M  V30 9 C 1.890608 -0.220228 -1.291968 0
M  V30 10 N 2.453631 1.072072 -1.402895 0
M  V30 11 C 2.375951 2.319784 -0.669049 0
M  V30 12 C 0.904926 2.680729 -0.514039 0
M  V30 13 N 0.202718 1.653822 0.230862 0
M  V30 14 C 0.575666 1.559297 1.608487 0
M  V30 15 C -0.357143 2.466054 2.407558 0
M  V30 16 O -1.574174 1.815588 2.377166 0
M  V30 17 C -2.110410 1.839406 1.116846 0
M  V30 18 C -1.197653 1.690709 -0.028753 0
M  V30 19 N 0.871457 -0.402150 -2.160129 0
M  V30 20 C 0.227822 -1.586300 -2.203307 0
M  V30 21 C -0.827068 -1.781721 -3.103769 0
M  V30 22 C -1.540436 -2.948660 -3.223133 0
M  V30 23 C -1.142430 -3.957633 -2.371828 0
M  V30 24 C -0.110588 -3.806077 -1.473742 0
M  V30 25 F 0.231251 -4.835167 -0.668377 0
M  V30 26 C 0.576721 -2.613943 -1.390297 0
M  V30 27 N 1.274841 -4.399552 2.564562 0
M  V30 28 N 0.332228 -4.159338 3.444356 0
M  V30 29 H -0.934218 -1.719571 5.604528 0
M  V30 30 H -0.517444 -0.745815 4.138659 0
M  V30 31 H -2.181996 -0.715756 4.758590 0
M  V30 32 H -2.172286 -3.272333 4.321345 0
M  V30 33 H -2.363999 -2.184919 2.926058 0
M  V30 34 H -0.332649 -1.922529 1.259237 0
M  V30 35 H 2.756731 -4.151339 0.278930 0
M  V30 36 H 3.074438 1.016023 -2.261652 0
M  V30 37 H 2.915670 2.287060 0.293425 0
M  V30 38 H 2.878528 3.104129 -1.290509 0
M  V30 39 H 0.401485 2.725324 -1.502539 0
M  V30 40 H 0.801674 3.682147 -0.054818 0
M  V30 41 H 0.418022 0.531684 2.015089 0
M  V30 42 H 1.606585 1.884008 1.771806 0
M  V30 43 H 0.039625 2.632950 3.422462 0
M  V30 44 H -0.420966 3.428715 1.861825 0
M  V30 45 H -2.722971 2.786653 1.056046 0
M  V30 46 H -2.890473 1.024017 1.093328 0
M  V30 47 H -1.419472 0.739029 -0.599431 0
M  V30 48 H -1.399662 2.505554 -0.767298 0
M  V30 49 H -1.073824 -0.934785 -3.737178 0
M  V30 50 H -2.332986 -3.023539 -3.934655 0
M  V30 51 H -1.689191 -4.907127 -2.438649 0
M  V30 52 H 0.157910 -4.662522 4.351039 0
M  V30 END ATOM
M  V30 BEGIN BOND
M  V30 1 1 1 2
M  V30 2 1 2 3
M  V30 3 2 3 4
M  V30 4 1 4 5
M  V30 5 1 5 6
M  V30 6 1 6 7
M  V30 7 2 7 8
M  V30 8 1 8 9
M  V30 9 1 9 10
M  V30 10 1 10 11
M  V30 11 1 11 12
M  V30 12 1 12 13
M  V30 13 1 13 14
M  V30 14 1 14 15
M  V30 15 1 15 16
M  V30 16 1 16 17
M  V30 17 1 17 18
M  V30 18 2 9 19
M  V30 19 1 19 20
M  V30 20 2 20 21
M  V30 21 1 21 22
M  V30 22 2 22 23
M  V30 23 1 23 24
M  V30 24 1 24 25
M  V30 25 2 24 26
M  V30 26 2 5 27
M  V30 27 1 27 28
M  V30 28 1 28 3
M  V30 29 1 26 7
M  V30 30 1 18 13
M  V30 31 1 26 20
M  V30 32 1 1 29
M  V30 33 1 1 30
M  V30 34 1 1 31
M  V30 35 1 2 32
M  V30 36 1 2 33
M  V30 37 1 4 34
M  V30 38 1 6 35
M  V30 39 1 10 36
M  V30 40 1 11 37
M  V30 41 1 11 38
M  V30 42 1 12 39
M  V30 43 1 12 40
M  V30 44 1 14 41
M  V30 45 1 14 42
M  V30 46 1 15 43
M  V30 47 1 15 44
M  V30 48 1 17 45
M  V30 49 1 17 46
M  V30 50 1 18 47
M  V30 51 1 18 48
M  V30 52 1 21 49
M  V30 53 1 22 50
M  V30 54 1 23 51
M  V30 55 1 28 52
M  V30 END BOND
M  V30 END CTAB
M  END
>  <Dataset>  (181) 
ChEMBL_Kinases

>  <Ligand_Instance>  (181) 
nan

>  <PDB_ID>  (181) 
nan

>  <Standardized_SMILES>  (181) 
CCc1cc(Nc2nc(NCCN3CCOCC3)nc3cccc(F)c23)n[nH]1

>  <Name>  (181) 
nan

>  <Pocket>  (181) 
nan

>  <ATP_Site>  (181) 
nan

>  <Peripheral>  (181) 
nan

>  <Num_H_Atoms_ProtBoundConf>  (181) 
nan

>  <Num_Resolved_Atoms>  (181) 
nan

>  <Num_Not_Resolved_Atoms>  (181) 
nan

$$$$
CHEMBL4868377
     RDKit          3D

  0  0  0  0  0  0  0  0  0  0999 V3000
M  V30 BEGIN CTAB
M  V30 COUNTS 34 37 0 0 0
M  V30 BEGIN ATOM
M  V30 1 Br 5.787455 -1.397194 1.119949 0
M  V30 2 C 4.502539 -0.428342 2.125116 0
M  V30 3 C 4.739359 -0.018070 3.417353 0
M  V30 4 N 3.876622 0.674678 4.198213 0
M  V30 5 C 2.653763 1.018063 3.702844 0
M  V30 6 N 1.576865 1.685540 4.182633 0
M  V30 7 N 0.642751 1.720043 3.232624 0
M  V30 8 C 1.110196 1.073682 2.129515 0
M  V30 9 C 0.368647 0.899355 0.869193 0
M  V30 10 C -0.354329 1.913398 0.226714 0
M  V30 11 N -0.900295 1.384880 -0.899337 0
M  V30 12 N -0.557675 0.110293 -0.988019 0
M  V30 13 C -0.867848 -0.904276 -1.981385 0
M  V30 14 C -2.120949 -1.610233 -1.596945 0
M  V30 15 C -3.382172 -1.174684 -2.013408 0
M  V30 16 C -4.459461 -1.921859 -1.584547 0
M  V30 17 C -4.419102 -3.046709 -0.792447 0
M  V30 18 C -3.140946 -3.453073 -0.394953 0
M  V30 19 C -2.023335 -2.735083 -0.799802 0
M  V30 20 C 0.215487 -0.230333 0.067356 0
M  V30 21 C 2.402655 0.612771 2.407242 0
M  V30 22 C 3.259929 -0.090771 1.593234 0
M  V30 23 H 5.689864 -0.245931 3.900364 0
M  V30 24 H 1.617982 2.057105 5.160585 0
M  V30 25 H -0.426624 2.923464 0.612390 0
M  V30 26 H -0.028405 -1.598706 -2.144065 0
M  V30 27 H -1.111082 -0.379026 -2.943595 0
M  V30 28 H -3.468319 -0.310234 -2.627004 0
M  V30 29 H -5.442367 -1.578978 -1.911522 0
M  V30 30 H -5.321294 -3.553906 -0.516385 0
M  V30 31 H -3.055171 -4.337488 0.232611 0
M  V30 32 H -1.051426 -3.079100 -0.472998 0
M  V30 33 H 0.684542 -1.147179 0.355957 0
M  V30 34 H 3.000539 -0.375586 0.590762 0
M  V30 END ATOM
M  V30 BEGIN BOND
M  V30 1 1 1 2
M  V30 2 2 2 3
M  V30 3 1 3 4
M  V30 4 2 4 5
M  V30 5 1 5 6
M  V30 6 1 6 7
M  V30 7 2 7 8
M  V30 8 1 8 9
M  V30 9 1 9 10
M  V30 10 2 10 11
M  V30 11 1 11 12
M  V30 12 1 12 13
M  V30 13 1 13 14
M  V30 14 2 14 15
M  V30 15 1 15 16
M  V30 16 2 16 17
M  V30 17 1 17 18
M  V30 18 2 18 19
M  V30 19 1 12 20
M  V30 20 1 8 21
M  V30 21 2 21 22
M  V30 22 1 22 2
M  V30 23 1 21 5
M  V30 24 2 20 9
M  V30 25 1 19 14
M  V30 26 1 3 23
M  V30 27 1 6 24
M  V30 28 1 10 25
M  V30 29 1 13 26
M  V30 30 1 13 27
M  V30 31 1 15 28
M  V30 32 1 16 29
M  V30 33 1 17 30
M  V30 34 1 18 31
M  V30 35 1 19 32
M  V30 36 1 20 33
M  V30 37 1 22 34
M  V30 END BOND
M  V30 END CTAB
M  END
>  <Dataset>  (182) 
ChEMBL_Kinases

>  <Ligand_Instance>  (182) 
nan

>  <PDB_ID>  (182) 
nan

>  <Standardized_SMILES>  (182) 
Brc1cnc2[nH]nc(-c3cnn(Cc4ccccc4)c3)c2c1

>  <Name>  (182) 
nan

>  <Pocket>  (182) 
nan

>  <ATP_Site>  (182) 
nan

>  <Peripheral>  (182) 
nan

>  <Num_H_Atoms_ProtBoundConf>  (182) 
nan

>  <Num_Resolved_Atoms>  (182) 
nan

>  <Num_Not_Resolved_Atoms>  (182) 
nan

$$$$
CHEMBL398498
     RDKit          3D

  0  0  0  0  0  0  0  0  0  0999 V3000
M  V30 BEGIN CTAB
M  V30 COUNTS 39 41 0 0 0
M  V30 BEGIN ATOM
M  V30 1 C 4.679991 -5.313237 1.646826 0
M  V30 2 C 4.342057 -3.964952 1.121764 0
M  V30 3 O 5.221275 -3.252250 0.603387 0
M  V30 4 N 3.026830 -3.482008 1.205554 0
M  V30 5 C 2.628103 -2.183809 0.716989 0
M  V30 6 N 3.548396 -1.433613 0.174552 0
M  V30 7 C 3.004762 -0.194388 -0.255307 0
M  V30 8 O 3.552945 0.788452 -0.817703 0
M  V30 9 C 1.585687 -0.219494 0.075990 0
M  V30 10 C 0.651546 0.708060 -0.041954 0
M  V30 11 C 1.069497 2.019753 -0.586375 0
M  V30 12 C 0.137882 3.142944 -0.418703 0
M  V30 13 N -0.537221 3.309983 0.832008 0
M  V30 14 C -1.463445 2.420898 1.515709 0
M  V30 15 O -2.160754 2.658067 2.496934 0
M  V30 16 C -1.668453 1.032903 1.054235 0
M  V30 17 C -0.712220 0.272672 0.345821 0
M  V30 18 C -1.190729 -0.956569 0.035578 0
M  V30 19 C -2.466772 -0.970276 0.560246 0
M  V30 20 Br -3.606343 -2.490016 0.406351 0
M  V30 21 N -2.750461 0.201398 1.160720 0
M  V30 22 C -3.937399 0.611385 1.818264 0
M  V30 23 C -5.026773 -0.393081 1.873385 0
M  V30 24 O -4.343960 1.638193 2.395528 0
M  V30 25 N 1.393498 -1.484754 0.685432 0
M  V30 26 H 3.812778 -5.856969 2.021058 0
M  V30 27 H 5.173555 -5.859207 0.798424 0
M  V30 28 H 5.432962 -5.192250 2.449707 0
M  V30 29 H 2.254890 -4.050427 1.634831 0
M  V30 30 H 2.028582 2.303360 -0.052004 0
M  V30 31 H 1.246926 1.883436 -1.671895 0
M  V30 32 H 0.745210 4.084685 -0.560299 0
M  V30 33 H -0.567933 3.166516 -1.293417 0
M  V30 34 H -0.437846 4.174118 1.457553 0
M  V30 35 H -0.730507 -1.737487 -0.508513 0
M  V30 36 H -4.658500 -1.286701 2.451635 0
M  V30 37 H -5.929829 -0.078193 2.427324 0
M  V30 38 H -5.387881 -0.648735 0.855774 0
M  V30 39 H 0.626619 -2.009211 1.130703 0
M  V30 END ATOM
M  V30 BEGIN BOND
M  V30 1 1 1 2
M  V30 2 2 2 3
M  V30 3 1 2 4
M  V30 4 1 4 5
M  V30 5 2 5 6
M  V30 6 1 6 7
M  V30 7 2 7 8
M  V30 8 1 7 9
M  V30 9 2 9 10
M  V30 10 1 10 11
M  V30 11 1 11 12
M  V30 12 1 12 13
M  V30 13 1 13 14
M  V30 14 2 14 15
M  V30 15 1 14 16
M  V30 16 2 16 17
M  V30 17 1 17 18
M  V30 18 2 18 19
M  V30 19 1 19 20
M  V30 20 1 19 21
M  V30 21 1 21 22
M  V30 22 1 22 23
M  V30 23 2 22 24
M  V30 24 1 9 25
M  V30 25 1 25 5
M  V30 26 1 17 10
M  V30 27 1 21 16
M  V30 28 1 1 26
M  V30 29 1 1 27
M  V30 30 1 1 28
M  V30 31 1 4 29
M  V30 32 1 11 30
M  V30 33 1 11 31
M  V30 34 1 12 32
M  V30 35 1 12 33
M  V30 36 1 13 34
M  V30 37 1 18 35
M  V30 38 1 23 36
M  V30 39 1 23 37
M  V30 40 1 23 38
M  V30 41 1 25 39
M  V30 END BOND
M  V30 END CTAB
M  END
>  <Dataset>  (183) 
ChEMBL_Kinases

>  <Ligand_Instance>  (183) 
nan

>  <PDB_ID>  (183) 
nan

>  <Standardized_SMILES>  (183) 
CC(=O)NC1=NC(=O)/C(=C2\CCNC(=O)c3c2cc(Br)n3C(C)=O)N1

>  <Name>  (183) 
HYMENIALDISINE 2

>  <Pocket>  (183) 
nan

>  <ATP_Site>  (183) 
nan

>  <Peripheral>  (183) 
nan

>  <Num_H_Atoms_ProtBoundConf>  (183) 
nan

>  <Num_Resolved_Atoms>  (183) 
nan

>  <Num_Not_Resolved_Atoms>  (183) 
nan

$$$$
CHEMBL4866990
     RDKit          3D

  0  0  0  0  0  0  0  0  0  0999 V3000
M  V30 BEGIN CTAB
M  V30 COUNTS 49 51 0 0 0
M  V30 BEGIN ATOM
M  V30 1 C 1.284810 -8.369557 0.670546 0
M  V30 2 O 2.096747 -7.689940 -0.208136 0
M  V30 3 C 1.626485 -6.429598 -0.483748 0
M  V30 4 C 1.542071 -5.589524 0.737043 0
M  V30 5 N 1.055828 -4.242432 0.472856 0
M  V30 6 C 1.694210 -3.327026 -0.382335 0
M  V30 7 O 2.763771 -3.694397 -0.960643 0
M  V30 8 C 1.247803 -1.971149 -0.681470 0
M  V30 9 C 2.023268 -1.206977 -1.528158 0
M  V30 10 C 1.674804 0.106513 -1.876045 0
M  V30 11 C 0.519452 0.676644 -1.365830 0
M  V30 12 C 0.187821 2.072039 -1.759466 0
M  V30 13 C 0.772671 3.082901 -0.807389 0
M  V30 14 N 0.311970 2.934671 0.556851 0
M  V30 15 C -1.084202 3.115044 0.846730 0
M  V30 16 N -1.933034 3.422439 -0.117151 0
M  V30 17 C -3.231288 3.594898 0.158473 0
M  V30 18 N -3.753856 3.473505 1.391191 0
M  V30 19 C -2.945876 3.161539 2.422879 0
M  V30 20 C -3.437590 3.026260 3.704715 0
M  V30 21 C -2.600214 2.706468 4.751027 0
M  V30 22 C -1.264265 2.529083 4.466979 0
M  V30 23 C -0.430233 2.196342 5.594523 0
M  V30 24 N 0.254221 1.931193 6.490380 0
M  V30 25 C -0.794033 2.669088 3.178858 0
M  V30 26 C -1.592037 2.984138 2.121188 0
M  V30 27 C -0.248269 -0.098205 -0.519592 0
M  V30 28 C 0.099561 -1.390816 -0.180310 0
M  V30 29 H 1.168136 -7.919516 1.670104 0
M  V30 30 H 1.647784 -9.422374 0.841199 0
M  V30 31 H 0.222770 -8.446865 0.282819 0
M  V30 32 H 2.318115 -5.959584 -1.238041 0
M  V30 33 H 0.613763 -6.586275 -0.967575 0
M  V30 34 H 2.475571 -5.629187 1.295425 0
M  V30 35 H 0.738955 -6.027637 1.404394 0
M  V30 36 H 0.175291 -3.822909 0.899078 0
M  V30 37 H 2.958321 -1.545073 -1.995352 0
M  V30 38 H 2.285716 0.696644 -2.537669 0
M  V30 39 H -0.882032 2.269798 -1.863672 0
M  V30 40 H 0.612882 2.233301 -2.792874 0
M  V30 41 H 0.413841 4.085744 -1.148307 0
M  V30 42 H 1.877843 3.031486 -0.793918 0
M  V30 43 H 1.022543 2.699265 1.282799 0
M  V30 44 H -3.832405 3.847520 -0.728842 0
M  V30 45 H -4.517603 3.192657 3.798942 0
M  V30 46 H -3.109948 2.630176 5.702575 0
M  V30 47 H 0.246019 2.511286 3.072308 0
M  V30 48 H -1.158794 0.348584 -0.116146 0
M  V30 49 H -0.524463 -1.967638 0.484390 0
M  V30 END ATOM
M  V30 BEGIN BOND
M  V30 1 1 1 2
M  V30 2 1 2 3
M  V30 3 1 3 4
M  V30 4 1 4 5
M  V30 5 1 5 6
M  V30 6 2 6 7
M  V30 7 1 6 8
M  V30 8 2 8 9
M  V30 9 1 9 10
M  V30 10 2 10 11
M  V30 11 1 11 12
M  V30 12 1 12 13
M  V30 13 1 13 14
M  V30 14 1 14 15
M  V30 15 2 15 16
M  V30 16 1 16 17
M  V30 17 2 17 18
M  V30 18 1 18 19
M  V30 19 2 19 20
M  V30 20 1 20 21
M  V30 21 2 21 22
M  V30 22 1 22 23
M  V30 23 3 23 24
M  V30 24 1 22 25
M  V30 25 2 25 26
M  V30 26 1 11 27
M  V30 27 2 27 28
M  V30 28 1 28 8
M  V30 29 1 26 15
M  V30 30 1 26 19
M  V30 31 1 1 29
M  V30 32 1 1 30
M  V30 33 1 1 31
M  V30 34 1 3 32
M  V30 35 1 3 33
M  V30 36 1 4 34
M  V30 37 1 4 35
M  V30 38 1 5 36
M  V30 39 1 9 37
M  V30 40 1 10 38
M  V30 41 1 12 39
M  V30 42 1 12 40
M  V30 43 1 13 41
M  V30 44 1 13 42
M  V30 45 1 14 43
M  V30 46 1 17 44
M  V30 47 1 20 45
M  V30 48 1 21 46
M  V30 49 1 25 47
M  V30 50 1 27 48
M  V30 51 1 28 49
M  V30 END BOND
M  V30 END CTAB
M  END
>  <Dataset>  (184) 
ChEMBL_Kinases

>  <Ligand_Instance>  (184) 
nan

>  <PDB_ID>  (184) 
nan

>  <Standardized_SMILES>  (184) 
COCCNC(=O)c1ccc(CCNc2ncnc3ccc(C#N)cc23)cc1

>  <Name>  (184) 
nan

>  <Pocket>  (184) 
nan

>  <ATP_Site>  (184) 
nan

>  <Peripheral>  (184) 
nan

>  <Num_H_Atoms_ProtBoundConf>  (184) 
nan

>  <Num_Resolved_Atoms>  (184) 
nan

>  <Num_Not_Resolved_Atoms>  (184) 
nan

$$$$
CHEMBL3984847
     RDKit          3D

  0  0  0  0  0  0  0  0  0  0999 V3000
M  V30 BEGIN CTAB
M  V30 COUNTS 60 63 0 0 0
M  V30 BEGIN ATOM
M  V30 1 C -0.163804 0.972279 2.897375 0
M  V30 2 C 1.284314 1.247749 2.756512 0 CFG=1
M  V30 3 C 2.168750 0.096858 3.199458 0
M  V30 4 N 3.505568 0.514189 3.003373 0
M  V30 5 C 4.525200 -0.427441 3.129251 0
M  V30 6 C 4.467236 -1.445391 2.010364 0
M  V30 7 O 4.604419 -0.845947 0.763247 0
M  V30 8 C 3.745050 1.817114 2.580112 0
M  V30 9 C 2.954040 2.254155 1.331658 0
M  V30 10 N 1.711240 1.515781 1.370998 0
M  V30 11 C 1.022667 1.122368 0.207381 0
M  V30 12 O 1.974105 1.711664 -0.367033 0
M  V30 13 N 0.017501 0.529546 -0.578755 0
M  V30 14 C -1.202729 -0.220355 -0.299924 0
M  V30 15 C -1.069047 -1.331415 -1.278379 0
M  V30 16 C -1.384511 -2.658407 -1.560756 0
M  V30 17 N -2.154997 -3.466510 -0.648169 0
M  V30 18 C -3.533110 -3.327636 -0.952468 0
M  V30 19 O -3.799181 -2.559658 -1.917992 0
M  V30 20 C -4.565506 -4.043134 -0.178075 0
M  V30 21 C -5.889390 -3.835205 -0.556174 0
M  V30 22 C -6.822520 -4.528778 0.203794 0
M  V30 23 C -6.429084 -5.358777 1.254842 0
M  V30 24 C -5.101509 -5.510283 1.564624 0
M  V30 25 N -4.205458 -4.842080 0.832360 0
M  V30 26 N -0.846217 -2.937652 -2.755097 0
M  V30 27 N -0.219387 -1.868352 -3.226404 0
M  V30 28 C -0.333534 -0.851277 -2.341680 0
M  V30 29 C -0.002403 0.562858 -2.031019 0
M  V30 30 C 1.320153 0.972250 -2.633072 0
M  V30 31 C -1.106994 1.451342 -2.552798 0
M  V30 32 H -0.667532 1.430325 2.015490 0
M  V30 33 H -0.418892 -0.107389 2.897099 0
M  V30 34 H -0.566522 1.501723 3.770710 0
M  V30 35 H 1.556488 2.092863 3.428098 0
M  V30 36 H 1.915145 -0.770504 2.560885 0
M  V30 37 H 1.993830 -0.106743 4.264359 0
M  V30 38 H 4.557142 -0.963935 4.097885 0
M  V30 39 H 5.511399 0.071676 3.032329 0
M  V30 40 H 5.344017 -2.129867 2.122255 0
M  V30 41 H 3.550019 -2.037815 2.013613 0
M  V30 42 H 4.169678 -1.406529 0.053065 0
M  V30 43 H 3.538834 2.542298 3.392622 0
M  V30 44 H 4.828433 1.927461 2.351040 0
M  V30 45 H 3.554517 2.150025 0.435985 0
M  V30 46 H 2.696426 3.344796 1.468293 0
M  V30 47 H -1.315201 -0.552256 0.724519 0
M  V30 48 H -2.031772 0.448194 -0.642027 0
M  V30 49 H -1.826917 -4.077618 0.130792 0
M  V30 50 H -6.204997 -3.197810 -1.369333 0
M  V30 51 H -7.878098 -4.421544 -0.025978 0
M  V30 52 H -7.142787 -5.905642 1.852657 0
M  V30 53 H -4.722137 -6.124913 2.352273 0
M  V30 54 H 0.276975 -1.828172 -4.134740 0
M  V30 55 H 2.154635 0.357944 -2.252752 0
M  V30 56 H 1.243159 0.691356 -3.723611 0
M  V30 57 H 1.481621 2.051748 -2.622240 0
M  V30 58 H -0.741169 1.886649 -3.513945 0
M  V30 59 H -2.005015 0.841311 -2.815801 0
M  V30 60 H -1.365469 2.237547 -1.826225 0
M  V30 END ATOM
M  V30 BEGIN BOND
M  V30 1 1 1 2
M  V30 2 1 2 3
M  V30 3 1 3 4
M  V30 4 1 4 5
M  V30 5 1 5 6
M  V30 6 1 6 7
M  V30 7 1 4 8
M  V30 8 1 8 9
M  V30 9 1 9 10
M  V30 10 1 10 11
M  V30 11 2 11 12
M  V30 12 1 11 13
M  V30 13 1 13 14
M  V30 14 1 14 15
M  V30 15 1 15 16
M  V30 16 1 16 17
M  V30 17 1 17 18
M  V30 18 2 18 19
M  V30 19 1 18 20
M  V30 20 2 20 21
M  V30 21 1 21 22
M  V30 22 2 22 23
M  V30 23 1 23 24
M  V30 24 2 24 25
M  V30 25 2 16 26
M  V30 26 1 26 27
M  V30 27 1 27 28
M  V30 28 1 28 29
M  V30 29 1 29 30
M  V30 30 1 29 31
M  V30 31 1 10 2
M  V30 32 1 29 13
M  V30 33 2 28 15
M  V30 34 1 25 20
M  V30 35 1 1 32
M  V30 36 1 1 33
M  V30 37 1 1 34
M  V30 38 1 2 35 CFG=1
M  V30 39 1 3 36
M  V30 40 1 3 37
M  V30 41 1 5 38
M  V30 42 1 5 39
M  V30 43 1 6 40
M  V30 44 1 6 41
M  V30 45 1 7 42
M  V30 46 1 8 43
M  V30 47 1 8 44
M  V30 48 1 9 45
M  V30 49 1 9 46
M  V30 50 1 14 47
M  V30 51 1 14 48
M  V30 52 1 17 49
M  V30 53 1 21 50
M  V30 54 1 22 51
M  V30 55 1 23 52
M  V30 56 1 24 53
M  V30 57 1 27 54
M  V30 58 1 30 55
M  V30 59 1 30 56
M  V30 60 1 30 57
M  V30 61 1 31 58
M  V30 62 1 31 59
M  V30 63 1 31 60
M  V30 END BOND
M  V30 END CTAB
M  END
>  <Dataset>  (185) 
ChEMBL_Kinases

>  <Ligand_Instance>  (185) 
nan

>  <PDB_ID>  (185) 
nan

>  <Standardized_SMILES>  (185) 
C[C@H]1CN(CCO)CCN1C(=O)N1Cc2c(NC(=O)c3ccccn3)n[nH]c2C1(C)C

>  <Name>  (185) 
nan

>  <Pocket>  (185) 
nan

>  <ATP_Site>  (185) 
nan

>  <Peripheral>  (185) 
nan

>  <Num_H_Atoms_ProtBoundConf>  (185) 
nan

>  <Num_Resolved_Atoms>  (185) 
nan

>  <Num_Not_Resolved_Atoms>  (185) 
nan

$$$$
CHEMBL398467
     RDKit          3D

  0  0  0  0  0  0  0  0  0  0999 V3000
M  V30 BEGIN CTAB
M  V30 COUNTS 64 68 0 0 0
M  V30 BEGIN ATOM
M  V30 1 C -1.559919 0.213096 7.678039 0
M  V30 2 C -1.816364 0.851841 6.356168 0
M  V30 3 C -2.538906 2.002414 6.233684 0
M  V30 4 C -2.776350 2.597512 4.990546 0
M  V30 5 C -2.279896 2.031041 3.832029 0
M  V30 6 C -2.506581 2.620912 2.516844 0
M  V30 7 N -1.562301 3.561151 2.055006 0
M  V30 8 C -0.222072 3.193471 1.892542 0
M  V30 9 C 0.346056 3.379776 0.489035 0
M  V30 10 C -0.792951 3.175322 -0.491835 0
M  V30 11 C -0.244691 3.198491 -1.891999 0
M  V30 12 O 0.710559 2.225063 -2.179295 0
M  V30 13 C 0.575208 0.861823 -2.162777 0
M  V30 14 C 1.835829 0.345835 -2.513967 0
M  V30 15 C 2.060131 -1.038437 -2.596380 0
M  V30 16 C 1.035871 -1.923330 -2.331132 0
M  V30 17 C 1.197457 -3.374871 -2.396568 0
M  V30 18 N 2.363889 -3.988006 -2.720747 0
M  V30 19 C 2.185177 -5.327596 -2.691733 0
M  V30 20 C 2.960557 -6.455448 -2.917289 0
M  V30 21 C 2.466823 -7.736649 -2.801966 0
M  V30 22 C 3.284235 -8.909306 -3.039082 0
M  V30 23 N 2.744953 -10.201892 -2.912226 0
M  V30 24 O 4.486476 -8.862399 -3.362512 0
M  V30 25 C 1.148467 -7.877106 -2.447617 0
M  V30 26 C 0.325760 -6.795216 -2.209920 0
M  V30 27 C 0.856154 -5.525736 -2.335283 0
M  V30 28 N 0.257937 -4.321963 -2.156213 0
M  V30 29 C -0.200198 -1.415662 -1.986992 0
M  V30 30 C -0.418009 -0.058643 -1.906970 0
M  V30 31 C -1.721517 4.352859 -0.276869 0
M  V30 32 C -2.087759 4.536006 1.166191 0
M  V30 33 C -1.542748 0.851665 3.987030 0
M  V30 34 C -1.312314 0.267595 5.230294 0
M  V30 35 H -1.189639 0.992048 8.392457 0
M  V30 36 H -0.742806 -0.539640 7.580621 0
M  V30 37 H -2.476891 -0.251974 8.088753 0
M  V30 38 H -2.949287 2.482879 7.123660 0
M  V30 39 H -3.358883 3.519080 4.925998 0
M  V30 40 H -2.586129 1.784697 1.765908 0
M  V30 41 H -3.515529 3.115383 2.441955 0
M  V30 42 H 0.401396 3.888744 2.527832 0
M  V30 43 H 0.065154 2.191410 2.199068 0
M  V30 44 H 0.764543 4.395169 0.344235 0
M  V30 45 H 1.107339 2.627891 0.250667 0
M  V30 46 H -1.340335 2.285642 -0.222742 0
M  V30 47 H -1.089469 3.188340 -2.631036 0
M  V30 48 H 0.245739 4.186307 -2.066348 0
M  V30 49 H 2.777435 0.848102 -2.762698 0
M  V30 50 H 2.985344 -1.530692 -2.855928 0
M  V30 51 H 3.984767 -6.316124 -3.192199 0
M  V30 52 H 2.290365 -10.317499 -1.959702 0
M  V30 53 H 2.300898 -10.335187 -1.999469 0
M  V30 54 H 0.764039 -8.888165 -2.357938 0
M  V30 55 H -0.712249 -6.951750 -1.931553 0
M  V30 56 H -0.710096 -4.081098 -1.890882 0
M  V30 57 H -1.073263 -2.005651 -1.758632 0
M  V30 58 H -1.331087 0.458123 -1.659974 0
M  V30 59 H -2.585058 4.277086 -0.964036 0
M  V30 60 H -1.156696 5.257507 -0.583570 0
M  V30 61 H -3.207572 4.444042 1.206781 0
M  V30 62 H -1.857813 5.547622 1.560034 0
M  V30 63 H -1.115966 0.335435 3.148091 0
M  V30 64 H -0.736747 -0.646720 5.316326 0
M  V30 END ATOM
M  V30 BEGIN BOND
M  V30 1 1 1 2
M  V30 2 2 2 3
M  V30 3 1 3 4
M  V30 4 2 4 5
M  V30 5 1 5 6
M  V30 6 1 6 7
M  V30 7 1 7 8
M  V30 8 1 8 9
M  V30 9 1 9 10
M  V30 10 1 10 11
M  V30 11 1 11 12
M  V30 12 1 12 13
M  V30 13 2 13 14
M  V30 14 1 14 15
M  V30 15 2 15 16
M  V30 16 1 16 17
M  V30 17 2 17 18
M  V30 18 1 18 19
M  V30 19 2 19 20
M  V30 20 1 20 21
M  V30 21 1 21 22
M  V30 22 1 22 23
M  V30 23 2 22 24
M  V30 24 2 21 25
M  V30 25 1 25 26
M  V30 26 2 26 27
M  V30 27 1 27 28
M  V30 28 1 16 29
M  V30 29 2 29 30
M  V30 30 1 10 31
M  V30 31 1 31 32
M  V30 32 1 5 33
M  V30 33 2 33 34
M  V30 34 1 34 2
M  V30 35 1 32 7
M  V30 36 1 30 13
M  V30 37 1 28 17
M  V30 38 1 27 19
M  V30 39 1 1 35
M  V30 40 1 1 36
M  V30 41 1 1 37
M  V30 42 1 3 38
M  V30 43 1 4 39
M  V30 44 1 6 40
M  V30 45 1 6 41
M  V30 46 1 8 42
M  V30 47 1 8 43
M  V30 48 1 9 44
M  V30 49 1 9 45
M  V30 50 1 10 46
M  V30 51 1 11 47
M  V30 52 1 11 48
M  V30 53 1 14 49
M  V30 54 1 15 50
M  V30 55 1 20 51
M  V30 56 1 23 52
M  V30 57 1 23 53
M  V30 58 1 25 54
M  V30 59 1 26 55
M  V30 60 1 28 56
M  V30 61 1 29 57
M  V30 62 1 30 58
M  V30 63 1 31 59
M  V30 64 1 31 60
M  V30 65 1 32 61
M  V30 66 1 32 62
M  V30 67 1 33 63
M  V30 68 1 34 64
M  V30 END BOND
M  V30 END CTAB
M  END
>  <Dataset>  (186) 
ChEMBL_Kinases

>  <Ligand_Instance>  (186) 
nan

>  <PDB_ID>  (186) 
nan

>  <Standardized_SMILES>  (186) 
Cc1ccc(CN2CCC(COc3ccc(-c4nc5cc(C(N)=O)ccc5[nH]4)cc3)CC2)cc1

>  <Name>  (186) 
nan

>  <Pocket>  (186) 
nan

>  <ATP_Site>  (186) 
nan

>  <Peripheral>  (186) 
nan

>  <Num_H_Atoms_ProtBoundConf>  (186) 
nan

>  <Num_Resolved_Atoms>  (186) 
nan

>  <Num_Not_Resolved_Atoms>  (186) 
nan

$$$$
CHEMBL3984529
     RDKit          3D

  0  0  0  0  0  0  0  0  0  0999 V3000
M  V30 BEGIN CTAB
M  V30 COUNTS 40 42 0 0 0
M  V30 BEGIN ATOM
M  V30 1 C 0.940263 -6.222663 1.775936 0
M  V30 2 C 1.518507 -5.145459 0.860825 0
M  V30 3 C 1.352739 -3.848395 1.603008 0
M  V30 4 C 2.361542 -3.395626 2.458145 0
M  V30 5 C 2.131722 -2.192858 3.102100 0
M  V30 6 C 0.982813 -1.446797 2.939090 0
M  V30 7 C -0.012835 -1.911033 2.083917 0
M  V30 8 N -1.245024 -1.252289 1.825946 0
M  V30 9 C -1.332252 -0.348620 0.913688 0
M  V30 10 S -0.220764 0.431801 -0.286846 0
M  V30 11 C -1.177516 1.971268 -0.330463 0
M  V30 12 C -0.734840 3.162518 -0.616555 0
M  V30 13 C 0.655295 3.433950 -0.956886 0
M  V30 14 C 1.134353 4.626816 -0.454497 0
M  V30 15 C 2.446597 5.044517 -0.685645 0
M  V30 16 N 3.255830 4.253835 -1.419898 0
M  V30 17 C 2.802795 3.082847 -1.918978 0
M  V30 18 C 1.496396 2.638436 -1.704612 0
M  V30 19 C -2.516747 1.524629 0.030364 0
M  V30 20 O -3.491379 2.295882 -0.287745 0
M  V30 21 N -2.599676 0.288742 0.693266 0
M  V30 22 C -3.920492 -0.238390 1.095202 0
M  V30 23 C 0.204269 -3.123583 1.425689 0
M  V30 24 H 0.966535 -5.880694 2.848316 0
M  V30 25 H 1.555112 -7.143731 1.728496 0
M  V30 26 H -0.135109 -6.430068 1.501732 0
M  V30 27 H 0.965277 -5.035682 -0.079594 0
M  V30 28 H 2.600029 -5.366125 0.716526 0
M  V30 29 H 3.276180 -3.963035 2.604975 0
M  V30 30 H 2.904639 -1.804101 3.782122 0
M  V30 31 H 0.797530 -0.517480 3.431513 0
M  V30 32 H -1.464369 3.981778 -0.592269 0
M  V30 33 H 0.594875 5.353718 0.147895 0
M  V30 34 H 2.909717 5.943987 -0.341356 0
M  V30 35 H 3.403091 2.398603 -2.520149 0
M  V30 36 H 1.076471 1.727336 -2.069763 0
M  V30 37 H -3.863461 -1.349301 1.114233 0
M  V30 38 H -4.709238 0.033139 0.385970 0
M  V30 39 H -4.157096 0.087094 2.149249 0
M  V30 40 H -0.548299 -3.513411 0.752883 0
M  V30 END ATOM
M  V30 BEGIN BOND
M  V30 1 1 1 2
M  V30 2 1 2 3
M  V30 3 2 3 4
M  V30 4 1 4 5
M  V30 5 2 5 6
M  V30 6 1 6 7
M  V30 7 1 7 8
M  V30 8 2 8 9
M  V30 9 1 9 10
M  V30 10 1 10 11
M  V30 11 2 11 12
M  V30 12 1 12 13
M  V30 13 2 13 14
M  V30 14 1 14 15
M  V30 15 2 15 16
M  V30 16 1 16 17
M  V30 17 2 17 18
M  V30 18 1 11 19
M  V30 19 2 19 20
M  V30 20 1 19 21
M  V30 21 1 21 22
M  V30 22 2 7 23
M  V30 23 1 23 3
M  V30 24 1 21 9
M  V30 25 1 18 13
M  V30 26 1 1 24
M  V30 27 1 1 25
M  V30 28 1 1 26
M  V30 29 1 2 27
M  V30 30 1 2 28
M  V30 31 1 4 29
M  V30 32 1 5 30
M  V30 33 1 6 31
M  V30 34 1 12 32
M  V30 35 1 14 33
M  V30 36 1 15 34
M  V30 37 1 17 35
M  V30 38 1 18 36
M  V30 39 1 22 37
M  V30 40 1 22 38
M  V30 41 1 22 39
M  V30 42 1 23 40
M  V30 END BOND
M  V30 END CTAB
M  END
>  <Dataset>  (187) 
ChEMBL_Kinases

>  <Ligand_Instance>  (187) 
nan

>  <PDB_ID>  (187) 
nan

>  <Standardized_SMILES>  (187) 
CCc1cccc(/N=C2\S/C(=C\c3ccncc3)C(=O)N2C)c1

>  <Name>  (187) 
nan

>  <Pocket>  (187) 
nan

>  <ATP_Site>  (187) 
nan

>  <Peripheral>  (187) 
nan

>  <Num_H_Atoms_ProtBoundConf>  (187) 
nan

>  <Num_Resolved_Atoms>  (187) 
nan

>  <Num_Not_Resolved_Atoms>  (187) 
nan

$$$$
CHEMBL3984494
     RDKit          3D

  0  0  0  0  0  0  0  0  0  0999 V3000
M  V30 BEGIN CTAB
M  V30 COUNTS 44 47 0 0 0
M  V30 BEGIN ATOM
M  V30 1 N 0.134800 -5.223153 0.257995 0
M  V30 2 C 1.017642 -4.618495 1.211371 0
M  V30 3 N 1.496017 -5.149808 2.375395 0
M  V30 4 N 2.274966 -4.246359 2.940545 0
M  V30 5 C 2.333424 -3.140865 2.203321 0
M  V30 6 C 2.976992 -1.934352 2.326990 0
M  V30 7 C 2.889547 -0.905684 1.415101 0
M  V30 8 C 2.103688 -1.089107 0.300011 0
M  V30 9 C 1.750577 -0.242132 -0.841133 0
M  V30 10 O 2.023450 -0.200489 -2.071248 0
M  V30 11 N 0.851440 0.838622 -0.510932 0
M  V30 12 C 0.467287 1.676504 -1.625463 0
M  V30 13 C 0.496784 3.157981 -1.251606 0
M  V30 14 C 1.198764 3.263089 0.064894 0
M  V30 15 C 0.286755 2.574587 1.092478 0
M  V30 16 C 0.372075 1.089454 0.831437 0 CFG=1
M  V30 17 C -0.906458 0.389285 1.008837 0
M  V30 18 C -1.513300 -0.607618 0.282327 0
M  V30 19 C -2.713428 -1.174987 0.650961 0
M  V30 20 C -3.338184 -0.728058 1.798878 0
M  V30 21 F -4.507714 -1.343548 2.073641 0
M  V30 22 C -2.752688 0.265706 2.541446 0
M  V30 23 C -1.543550 0.837529 2.169234 0
M  V30 24 C 1.427542 -2.305486 0.131042 0
M  V30 25 C 1.535329 -3.336451 1.073658 0
M  V30 26 H -0.840491 -5.561322 0.374439 0
M  V30 27 H 0.337788 -5.426674 -0.744006 0
M  V30 28 H 2.767309 -4.404877 3.840285 0
M  V30 29 H 3.620841 -1.709289 3.184651 0
M  V30 30 H 3.334999 0.059775 1.398300 0
M  V30 31 H -0.581080 1.413846 -1.920125 0
M  V30 32 H 1.081328 1.500574 -2.539821 0
M  V30 33 H 1.048656 3.740594 -2.032718 0
M  V30 34 H -0.516448 3.565799 -1.144591 0
M  V30 35 H 1.357665 4.308663 0.346842 0
M  V30 36 H 2.171126 2.727910 0.015370 0
M  V30 37 H 0.722519 2.866671 2.070270 0
M  V30 38 H -0.693697 3.022039 0.960631 0
M  V30 39 H 1.047000 0.689743 1.626253 0
M  V30 40 H -0.952625 -0.877914 -0.585370 0
M  V30 41 H -3.101762 -1.962776 -0.012450 0
M  V30 42 H -3.320440 0.542132 3.414584 0
M  V30 43 H -1.221632 1.597237 2.855273 0
M  V30 44 H 0.775070 -2.609114 -0.679411 0
M  V30 END ATOM
M  V30 BEGIN BOND
M  V30 1 1 1 2
M  V30 2 2 2 3
M  V30 3 1 3 4
M  V30 4 1 4 5
M  V30 5 2 5 6
M  V30 6 1 6 7
M  V30 7 2 7 8
M  V30 8 1 8 9
M  V30 9 2 9 10
M  V30 10 1 9 11
M  V30 11 1 11 12
M  V30 12 1 12 13
M  V30 13 1 13 14
M  V30 14 1 14 15
M  V30 15 1 15 16
M  V30 16 1 16 17
M  V30 17 2 17 18
M  V30 18 1 18 19
M  V30 19 2 19 20
M  V30 20 1 20 21
M  V30 21 1 20 22
M  V30 22 2 22 23
M  V30 23 1 8 24
M  V30 24 2 24 25
M  V30 25 1 25 2
M  V30 26 1 25 5
M  V30 27 1 16 11
M  V30 28 1 23 17
M  V30 29 1 1 26
M  V30 30 1 1 27
M  V30 31 1 4 28
M  V30 32 1 6 29
M  V30 33 1 7 30
M  V30 34 1 12 31
M  V30 35 1 12 32
M  V30 36 1 13 33
M  V30 37 1 13 34
M  V30 38 1 14 35
M  V30 39 1 14 36
M  V30 40 1 15 37
M  V30 41 1 15 38
M  V30 42 1 16 39 CFG=1
M  V30 43 1 18 40
M  V30 44 1 19 41
M  V30 45 1 22 42
M  V30 46 1 23 43
M  V30 47 1 24 44
M  V30 END BOND
M  V30 END CTAB
M  END
>  <Dataset>  (188) 
ChEMBL_Kinases

>  <Ligand_Instance>  (188) 
nan

>  <PDB_ID>  (188) 
nan

>  <Standardized_SMILES>  (188) 
Nc1n[nH]c2ccc(C(=O)N3CCCC[C@H]3c3ccc(F)cc3)cc12

>  <Name>  (188) 
nan

>  <Pocket>  (188) 
nan

>  <ATP_Site>  (188) 
nan

>  <Peripheral>  (188) 
nan

>  <Num_H_Atoms_ProtBoundConf>  (188) 
nan

>  <Num_Resolved_Atoms>  (188) 
nan

>  <Num_Not_Resolved_Atoms>  (188) 
nan

$$$$
CHEMBL3984254
     RDKit          3D

  0  0  0  0  0  0  0  0  0  0999 V3000
M  V30 BEGIN CTAB
M  V30 COUNTS 40 42 0 0 0
M  V30 BEGIN ATOM
M  V30 1 C 2.243076 -5.465667 3.361195 0
M  V30 2 C 2.432226 -4.016763 3.018064 0
M  V30 3 C 1.401023 -3.494562 2.084561 0
M  V30 4 C 1.539299 -3.528731 0.711871 0
M  V30 5 C 0.515204 -3.010345 -0.085295 0
M  V30 6 C -0.607665 -2.477808 0.513575 0
M  V30 7 N -1.716873 -1.916113 -0.222407 0
M  V30 8 C -1.745300 -0.632056 -0.231272 0
M  V30 9 S -0.617936 0.566965 0.531248 0
M  V30 10 C -1.111130 1.928481 -0.562384 0
M  V30 11 C -0.401939 2.998205 -0.801408 0
M  V30 12 C 0.906556 3.272163 -0.224592 0
M  V30 13 C 1.131909 4.620944 0.085491 0
M  V30 14 C 2.287643 5.105478 0.632407 0
M  V30 15 N 3.275329 4.202712 0.886215 0
M  V30 16 C 3.109972 2.887557 0.606149 0
M  V30 17 C 1.919886 2.416600 0.047565 0
M  V30 18 C -2.416370 1.542538 -1.072507 0
M  V30 19 O -3.157756 2.392029 -1.623788 0
M  V30 20 N -2.733039 0.172190 -0.884660 0
M  V30 21 C -4.010052 -0.408674 -1.336226 0
M  V30 22 C -0.793363 -2.420540 1.881208 0
M  V30 23 C 0.258630 -2.951419 2.640788 0
M  V30 24 H 2.200528 -5.646728 4.463041 0
M  V30 25 H 3.134293 -6.036109 3.011537 0
M  V30 26 H 1.328564 -5.903276 2.933121 0
M  V30 27 H 3.461621 -3.838164 2.611234 0
M  V30 28 H 2.397872 -3.387156 3.941461 0
M  V30 29 H 2.423956 -3.948221 0.268136 0
M  V30 30 H 0.573037 -3.012460 -1.165908 0
M  V30 31 H -0.857540 3.716178 -1.489731 0
M  V30 32 H 0.378185 5.384263 -0.096834 0
M  V30 33 H 2.449862 6.137591 0.866182 0
M  V30 34 H 3.868928 2.155843 0.794559 0
M  V30 35 H 1.716963 1.384345 -0.201521 0
M  V30 36 H -4.790106 0.383355 -1.357264 0
M  V30 37 H -4.370953 -1.163527 -0.608982 0
M  V30 38 H -3.908747 -0.924092 -2.311398 0
M  V30 39 H -1.664466 -2.007584 2.360645 0
M  V30 40 H 0.152152 -2.925889 3.731748 0
M  V30 END ATOM
M  V30 BEGIN BOND
M  V30 1 1 1 2
M  V30 2 1 2 3
M  V30 3 2 3 4
M  V30 4 1 4 5
M  V30 5 2 5 6
M  V30 6 1 6 7
M  V30 7 2 7 8
M  V30 8 1 8 9
M  V30 9 1 9 10
M  V30 10 2 10 11
M  V30 11 1 11 12
M  V30 12 2 12 13
M  V30 13 1 13 14
M  V30 14 2 14 15
M  V30 15 1 15 16
M  V30 16 2 16 17
M  V30 17 1 10 18
M  V30 18 2 18 19
M  V30 19 1 18 20
M  V30 20 1 20 21
M  V30 21 1 6 22
M  V30 22 2 22 23
M  V30 23 1 23 3
M  V30 24 1 20 8
M  V30 25 1 17 12
M  V30 26 1 1 24
M  V30 27 1 1 25
M  V30 28 1 1 26
M  V30 29 1 2 27
M  V30 30 1 2 28
M  V30 31 1 4 29
M  V30 32 1 5 30
M  V30 33 1 11 31
M  V30 34 1 13 32
M  V30 35 1 14 33
M  V30 36 1 16 34
M  V30 37 1 17 35
M  V30 38 1 21 36
M  V30 39 1 21 37
M  V30 40 1 21 38
M  V30 41 1 22 39
M  V30 42 1 23 40
M  V30 END BOND
M  V30 END CTAB
M  END
>  <Dataset>  (189) 
ChEMBL_Kinases

>  <Ligand_Instance>  (189) 
nan

>  <PDB_ID>  (189) 
nan

>  <Standardized_SMILES>  (189) 
CCc1ccc(/N=C2\S/C(=C\c3ccncc3)C(=O)N2C)cc1

>  <Name>  (189) 
nan

>  <Pocket>  (189) 
nan

>  <ATP_Site>  (189) 
nan

>  <Peripheral>  (189) 
nan

>  <Num_H_Atoms_ProtBoundConf>  (189) 
nan

>  <Num_Resolved_Atoms>  (189) 
nan

>  <Num_Not_Resolved_Atoms>  (189) 
nan

$$$$
CHEMBL3984244
     RDKit          3D

  0  0  0  0  0  0  0  0  0  0999 V3000
M  V30 BEGIN CTAB
M  V30 COUNTS 61 64 0 0 0
M  V30 BEGIN ATOM
M  V30 1 C -0.606083 -3.166157 4.365785 0
M  V30 2 C 0.131147 -2.005276 3.804588 0
M  V30 3 N 0.882816 -1.157203 4.542439 0
M  V30 4 C 1.531576 -0.115458 3.987630 0
M  V30 5 C 1.434498 0.105838 2.619791 0
M  V30 6 N 2.175395 1.243488 2.186806 0
M  V30 7 C 3.521245 1.278040 1.756887 0
M  V30 8 O 4.256304 0.260348 1.703972 0
M  V30 9 C 4.152333 2.526048 1.339142 0
M  V30 10 C 5.469762 2.517166 0.925762 0
M  V30 11 C 6.162612 3.659778 0.507114 0
M  V30 12 C 5.472940 4.876875 0.510834 0
M  V30 13 C 4.156137 4.913729 0.919119 0
M  V30 14 C 3.410087 6.222909 0.924444 0
M  V30 15 F 2.100899 5.974819 1.294618 0
M  V30 16 F 3.947569 7.059600 1.893355 0
M  V30 17 F 3.394664 6.786320 -0.320720 0
M  V30 18 C 3.540357 3.763353 1.314858 0
M  V30 19 C 0.670973 -0.744191 1.826014 0
M  V30 20 C 0.015498 -1.811904 2.444627 0
M  V30 21 C -0.741292 -2.616959 1.492611 0
M  V30 22 C -0.739870 -3.991338 1.423885 0
M  V30 23 N -1.444926 -4.703912 0.542220 0
M  V30 24 C -2.234922 -4.127363 -0.375313 0
M  V30 25 O -3.046817 -4.615284 -1.373197 0
M  V30 26 C -3.268943 -5.944792 -1.708571 0
M  V30 27 C -2.052013 -6.715859 -2.128328 0
M  V30 28 O -1.093445 -6.752287 -1.121154 0
M  V30 29 C -2.290400 -2.730581 -0.370363 0
M  V30 30 N -3.067253 -1.899995 -1.259150 0
M  V30 31 C -4.494651 -2.071417 -1.255961 0
M  V30 32 C -5.103200 -0.887281 -1.987080 0
M  V30 33 O -4.296974 -0.603167 -3.090436 0
M  V30 34 C -3.133746 0.043378 -2.638454 0
M  V30 35 C -2.225297 -1.003279 -2.028087 0
M  V30 36 C -1.554285 -1.976272 0.550715 0
M  V30 37 H 0.076706 -4.057166 4.455007 0
M  V30 38 H -1.476550 -3.405865 3.755990 0
M  V30 39 H -1.022881 -2.917777 5.385329 0
M  V30 40 H 2.106026 0.498990 4.680791 0
M  V30 41 H 1.575414 2.097980 2.225812 0
M  V30 42 H 6.077828 1.615107 0.892413 0
M  V30 43 H 7.176851 3.654848 0.188515 0
M  V30 44 H 5.907073 5.826884 0.207470 0
M  V30 45 H 2.507513 3.810673 1.631864 0
M  V30 46 H 0.654818 -0.497690 0.791562 0
M  V30 47 H -0.136353 -4.524477 2.117286 0
M  V30 48 H -4.029707 -5.966699 -2.513018 0
M  V30 49 H -3.747971 -6.442633 -0.832863 0
M  V30 50 H -2.337703 -7.742650 -2.406910 0
M  V30 51 H -1.562392 -6.274170 -3.016691 0
M  V30 52 H -0.201222 -6.917185 -1.484247 0
M  V30 53 H -4.905690 -2.179643 -0.236472 0
M  V30 54 H -4.695119 -2.976250 -1.899445 0
M  V30 55 H -5.085890 -0.008581 -1.310762 0
M  V30 56 H -6.113448 -1.120484 -2.350027 0
M  V30 57 H -2.620151 0.535258 -3.490235 0
M  V30 58 H -3.415127 0.800702 -1.892108 0
M  V30 59 H -1.428506 -0.539767 -1.428507 0
M  V30 60 H -1.795574 -1.622557 -2.844556 0
M  V30 61 H -1.568454 -0.899179 0.588830 0
M  V30 END ATOM
M  V30 BEGIN BOND
M  V30 1 1 1 2
M  V30 2 2 2 3
M  V30 3 1 3 4
M  V30 4 2 4 5
M  V30 5 1 5 6
M  V30 6 1 6 7
M  V30 7 2 7 8
M  V30 8 1 7 9
M  V30 9 2 9 10
M  V30 10 1 10 11
M  V30 11 2 11 12
M  V30 12 1 12 13
M  V30 13 1 13 14
M  V30 14 1 14 15
M  V30 15 1 14 16
M  V30 16 1 14 17
M  V30 17 2 13 18
M  V30 18 1 5 19
M  V30 19 2 19 20
M  V30 20 1 20 21
M  V30 21 2 21 22
M  V30 22 1 22 23
M  V30 23 2 23 24
M  V30 24 1 24 25
M  V30 25 1 25 26
M  V30 26 1 26 27
M  V30 27 1 27 28
M  V30 28 1 24 29
M  V30 29 1 29 30
M  V30 30 1 30 31
M  V30 31 1 31 32
M  V30 32 1 32 33
M  V30 33 1 33 34
M  V30 34 1 34 35
M  V30 35 2 29 36
M  V30 36 1 20 2
M  V30 37 1 36 21
M  V30 38 1 18 9
M  V30 39 1 35 30
M  V30 40 1 1 37
M  V30 41 1 1 38
M  V30 42 1 1 39
M  V30 43 1 4 40
M  V30 44 1 6 41
M  V30 45 1 10 42
M  V30 46 1 11 43
M  V30 47 1 12 44
M  V30 48 1 18 45
M  V30 49 1 19 46
M  V30 50 1 22 47
M  V30 51 1 26 48
M  V30 52 1 26 49
M  V30 53 1 27 50
M  V30 54 1 27 51
M  V30 55 1 28 52
M  V30 56 1 31 53
M  V30 57 1 31 54
M  V30 58 1 32 55
M  V30 59 1 32 56
M  V30 60 1 34 57
M  V30 61 1 34 58
M  V30 62 1 35 59
M  V30 63 1 35 60
M  V30 64 1 36 61
M  V30 END BOND
M  V30 END CTAB
M  END
>  <Dataset>  (190) 
ChEMBL_Kinases

>  <Ligand_Instance>  (190) 
nan

>  <PDB_ID>  (190) 
nan

>  <Standardized_SMILES>  (190) 
Cc1ncc(NC(=O)c2cccc(C(F)(F)F)c2)cc1-c1cnc(OCCO)c(N2CCOCC2)c1

>  <Name>  (190) 
nan

>  <Pocket>  (190) 
nan

>  <ATP_Site>  (190) 
nan

>  <Peripheral>  (190) 
nan

>  <Num_H_Atoms_ProtBoundConf>  (190) 
nan

>  <Num_Resolved_Atoms>  (190) 
nan

>  <Num_Not_Resolved_Atoms>  (190) 
nan

$$$$
CHEMBL3984011
     RDKit          3D

  0  0  0  0  0  0  0  0  0  0999 V3000
M  V30 BEGIN CTAB
M  V30 COUNTS 51 55 0 0 0
M  V30 BEGIN ATOM
M  V30 1 C 0.939630 -7.348902 3.609146 0
M  V30 2 O 1.832023 -6.480486 2.900286 0
M  V30 3 C 1.348736 -5.430304 2.132492 0
M  V30 4 O 0.100710 -5.297499 2.103422 0
M  V30 5 N 2.201950 -4.544155 1.412415 0
M  V30 6 C 1.674126 -3.485190 0.640688 0
M  V30 7 N 1.447297 -2.247122 1.127531 0
M  V30 8 C 0.943675 -1.455369 0.162739 0
M  V30 9 C 0.537184 -0.116958 0.115477 0
M  V30 10 C 0.048628 0.388067 -1.095451 0
M  V30 11 C -0.344659 1.834987 -0.982765 0
M  V30 12 O -0.882806 2.212358 -2.191544 0
M  V30 13 C 0.862845 2.653694 -0.637263 0
M  V30 14 C 2.013439 2.762578 -1.415873 0
M  V30 15 C 3.053614 3.565491 -0.946793 0
M  V30 16 C 2.955876 4.247041 0.269565 0
M  V30 17 C 1.783927 4.103588 1.008257 0
M  V30 18 C 0.754207 3.321932 0.565673 0
M  V30 19 C -0.571219 2.954623 1.051376 0
M  V30 20 O -1.024328 3.387204 2.147998 0
M  V30 21 N -1.242307 2.069459 0.131385 0
M  V30 22 C -2.572765 1.579519 0.393270 0
M  V30 23 C -2.622633 0.315049 1.141697 0
M  V30 24 C -2.660417 0.345225 2.535217 0
M  V30 25 C -2.710659 -0.826672 3.289080 0
M  V30 26 C -2.723653 -2.047277 2.652879 0
M  V30 27 C -2.684839 -2.008255 1.284467 0
M  V30 28 N -2.636189 -0.890074 0.539247 0
M  V30 29 C -0.040546 -0.393366 -2.229768 0
M  V30 30 C 0.361088 -1.713304 -2.180309 0
M  V30 31 C 0.845040 -2.227575 -0.995495 0
M  V30 32 N 1.299462 -3.448156 -0.654135 0
M  V30 33 H 0.106044 -7.616026 2.926430 0
M  V30 34 H 1.447810 -8.277622 3.914414 0
M  V30 35 H 0.564814 -6.844090 4.515178 0
M  V30 36 H 3.238068 -4.722860 1.488341 0
M  V30 37 H 0.633933 0.423046 1.024703 0
M  V30 38 H -1.708171 2.758390 -2.045312 0
M  V30 39 H 2.173900 2.269227 -2.371178 0
M  V30 40 H 3.992890 3.705724 -1.496948 0
M  V30 41 H 3.720642 4.875178 0.677335 0
M  V30 42 H 1.636212 4.603121 1.963468 0
M  V30 43 H -3.156229 2.359631 0.918274 0
M  V30 44 H -3.065800 1.475886 -0.602208 0
M  V30 45 H -2.651917 1.274569 3.071860 0
M  V30 46 H -2.739003 -0.765752 4.373987 0
M  V30 47 H -2.761767 -2.979558 3.185274 0
M  V30 48 H -2.693790 -2.950767 0.753196 0
M  V30 49 H -0.432619 0.104260 -3.104841 0
M  V30 50 H 0.284153 -2.304804 -3.072360 0
M  V30 51 H 1.372093 -4.294410 -1.279864 0
M  V30 END ATOM
M  V30 BEGIN BOND
M  V30 1 1 1 2
M  V30 2 1 2 3
M  V30 3 2 3 4
M  V30 4 1 3 5
M  V30 5 1 5 6
M  V30 6 2 6 7
M  V30 7 1 7 8
M  V30 8 2 8 9
M  V30 9 1 9 10
M  V30 10 1 10 11
M  V30 11 1 11 12
M  V30 12 1 11 13
M  V30 13 2 13 14
M  V30 14 1 14 15
M  V30 15 2 15 16
M  V30 16 1 16 17
M  V30 17 2 17 18
M  V30 18 1 18 19
M  V30 19 2 19 20
M  V30 20 1 19 21
M  V30 21 1 21 22
M  V30 22 1 22 23
M  V30 23 2 23 24
M  V30 24 1 24 25
M  V30 25 2 25 26
M  V30 26 1 26 27
M  V30 27 2 27 28
M  V30 28 2 10 29
M  V30 29 1 29 30
M  V30 30 2 30 31
M  V30 31 1 31 32
M  V30 32 1 32 6
M  V30 33 1 31 8
M  V30 34 1 21 11
M  V30 35 1 28 23
M  V30 36 1 18 13
M  V30 37 1 1 33
M  V30 38 1 1 34
M  V30 39 1 1 35
M  V30 40 1 5 36
M  V30 41 1 9 37
M  V30 42 1 12 38
M  V30 43 1 14 39
M  V30 44 1 15 40
M  V30 45 1 16 41
M  V30 46 1 17 42
M  V30 47 1 22 43
M  V30 48 1 22 44
M  V30 49 1 24 45
M  V30 50 1 25 46
M  V30 51 1 26 47
M  V30 52 1 27 48
M  V30 53 1 29 49
M  V30 54 1 30 50
M  V30 55 1 32 51
M  V30 END BOND
M  V30 END CTAB
M  END
>  <Dataset>  (191) 
ChEMBL_Kinases

>  <Ligand_Instance>  (191) 
nan

>  <PDB_ID>  (191) 
nan

>  <Standardized_SMILES>  (191) 
COC(=O)Nc1nc2cc(C3(O)c4ccccc4C(=O)N3Cc3ccccn3)ccc2[nH]1

>  <Name>  (191) 
nan

>  <Pocket>  (191) 
nan

>  <ATP_Site>  (191) 
nan

>  <Peripheral>  (191) 
nan

>  <Num_H_Atoms_ProtBoundConf>  (191) 
nan

>  <Num_Resolved_Atoms>  (191) 
nan

>  <Num_Not_Resolved_Atoms>  (191) 
nan

$$$$
CHEMBL3983794
     RDKit          3D

  0  0  0  0  0  0  0  0  0  0999 V3000
M  V30 BEGIN CTAB
M  V30 COUNTS 42 45 0 0 0
M  V30 BEGIN ATOM
M  V30 1 N 2.163964 -8.090628 0.204278 0
M  V30 2 S 3.280021 -7.009623 -0.589905 0
M  V30 3 O 3.990378 -7.713702 -1.679615 0
M  V30 4 O 4.283774 -6.592792 0.437209 0
M  V30 5 C 2.354836 -5.614575 -1.155283 0
M  V30 6 C 1.742980 -5.492743 -2.383835 0
M  V30 7 C 1.044369 -4.344651 -2.699294 0
M  V30 8 C 0.920042 -3.285542 -1.834573 0
M  V30 9 N 0.329641 -2.083406 -1.852945 0
M  V30 10 C 0.571043 -1.466607 -0.653104 0
M  V30 11 C 0.155930 -0.161392 -0.152253 0
M  V30 12 C 0.566456 0.288872 1.109646 0
M  V30 13 C 0.137177 1.550460 1.540571 0
M  V30 14 C -0.663492 2.320433 0.748321 0
M  V30 15 C -1.038247 3.608265 1.314182 0
M  V30 16 O -1.386000 4.441650 0.402895 0
M  V30 17 C -1.065884 4.046124 2.688544 0
M  V30 18 C -1.205589 3.284651 3.849780 0
M  V30 19 C -1.162456 3.921587 5.095653 0
M  V30 20 C -0.987299 5.280527 5.220468 0
M  V30 21 Cl -0.944640 6.019196 6.803620 0
M  V30 22 C -0.842827 6.094894 4.080506 0
M  V30 23 C -0.896862 5.389135 2.911312 0
M  V30 24 C -1.085050 1.910111 -0.495340 0
M  V30 25 C -0.667702 0.665183 -0.935555 0
M  V30 26 N 1.306214 -2.339684 0.040653 0
M  V30 27 C 1.554162 -3.473886 -0.628330 0
M  V30 28 C 2.275594 -4.570853 -0.206614 0
M  V30 29 H 1.494659 -7.608964 0.810593 0
M  V30 30 H 1.747399 -8.719795 -0.490212 0
M  V30 31 H 1.856642 -6.335123 -3.041814 0
M  V30 32 H 0.569616 -4.266053 -3.672940 0
M  V30 33 H -0.219541 -1.665162 -2.620332 0
M  V30 34 H 1.206584 -0.407925 1.665396 0
M  V30 35 H 0.561804 1.723231 2.520216 0
M  V30 36 H -1.353074 2.229980 3.730362 0
M  V30 37 H -1.281004 3.238097 5.945722 0
M  V30 38 H -0.709193 7.140459 4.200181 0
M  V30 39 H -0.777792 6.069397 2.050901 0
M  V30 40 H -1.717036 2.558664 -1.081107 0
M  V30 41 H -0.976898 0.296844 -1.914648 0
M  V30 42 H 2.732194 -4.627199 0.748406 0
M  V30 END ATOM
M  V30 BEGIN BOND
M  V30 1 1 1 2
M  V30 2 2 2 3
M  V30 3 2 2 4
M  V30 4 1 2 5
M  V30 5 2 5 6
M  V30 6 1 6 7
M  V30 7 2 7 8
M  V30 8 1 8 9
M  V30 9 1 9 10
M  V30 10 1 10 11
M  V30 11 2 11 12
M  V30 12 1 12 13
M  V30 13 2 13 14
M  V30 14 1 14 15
M  V30 15 2 15 16
M  V30 16 1 15 17
M  V30 17 2 17 18
M  V30 18 1 18 19
M  V30 19 2 19 20
M  V30 20 1 20 21
M  V30 21 1 20 22
M  V30 22 2 22 23
M  V30 23 1 14 24
M  V30 24 2 24 25
M  V30 25 2 10 26
M  V30 26 1 26 27
M  V30 27 2 27 28
M  V30 28 1 28 5
M  V30 29 1 27 8
M  V30 30 1 25 11
M  V30 31 1 23 17
M  V30 32 1 1 29
M  V30 33 1 1 30
M  V30 34 1 6 31
M  V30 35 1 7 32
M  V30 36 1 9 33
M  V30 37 1 12 34
M  V30 38 1 13 35
M  V30 39 1 18 36
M  V30 40 1 19 37
M  V30 41 1 22 38
M  V30 42 1 23 39
M  V30 43 1 24 40
M  V30 44 1 25 41
M  V30 45 1 28 42
M  V30 END BOND
M  V30 END CTAB
M  END
>  <Dataset>  (192) 
ChEMBL_Kinases

>  <Ligand_Instance>  (192) 
nan

>  <PDB_ID>  (192) 
nan

>  <Standardized_SMILES>  (192) 
NS(=O)(=O)c1ccc2[nH]c(-c3ccc(C(=O)c4ccc(Cl)cc4)cc3)nc2c1

>  <Name>  (192) 
nan

>  <Pocket>  (192) 
nan

>  <ATP_Site>  (192) 
nan

>  <Peripheral>  (192) 
nan

>  <Num_H_Atoms_ProtBoundConf>  (192) 
nan

>  <Num_Resolved_Atoms>  (192) 
nan

>  <Num_Not_Resolved_Atoms>  (192) 
nan

$$$$
CHEMBL397949
     RDKit          3D

  0  0  0  0  0  0  0  0  0  0999 V3000
M  V30 BEGIN CTAB
M  V30 COUNTS 47 50 0 0 0
M  V30 BEGIN ATOM
M  V30 1 C -0.820434 2.622518 5.369595 0
M  V30 2 C 0.446562 2.029998 4.869241 0
M  V30 3 O 1.539876 2.416893 5.397058 0
M  V30 4 C 0.414174 1.023845 3.791121 0
M  V30 5 C 1.632214 0.524125 3.386868 0
M  V30 6 C 1.773333 -0.421003 2.393728 0
M  V30 7 N 3.045728 -0.909321 2.019807 0
M  V30 8 C 3.379036 -1.874487 0.994722 0
M  V30 9 C 3.051117 -1.390614 -0.364286 0
M  V30 10 C 4.036134 -0.662709 -1.037625 0
M  V30 11 N 3.626121 -0.282250 -2.258891 0
M  V30 12 C 2.376927 -0.757604 -2.388743 0
M  V30 13 N 2.067032 -1.397628 -1.273994 0
M  V30 14 C 0.592921 -0.838005 1.824503 0
M  V30 15 C -0.656507 -0.376465 2.184521 0
M  V30 16 C -1.809230 -0.830713 1.578351 0
M  V30 17 N -1.727797 -1.792001 0.562537 0
M  V30 18 C -1.598329 -1.701809 -0.851214 0
M  V30 19 C -1.534578 -0.453070 -1.433189 0
M  V30 20 C -1.409432 -0.488914 -2.808480 0
M  V30 21 C -1.348857 -1.631667 -3.578900 0
M  V30 22 F -1.225380 -1.588892 -4.927282 0
M  V30 23 C -1.421606 -2.850610 -2.895348 0
M  V30 24 Cl -1.353136 -4.372814 -3.787068 0
M  V30 25 C -1.548524 -2.909661 -1.509884 0
M  V30 26 C -2.969024 -0.279881 2.043149 0
M  V30 27 C -4.213435 -0.718117 1.444054 0
M  V30 28 N -5.194927 -1.081312 0.966249 0
M  V30 29 C -3.065292 0.666064 3.041643 0
M  V30 30 N -1.911744 1.074299 3.598938 0
M  V30 31 C -0.737260 0.569387 3.184664 0
M  V30 32 H -1.498868 1.834180 5.806748 0
M  V30 33 H -1.387268 3.156995 4.605540 0
M  V30 34 H -0.614963 3.303767 6.226699 0
M  V30 35 H 2.557224 0.881889 3.866195 0
M  V30 36 H 3.883981 -0.528653 2.550730 0
M  V30 37 H 2.744922 -2.773567 1.197279 0
M  V30 38 H 4.412598 -2.223579 1.055407 0
M  V30 39 H 5.037124 -0.366244 -0.747774 0
M  V30 40 H 4.097206 0.262060 -3.011863 0
M  V30 41 H 1.687868 -0.673471 -3.221364 0
M  V30 42 H 0.591074 -1.567739 1.053998 0
M  V30 43 H -1.787605 -2.653274 1.113479 0
M  V30 44 H -1.577936 0.461135 -0.871376 0
M  V30 45 H -1.349703 0.429187 -3.377136 0
M  V30 46 H -1.602736 -3.848931 -1.003126 0
M  V30 47 H -4.038515 1.044392 3.342314 0
M  V30 END ATOM
M  V30 BEGIN BOND
M  V30 1 1 1 2
M  V30 2 2 2 3
M  V30 3 1 2 4
M  V30 4 2 4 5
M  V30 5 1 5 6
M  V30 6 1 6 7
M  V30 7 1 7 8
M  V30 8 1 8 9
M  V30 9 2 9 10
M  V30 10 1 10 11
M  V30 11 1 11 12
M  V30 12 2 12 13
M  V30 13 2 6 14
M  V30 14 1 14 15
M  V30 15 2 15 16
M  V30 16 1 16 17
M  V30 17 1 17 18
M  V30 18 2 18 19
M  V30 19 1 19 20
M  V30 20 2 20 21
M  V30 21 1 21 22
M  V30 22 1 21 23
M  V30 23 1 23 24
M  V30 24 2 23 25
M  V30 25 1 16 26
M  V30 26 1 26 27
M  V30 27 3 27 28
M  V30 28 2 26 29
M  V30 29 1 29 30
M  V30 30 2 30 31
M  V30 31 1 31 4
M  V30 32 1 13 9
M  V30 33 1 31 15
M  V30 34 1 25 18
M  V30 35 1 1 32
M  V30 36 1 1 33
M  V30 37 1 1 34
M  V30 38 1 5 35
M  V30 39 1 7 36
M  V30 40 1 8 37
M  V30 41 1 8 38
M  V30 42 1 10 39
M  V30 43 1 11 40
M  V30 44 1 12 41
M  V30 45 1 14 42
M  V30 46 1 17 43
M  V30 47 1 19 44
M  V30 48 1 20 45
M  V30 49 1 25 46
M  V30 50 1 29 47
M  V30 END BOND
M  V30 END CTAB
M  END
>  <Dataset>  (193) 
ChEMBL_Kinases

>  <Ligand_Instance>  (193) 
nan

>  <PDB_ID>  (193) 
nan

>  <Standardized_SMILES>  (193) 
CC(=O)c1cc(NCc2c[nH]cn2)cc2c(Nc3ccc(F)c(Cl)c3)c(C#N)cnc12

>  <Name>  (193) 
nan

>  <Pocket>  (193) 
nan

>  <ATP_Site>  (193) 
nan

>  <Peripheral>  (193) 
nan

>  <Num_H_Atoms_ProtBoundConf>  (193) 
nan

>  <Num_Resolved_Atoms>  (193) 
nan

>  <Num_Not_Resolved_Atoms>  (193) 
nan

$$$$
CHEMBL94444
     RDKit          3D

  0  0  0  0  0  0  0  0  0  0999 V3000
M  V30 BEGIN CTAB
M  V30 COUNTS 55 59 0 0 0
M  V30 BEGIN ATOM
M  V30 1 O -2.108265 -3.103303 2.158836 0
M  V30 2 C -1.802621 -2.030886 1.564076 0
M  V30 3 C -0.683178 -1.125450 1.339093 0
M  V30 4 C -0.595914 0.113906 1.948104 0
M  V30 5 C 0.511495 0.892347 1.656117 0
M  V30 6 C 0.512615 2.177284 2.347092 0
M  V30 7 C 1.263809 2.002947 3.521715 0
M  V30 8 C 1.476508 3.065725 4.420298 0
M  V30 9 C 0.940771 4.326882 4.158449 0
M  V30 10 C 0.214269 4.437605 2.990767 0
M  V30 11 C -0.013032 3.431817 2.099909 0
M  V30 12 Cl -0.898539 3.443550 0.614383 0
M  V30 13 C 1.483765 0.435158 0.787509 0
M  V30 14 C 1.401517 -0.805400 0.175340 0
M  V30 15 C 0.295905 -1.569667 0.473238 0
M  V30 16 N 2.455462 -1.197494 -0.723613 0
M  V30 17 C 2.222134 -2.501501 -1.251738 0
M  V30 18 C 1.564969 -2.970789 -2.348736 0
M  V30 19 Cl 0.881353 -1.678116 -3.293295 0
M  V30 20 C 1.511025 -4.323457 -2.582993 0
M  V30 21 C 2.088050 -5.275228 -1.769134 0
M  V30 22 C 2.760620 -4.780835 -0.643796 0
M  V30 23 C 2.828773 -3.427318 -0.386872 0
M  V30 24 Cl 3.738549 -3.069375 1.093019 0
M  V30 25 C 3.574351 -0.382442 -1.021323 0
M  V30 26 O 4.421160 -0.843661 -1.823379 0
M  V30 27 N 3.596901 0.869774 -0.366109 0
M  V30 28 C 2.621654 1.342134 0.562259 0
M  V30 29 N -3.015973 -1.613130 0.903012 0
M  V30 30 C -4.246558 -2.394514 1.008772 0
M  V30 31 C -4.900467 -2.383149 -0.356875 0
M  V30 32 N -3.835763 -2.326851 -1.355526 0
M  V30 33 C -3.308663 -0.972990 -1.356141 0
M  V30 34 C -3.233927 -0.420950 0.065043 0
M  V30 35 H -1.406779 0.376955 2.612165 0
M  V30 36 H 1.763862 1.113447 3.915927 0
M  V30 37 H 2.041109 2.999971 5.342637 0
M  V30 38 H 1.056727 5.189631 4.795905 0
M  V30 39 H -0.239087 5.383285 2.699230 0
M  V30 40 H 0.215538 -2.544320 0.000112 0
M  V30 41 H 0.961276 -4.577888 -3.484136 0
M  V30 42 H 1.990567 -6.311263 -2.031116 0
M  V30 43 H 3.202195 -5.560399 -0.030656 0
M  V30 44 H 4.398589 1.500594 -0.587595 0
M  V30 45 H 3.152731 1.455321 1.543135 0
M  V30 46 H 2.266272 2.333425 0.167714 0
M  V30 47 H -4.084600 -3.429877 1.312823 0
M  V30 48 H -4.938552 -1.852350 1.703204 0
M  V30 49 H -5.585734 -1.540655 -0.489993 0
M  V30 50 H -5.523232 -3.316461 -0.457248 0
M  V30 51 H -4.185053 -2.563629 -2.316309 0
M  V30 52 H -2.314437 -0.924982 -1.806445 0
M  V30 53 H -4.012423 -0.362798 -1.944264 0
M  V30 54 H -4.155904 0.108426 0.366295 0
M  V30 55 H -2.380736 0.240010 0.188363 0
M  V30 END ATOM
M  V30 BEGIN BOND
M  V30 1 2 1 2
M  V30 2 1 2 3
M  V30 3 2 3 4
M  V30 4 1 4 5
M  V30 5 1 5 6
M  V30 6 2 6 7
M  V30 7 1 7 8
M  V30 8 2 8 9
M  V30 9 1 9 10
M  V30 10 2 10 11
M  V30 11 1 11 12
M  V30 12 2 5 13
M  V30 13 1 13 14
M  V30 14 2 14 15
M  V30 15 1 14 16
M  V30 16 1 16 17
M  V30 17 2 17 18
M  V30 18 1 18 19
M  V30 19 1 18 20
M  V30 20 2 20 21
M  V30 21 1 21 22
M  V30 22 2 22 23
M  V30 23 1 23 24
M  V30 24 1 16 25
M  V30 25 2 25 26
M  V30 26 1 25 27
M  V30 27 1 27 28
M  V30 28 1 2 29
M  V30 29 1 29 30
M  V30 30 1 30 31
M  V30 31 1 31 32
M  V30 32 1 32 33
M  V30 33 1 33 34
M  V30 34 1 15 3
M  V30 35 1 23 17
M  V30 36 1 34 29
M  V30 37 1 11 6
M  V30 38 1 28 13
M  V30 39 1 4 35
M  V30 40 1 7 36
M  V30 41 1 8 37
M  V30 42 1 9 38
M  V30 43 1 10 39
M  V30 44 1 15 40
M  V30 45 1 20 41
M  V30 46 1 21 42
M  V30 47 1 22 43
M  V30 48 1 27 44
M  V30 49 1 28 45
M  V30 50 1 28 46
M  V30 51 1 30 47
M  V30 52 1 30 48
M  V30 53 1 31 49
M  V30 54 1 31 50
M  V30 55 1 32 51
M  V30 56 1 33 52
M  V30 57 1 33 53
M  V30 58 1 34 54
M  V30 59 1 34 55
M  V30 END BOND
M  V30 END CTAB
M  END
>  <Dataset>  (194) 
ChEMBL_Kinases

>  <Ligand_Instance>  (194) 
nan

>  <PDB_ID>  (194) 
nan

>  <Standardized_SMILES>  (194) 
O=C(c1cc(-c2ccccc2Cl)c2c(c1)N(c1c(Cl)cccc1Cl)C(=O)NC2)N1CCNCC1

>  <Name>  (194) 
nan

>  <Pocket>  (194) 
nan

>  <ATP_Site>  (194) 
nan

>  <Peripheral>  (194) 
nan

>  <Num_H_Atoms_ProtBoundConf>  (194) 
nan

>  <Num_Resolved_Atoms>  (194) 
nan

>  <Num_Not_Resolved_Atoms>  (194) 
nan

$$$$
CHEMBL3983526
     RDKit          3D

  0  0  0  0  0  0  0  0  0  0999 V3000
M  V30 BEGIN CTAB
M  V30 COUNTS 50 53 0 0 0
M  V30 BEGIN ATOM
M  V30 1 C -7.250313 0.565987 -1.164969 0
M  V30 2 C -6.742995 -0.830110 -0.990912 0
M  V30 3 C -7.623093 -1.889597 -0.998867 0
M  V30 4 C -7.173933 -3.183491 -0.839985 0
M  V30 5 C -5.812999 -3.459100 -0.666021 0
M  V30 6 C -5.003628 -2.349093 -0.670003 0
M  V30 7 C -5.382534 -1.044406 -0.822110 0
M  V30 8 C -4.425546 0.092704 -0.811661 0
M  V30 9 N -4.169975 0.612341 -2.112758 0
M  V30 10 S -3.073228 1.917595 -2.114013 0
M  V30 11 O -3.637169 2.956478 -1.159682 0
M  V30 12 O -2.964579 2.593369 -3.434984 0
M  V30 13 C -1.511879 1.462889 -1.502198 0
M  V30 14 C -1.031877 1.511280 -0.208382 0
M  V30 15 C 0.253110 1.099833 0.081175 0
M  V30 16 C 1.091008 0.630667 -0.909231 0
M  V30 17 C 2.453167 0.193909 -0.607816 0
M  V30 18 N 3.341631 -0.278787 -1.502624 0
M  V30 19 C 4.504147 -0.587187 -0.866813 0
M  V30 20 C 5.649874 -1.097620 -1.442435 0
M  V30 21 C 6.712666 -1.333808 -0.596110 0
M  V30 22 C 7.981626 -1.874349 -1.082508 0
M  V30 23 N 8.172586 -2.183712 -2.457430 0
M  V30 24 O 8.967576 -2.091573 -0.302215 0
M  V30 25 C 6.618831 -1.065743 0.768093 0
M  V30 26 C 5.430031 -0.552223 1.272571 0
M  V30 27 C 4.336433 -0.297299 0.469889 0
M  V30 28 N 3.081100 0.172482 0.579953 0
M  V30 29 C 0.627349 0.575854 -2.207587 0
M  V30 30 C -0.671382 0.988797 -2.517019 0
M  V30 31 H -7.179580 1.052137 -0.171977 0
M  V30 32 H -6.610609 1.163812 -1.841646 0
M  V30 33 H -8.307472 0.537107 -1.490603 0
M  V30 34 H -8.681210 -1.710218 -1.131105 0
M  V30 35 H -7.925291 -3.977031 -0.856349 0
M  V30 36 H -5.479727 -4.460883 -0.544654 0
M  V30 37 H -3.938975 -2.584367 -0.531862 0
M  V30 38 H -4.795613 0.905123 -0.177043 0
M  V30 39 H -3.475847 -0.279830 -0.380103 0
M  V30 40 H -3.986741 -0.115034 -2.836574 0
M  V30 41 H -1.757369 1.889390 0.485039 0
M  V30 42 H 0.573121 1.162073 1.113986 0
M  V30 43 H 5.737460 -1.307578 -2.484958 0
M  V30 44 H 7.456777 -2.950684 -2.624540 0
M  V30 45 H 7.478302 -2.929326 -2.624282 0
M  V30 46 H 7.447094 -1.242676 1.470064 0
M  V30 47 H 5.312481 -0.327390 2.336769 0
M  V30 48 H 2.680519 0.473071 1.495149 0
M  V30 49 H 1.310737 0.201515 -2.966258 0
M  V30 50 H -0.919374 0.898444 -3.570913 0
M  V30 END ATOM
M  V30 BEGIN BOND
M  V30 1 1 1 2
M  V30 2 2 2 3
M  V30 3 1 3 4
M  V30 4 2 4 5
M  V30 5 1 5 6
M  V30 6 2 6 7
M  V30 7 1 7 8
M  V30 8 1 8 9
M  V30 9 1 9 10
M  V30 10 2 10 11
M  V30 11 2 10 12
M  V30 12 1 10 13
M  V30 13 2 13 14
M  V30 14 1 14 15
M  V30 15 2 15 16
M  V30 16 1 16 17
M  V30 17 2 17 18
M  V30 18 1 18 19
M  V30 19 2 19 20
M  V30 20 1 20 21
M  V30 21 1 21 22
M  V30 22 1 22 23
M  V30 23 2 22 24
M  V30 24 2 21 25
M  V30 25 1 25 26
M  V30 26 2 26 27
M  V30 27 1 27 28
M  V30 28 1 16 29
M  V30 29 2 29 30
M  V30 30 1 7 2
M  V30 31 1 30 13
M  V30 32 1 28 17
M  V30 33 1 27 19
M  V30 34 1 1 31
M  V30 35 1 1 32
M  V30 36 1 1 33
M  V30 37 1 3 34
M  V30 38 1 4 35
M  V30 39 1 5 36
M  V30 40 1 6 37
M  V30 41 1 8 38
M  V30 42 1 8 39
M  V30 43 1 9 40
M  V30 44 1 14 41
M  V30 45 1 15 42
M  V30 46 1 20 43
M  V30 47 1 23 44
M  V30 48 1 23 45
M  V30 49 1 25 46
M  V30 50 1 26 47
M  V30 51 1 28 48
M  V30 52 1 29 49
M  V30 53 1 30 50
M  V30 END BOND
M  V30 END CTAB
M  END
>  <Dataset>  (195) 
ChEMBL_Kinases

>  <Ligand_Instance>  (195) 
nan

>  <PDB_ID>  (195) 
nan

>  <Standardized_SMILES>  (195) 
Cc1ccccc1CNS(=O)(=O)c1ccc(-c2nc3cc(C(N)=O)ccc3[nH]2)cc1

>  <Name>  (195) 
nan

>  <Pocket>  (195) 
nan

>  <ATP_Site>  (195) 
nan

>  <Peripheral>  (195) 
nan

>  <Num_H_Atoms_ProtBoundConf>  (195) 
nan

>  <Num_Resolved_Atoms>  (195) 
nan

>  <Num_Not_Resolved_Atoms>  (195) 
nan

$$$$
CHEMBL398334
     RDKit          3D

  0  0  0  0  0  0  0  0  0  0999 V3000
M  V30 BEGIN CTAB
M  V30 COUNTS 46 49 0 0 0
M  V30 BEGIN ATOM
M  V30 1 C 0.250120 -4.732216 4.053388 0
M  V30 2 N 1.683983 -4.533386 4.022378 0
M  V30 3 C 2.114138 -3.511560 4.944656 0
M  V30 4 C 2.184624 -4.358803 2.680657 0
M  V30 5 C 1.625323 -3.206753 1.961293 0
M  V30 6 C 2.278127 -1.979746 2.063231 0
M  V30 7 C 1.837334 -0.837942 1.429929 0
M  V30 8 N 0.715693 -0.869929 0.660069 0
M  V30 9 C 0.066491 0.062547 -0.057869 0
M  V30 10 C 0.532437 1.447440 -0.130467 0
M  V30 11 C 0.917883 1.970243 -1.352039 0
M  V30 12 C 1.377047 3.261825 -1.559253 0
M  V30 13 N 1.440779 4.048574 -0.453866 0
M  V30 14 C 1.068601 3.555714 0.748202 0
M  V30 15 N 1.150790 4.421806 1.892024 0
M  V30 16 N 0.619041 2.280600 0.930813 0
M  V30 17 C -1.038279 -0.555898 -0.647850 0
M  V30 18 C -1.915879 0.263860 -1.492595 0
M  V30 19 C -2.574951 1.331965 -0.906034 0
M  V30 20 C -3.414002 2.144238 -1.634259 0
M  V30 21 C -3.562984 1.834377 -2.987100 0
M  V30 22 F -4.350210 2.534731 -3.838405 0
M  V30 23 C -2.900692 0.768053 -3.557605 0
M  V30 24 Br -3.096875 0.328428 -5.420210 0
M  V30 25 C -2.056736 -0.051241 -2.831093 0
M  V30 26 N -1.018803 -1.846705 -0.264605 0
M  V30 27 C 0.057711 -2.040526 0.538417 0
M  V30 28 C 0.496708 -3.186078 1.171488 0
M  V30 29 H -0.083047 -5.313756 3.153911 0
M  V30 30 H 0.053164 -5.392799 4.922246 0
M  V30 31 H -0.330677 -3.806163 4.210916 0
M  V30 32 H 2.236780 -4.011013 5.946163 0
M  V30 33 H 1.346446 -2.724964 5.106290 0
M  V30 34 H 3.110795 -3.109544 4.705921 0
M  V30 35 H 3.287862 -4.214510 2.766136 0
M  V30 36 H 2.000106 -5.273129 2.117908 0
M  V30 37 H 3.182696 -1.859110 2.657208 0
M  V30 38 H 2.367177 0.101994 1.529359 0
M  V30 39 H 0.852409 1.310634 -2.209686 0
M  V30 40 H 1.663858 3.619851 -2.526169 0
M  V30 41 H 0.529157 4.970822 2.516727 0
M  V30 42 H 2.135204 4.567643 2.229799 0
M  V30 43 H -2.459596 1.579772 0.160796 0
M  V30 44 H -3.945892 2.977829 -1.238359 0
M  V30 45 H -1.512741 -0.889341 -3.196794 0
M  V30 46 H -0.032823 -4.124303 1.072235 0
M  V30 END ATOM
M  V30 BEGIN BOND
M  V30 1 1 1 2
M  V30 2 1 2 3
M  V30 3 1 2 4
M  V30 4 1 4 5
M  V30 5 1 5 6
M  V30 6 2 6 7
M  V30 7 1 7 8
M  V30 8 1 8 9
M  V30 9 1 9 10
M  V30 10 2 10 11
M  V30 11 1 11 12
M  V30 12 2 12 13
M  V30 13 1 13 14
M  V30 14 1 14 15
M  V30 15 2 14 16
M  V30 16 2 9 17
M  V30 17 1 17 18
M  V30 18 2 18 19
M  V30 19 1 19 20
M  V30 20 2 20 21
M  V30 21 1 21 22
M  V30 22 1 21 23
M  V30 23 1 23 24
M  V30 24 2 23 25
M  V30 25 1 17 26
M  V30 26 2 26 27
M  V30 27 1 27 28
M  V30 28 2 28 5
M  V30 29 1 27 8
M  V30 30 1 16 10
M  V30 31 1 25 18
M  V30 32 1 1 29
M  V30 33 1 1 30
M  V30 34 1 1 31
M  V30 35 1 3 32
M  V30 36 1 3 33
M  V30 37 1 3 34
M  V30 38 1 4 35
M  V30 39 1 4 36
M  V30 40 1 6 37
M  V30 41 1 7 38
M  V30 42 1 11 39
M  V30 43 1 12 40
M  V30 44 1 15 41
M  V30 45 1 15 42
M  V30 46 1 19 43
M  V30 47 1 20 44
M  V30 48 1 25 45
M  V30 49 1 28 46
M  V30 END BOND
M  V30 END CTAB
M  END
>  <Dataset>  (196) 
ChEMBL_Kinases

>  <Ligand_Instance>  (196) 
nan

>  <PDB_ID>  (196) 
nan

>  <Standardized_SMILES>  (196) 
CN(C)Cc1ccn2c(-c3ccnc(N)n3)c(-c3ccc(F)c(Br)c3)nc2c1

>  <Name>  (196) 
nan

>  <Pocket>  (196) 
nan

>  <ATP_Site>  (196) 
nan

>  <Peripheral>  (196) 
nan

>  <Num_H_Atoms_ProtBoundConf>  (196) 
nan

>  <Num_Resolved_Atoms>  (196) 
nan

>  <Num_Not_Resolved_Atoms>  (196) 
nan

$$$$
CHEMBL4867008
     RDKit          3D

  0  0  0  0  0  0  0  0  0  0999 V3000
M  V30 BEGIN CTAB
M  V30 COUNTS 45 47 0 0 0
M  V30 BEGIN ATOM
M  V30 1 N 1.929802 -7.277009 2.985717 0
M  V30 2 C 1.463119 -6.508527 2.250890 0
M  V30 3 C 0.887489 -5.548483 1.349677 0
M  V30 4 C 0.344527 -4.347451 1.747774 0
M  V30 5 C -0.193642 -3.467956 0.835576 0
M  V30 6 C -0.212830 -3.748228 -0.510814 0
M  V30 7 N -0.723786 -2.905938 -1.532045 0
M  V30 8 C -1.126475 -1.551779 -1.430751 0
M  V30 9 N -1.656563 -0.941628 -2.495471 0
M  V30 10 C -2.055578 0.325028 -2.506211 0
M  V30 11 C -1.936299 1.082725 -1.389730 0
M  V30 12 C -2.385586 2.497645 -1.421082 0
M  V30 13 F -2.891788 2.819647 -2.684238 0
M  V30 14 F -1.355020 3.383055 -1.118132 0
M  V30 15 F -3.415839 2.738783 -0.539379 0
M  V30 16 C -1.390242 0.504851 -0.243498 0
M  V30 17 N -1.281093 1.279022 0.940520 0
M  V30 18 C -0.794989 1.130437 2.290593 0
M  V30 19 C 0.675219 1.169938 2.468543 0 CFG=2
M  V30 20 C 1.315722 2.486751 2.006218 0
M  V30 21 C 2.701021 2.404642 2.650571 0
M  V30 22 C 3.470598 1.192137 2.277703 0
M  V30 23 N 2.781342 0.022580 1.949048 0
M  V30 24 C 1.377063 0.108210 1.720859 0
M  V30 25 N -1.020866 -0.780775 -0.344438 0
M  V30 26 C 0.346654 -4.965698 -0.832925 0
M  V30 27 N 0.872904 -5.831666 0.035425 0
M  V30 28 H 0.367655 -4.138042 2.808670 0
M  V30 29 H -0.621430 -2.536099 1.170391 0
M  V30 30 H -0.812510 -3.356083 -2.488610 0
M  V30 31 H -2.478127 0.774135 -3.391755 0
M  V30 32 H -1.650422 2.279175 0.863549 0
M  V30 33 H -1.345165 1.775436 3.031251 0
M  V30 34 H -1.100309 0.083854 2.631126 0
M  V30 35 H 0.867467 1.077229 3.566092 0
M  V30 36 H 1.426408 2.408908 0.921082 0
M  V30 37 H 0.811160 3.370182 2.392236 0
M  V30 38 H 3.196471 3.363784 2.449938 0
M  V30 39 H 2.484226 2.388168 3.759831 0
M  V30 40 H 4.095840 1.477457 1.384551 0
M  V30 41 H 4.223870 0.992876 3.075574 0
M  V30 42 H 3.094103 -0.807050 2.468232 0
M  V30 43 H 1.269185 0.357734 0.623133 0
M  V30 44 H 0.889408 -0.861326 1.872215 0
M  V30 45 H 0.386142 -5.293657 -1.877758 0
M  V30 END ATOM
M  V30 BEGIN BOND
M  V30 1 3 1 2
M  V30 2 1 2 3
M  V30 3 2 3 4
M  V30 4 1 4 5
M  V30 5 2 5 6
M  V30 6 1 6 7
M  V30 7 1 7 8
M  V30 8 2 8 9
M  V30 9 1 9 10
M  V30 10 2 10 11
M  V30 11 1 11 12
M  V30 12 1 12 13
M  V30 13 1 12 14
M  V30 14 1 12 15
M  V30 15 1 11 16
M  V30 16 1 16 17
M  V30 17 1 17 18
M  V30 18 1 18 19
M  V30 19 1 19 20
M  V30 20 1 20 21
M  V30 21 1 21 22
M  V30 22 1 22 23
M  V30 23 1 23 24
M  V30 24 2 16 25
M  V30 25 1 6 26
M  V30 26 2 26 27
M  V30 27 1 27 3
M  V30 28 1 25 8
M  V30 29 1 24 19
M  V30 30 1 4 28
M  V30 31 1 5 29
M  V30 32 1 7 30
M  V30 33 1 10 31
M  V30 34 1 17 32
M  V30 35 1 18 33
M  V30 36 1 18 34
M  V30 37 1 19 35 CFG=1
M  V30 38 1 20 36
M  V30 39 1 20 37
M  V30 40 1 21 38
M  V30 41 1 21 39
M  V30 42 1 22 40
M  V30 43 1 22 41
M  V30 44 1 23 42
M  V30 45 1 24 43
M  V30 46 1 24 44
M  V30 47 1 26 45
M  V30 END BOND
M  V30 END CTAB
M  END
>  <Dataset>  (197) 
ChEMBL_Kinases

>  <Ligand_Instance>  (197) 
nan

>  <PDB_ID>  (197) 
nan

>  <Standardized_SMILES>  (197) 
N#Cc1ccc(Nc2ncc(C(F)(F)F)c(NC[C@@H]3CCCNC3)n2)cn1

>  <Name>  (197) 
nan

>  <Pocket>  (197) 
nan

>  <ATP_Site>  (197) 
nan

>  <Peripheral>  (197) 
nan

>  <Num_H_Atoms_ProtBoundConf>  (197) 
nan

>  <Num_Resolved_Atoms>  (197) 
nan

>  <Num_Not_Resolved_Atoms>  (197) 
nan

$$$$
CHEMBL3983280
     RDKit          3D

  0  0  0  0  0  0  0  0  0  0999 V3000
M  V30 BEGIN CTAB
M  V30 COUNTS 44 48 0 0 0
M  V30 BEGIN ATOM
M  V30 1 O 2.499782 -3.653537 4.802039 0
M  V30 2 C 2.479455 -3.513615 3.553583 0
M  V30 3 C 3.284243 -4.243041 2.536180 0
M  V30 4 O 3.637971 -3.402521 1.467480 0
M  V30 5 C 2.768805 -2.451922 0.938549 0
M  V30 6 C 2.918202 -1.947770 -0.322739 0
M  V30 7 C 2.026446 -1.011001 -0.787118 0
M  V30 8 C 0.976980 -0.532541 -0.068967 0
M  V30 9 C 0.002942 0.498746 -0.575768 0
M  V30 10 O -0.468096 0.183415 -1.829851 0
M  V30 11 C 0.754881 1.779040 -0.582011 0
M  V30 12 C 1.816216 2.272793 -1.294699 0
M  V30 13 C 2.391329 3.521126 -1.128254 0
M  V30 14 C 1.849274 4.353383 -0.153036 0
M  V30 15 C 0.785035 3.914043 0.592250 0
M  V30 16 C 0.249195 2.657804 0.383876 0
M  V30 17 C -0.888356 1.951317 1.011320 0
M  V30 18 O -1.556855 2.487437 1.930719 0
M  V30 19 N -1.034452 0.674883 0.405321 0
M  V30 20 C -2.034080 -0.292829 0.690567 0
M  V30 21 C -3.037782 -0.130912 1.619478 0
M  V30 22 C -4.006853 -1.075228 1.888525 0
M  V30 23 C -3.997392 -2.273733 1.197094 0
M  V30 24 C -3.013627 -2.495906 0.250735 0
M  V30 25 C -2.077771 -1.505615 0.035500 0
M  V30 26 C 0.853827 -1.065423 1.207758 0
M  V30 27 C 1.721705 -2.009237 1.724070 0
M  V30 28 N 1.572871 -2.531643 3.020963 0
M  V30 29 H 2.631824 -5.064614 2.119932 0
M  V30 30 H 4.195829 -4.635718 3.033093 0
M  V30 31 H 3.749856 -2.307971 -0.928531 0
M  V30 32 H 2.197627 -0.660667 -1.780814 0
M  V30 33 H 0.088160 -0.418599 -2.351933 0
M  V30 34 H 2.296129 1.699971 -2.068729 0
M  V30 35 H 3.229950 3.877857 -1.710413 0
M  V30 36 H 2.277441 5.334091 0.000257 0
M  V30 37 H 0.382783 4.585902 1.346681 0
M  V30 38 H -3.098980 0.782627 2.191427 0
M  V30 39 H -4.783430 -0.903997 2.633278 0
M  V30 40 H -4.764639 -3.001042 1.421525 0
M  V30 41 H -2.988516 -3.424477 -0.299399 0
M  V30 42 H -1.333745 -1.737042 -0.716333 0
M  V30 43 H 0.070395 -0.768444 1.868102 0
M  V30 44 H 0.773305 -2.186212 3.605885 0
M  V30 END ATOM
M  V30 BEGIN BOND
M  V30 1 2 1 2
M  V30 2 1 2 3
M  V30 3 1 3 4
M  V30 4 1 4 5
M  V30 5 2 5 6
M  V30 6 1 6 7
M  V30 7 2 7 8
M  V30 8 1 8 9
M  V30 9 1 9 10
M  V30 10 1 9 11
M  V30 11 2 11 12
M  V30 12 1 12 13
M  V30 13 2 13 14
M  V30 14 1 14 15
M  V30 15 2 15 16
M  V30 16 1 16 17
M  V30 17 2 17 18
M  V30 18 1 17 19
M  V30 19 1 19 20
M  V30 20 2 20 21
M  V30 21 1 21 22
M  V30 22 2 22 23
M  V30 23 1 23 24
M  V30 24 2 24 25
M  V30 25 1 8 26
M  V30 26 2 26 27
M  V30 27 1 27 28
M  V30 28 1 28 2
M  V30 29 1 27 5
M  V30 30 1 19 9
M  V30 31 1 25 20
M  V30 32 1 16 11
M  V30 33 1 3 29
M  V30 34 1 3 30
M  V30 35 1 6 31
M  V30 36 1 7 32
M  V30 37 1 10 33
M  V30 38 1 12 34
M  V30 39 1 13 35
M  V30 40 1 14 36
M  V30 41 1 15 37
M  V30 42 1 21 38
M  V30 43 1 22 39
M  V30 44 1 23 40
M  V30 45 1 24 41
M  V30 46 1 25 42
M  V30 47 1 26 43
M  V30 48 1 28 44
M  V30 END BOND
M  V30 END CTAB
M  END
>  <Dataset>  (198) 
ChEMBL_Kinases

>  <Ligand_Instance>  (198) 
nan

>  <PDB_ID>  (198) 
nan

>  <Standardized_SMILES>  (198) 
O=C1COc2ccc(C3(O)c4ccccc4C(=O)N3c3ccccc3)cc2N1

>  <Name>  (198) 
nan

>  <Pocket>  (198) 
nan

>  <ATP_Site>  (198) 
nan

>  <Peripheral>  (198) 
nan

>  <Num_H_Atoms_ProtBoundConf>  (198) 
nan

>  <Num_Resolved_Atoms>  (198) 
nan

>  <Num_Not_Resolved_Atoms>  (198) 
nan

$$$$
CHEMBL3983221
     RDKit          3D

  0  0  0  0  0  0  0  0  0  0999 V3000
M  V30 BEGIN CTAB
M  V30 COUNTS 46 50 0 0 0
M  V30 BEGIN ATOM
M  V30 1 C 0.089484 -5.787765 1.539160 0
M  V30 2 C 0.826105 -4.857416 1.747238 0
M  V30 3 C 1.688696 -3.737626 1.978581 0
M  V30 4 C 2.713317 -3.932276 2.887534 0
M  V30 5 C 3.566100 -2.875483 3.136460 0
M  V30 6 C 3.369448 -1.688595 2.483372 0
M  V30 7 C 2.370586 -1.432096 1.569675 0
M  V30 8 N 2.177762 -0.208737 0.898385 0
M  V30 9 C 3.026525 0.930585 1.064453 0
M  V30 10 O 4.049942 1.150533 1.783881 0
M  V30 11 C 2.566808 2.029758 0.202020 0
M  V30 12 C 2.969570 3.320857 -0.071124 0
M  V30 13 C 2.276503 4.112703 -0.994783 0
M  V30 14 C 1.191334 3.520258 -1.593733 0
M  V30 15 C 0.733336 2.225934 -1.363278 0
M  V30 16 C 1.465508 1.479159 -0.428556 0
M  V30 17 C 1.121759 0.096058 -0.046150 0
M  V30 18 O 1.328773 -0.710411 -1.165578 0
M  V30 19 C -0.244412 -0.095109 0.414280 0
M  V30 20 C -0.546566 0.394037 1.691001 0
M  V30 21 C -1.833002 0.267881 2.225094 0
M  V30 22 C -2.843124 -0.348337 1.496176 0
M  V30 23 C -2.577643 -0.841302 0.233594 0
M  V30 24 C -1.297608 -0.698491 -0.259106 0
M  V30 25 N -3.585928 -1.478709 -0.540682 0
M  V30 26 C -4.891793 -1.585377 0.051522 0
M  V30 27 O -5.630402 -2.544067 -0.359345 0
M  V30 28 C -5.212156 -0.555132 1.073905 0
M  V30 29 O -4.127128 -0.485555 2.003693 0
M  V30 30 C 1.555783 -2.527506 1.367294 0
M  V30 31 H -0.558610 -6.623200 1.339165 0
M  V30 32 H 2.845658 -4.873949 3.386221 0
M  V30 33 H 4.365427 -3.038078 3.850933 0
M  V30 34 H 4.075042 -0.929936 2.738097 0
M  V30 35 H 3.820836 3.705765 0.436190 0
M  V30 36 H 2.569398 5.121010 -1.225953 0
M  V30 37 H 0.660098 4.144323 -2.309145 0
M  V30 38 H -0.137978 1.886647 -1.906780 0
M  V30 39 H 2.061012 -1.356404 -1.065426 0
M  V30 40 H 0.145047 0.900197 2.375958 0
M  V30 41 H -2.089953 0.637937 3.211437 0
M  V30 42 H -1.021042 -1.063757 -1.245813 0
M  V30 43 H -3.372117 -1.854915 -1.510871 0
M  V30 44 H -6.158984 -0.753113 1.596672 0
M  V30 45 H -5.339604 0.408457 0.511970 0
M  V30 46 H 0.726489 -2.495226 0.680260 0
M  V30 END ATOM
M  V30 BEGIN BOND
M  V30 1 3 1 2
M  V30 2 1 2 3
M  V30 3 2 3 4
M  V30 4 1 4 5
M  V30 5 2 5 6
M  V30 6 1 6 7
M  V30 7 1 7 8
M  V30 8 1 8 9
M  V30 9 2 9 10
M  V30 10 1 9 11
M  V30 11 2 11 12
M  V30 12 1 12 13
M  V30 13 2 13 14
M  V30 14 1 14 15
M  V30 15 2 15 16
M  V30 16 1 16 17
M  V30 17 1 17 18
M  V30 18 1 17 19
M  V30 19 2 19 20
M  V30 20 1 20 21
M  V30 21 2 21 22
M  V30 22 1 22 23
M  V30 23 2 23 24
M  V30 24 1 23 25
M  V30 25 1 25 26
M  V30 26 2 26 27
M  V30 27 1 26 28
M  V30 28 1 28 29
M  V30 29 2 7 30
M  V30 30 1 30 3
M  V30 31 1 17 8
M  V30 32 1 24 19
M  V30 33 1 16 11
M  V30 34 1 29 22
M  V30 35 1 1 31
M  V30 36 1 4 32
M  V30 37 1 5 33
M  V30 38 1 6 34
M  V30 39 1 12 35
M  V30 40 1 13 36
M  V30 41 1 14 37
M  V30 42 1 15 38
M  V30 43 1 18 39
M  V30 44 1 20 40
M  V30 45 1 21 41
M  V30 46 1 24 42
M  V30 47 1 25 43
M  V30 48 1 28 44
M  V30 49 1 28 45
M  V30 50 1 30 46
M  V30 END BOND
M  V30 END CTAB
M  END
>  <Dataset>  (199) 
ChEMBL_Kinases

>  <Ligand_Instance>  (199) 
nan

>  <PDB_ID>  (199) 
nan

>  <Standardized_SMILES>  (199) 
C#Cc1cccc(N2C(=O)c3ccccc3C2(O)c2ccc3c(c2)NC(=O)CO3)c1

>  <Name>  (199) 
nan

>  <Pocket>  (199) 
nan

>  <ATP_Site>  (199) 
nan

>  <Peripheral>  (199) 
nan

>  <Num_H_Atoms_ProtBoundConf>  (199) 
nan

>  <Num_Resolved_Atoms>  (199) 
nan

>  <Num_Not_Resolved_Atoms>  (199) 
nan

$$$$
CHEMBL3983182
     RDKit          3D

  0  0  0  0  0  0  0  0  0  0999 V3000
M  V30 BEGIN CTAB
M  V30 COUNTS 38 41 0 0 0
M  V30 BEGIN ATOM
M  V30 1 F -2.299165 -2.777638 7.678386 0
M  V30 2 C -1.284817 -2.838464 6.789015 0
M  V30 3 C -0.130575 -3.551337 7.021988 0
M  V30 4 C 0.893192 -3.618598 6.135609 0
M  V30 5 C 0.774961 -2.945673 4.951204 0
M  V30 6 C -0.343400 -2.205217 4.629226 0
M  V30 7 C -0.339561 -1.541735 3.340706 0
M  V30 8 C -1.168742 -0.780588 2.692712 0
M  V30 9 C -1.285237 -0.077658 1.447568 0
M  V30 10 N -2.397331 0.654763 1.134805 0
M  V30 11 N -2.246084 1.190595 -0.052794 0
M  V30 12 C -1.069112 0.878738 -0.618624 0
M  V30 13 C -0.474383 1.194976 -1.821136 0
M  V30 14 C 0.782264 0.686435 -2.084656 0
M  V30 15 C 1.406153 1.031413 -3.371452 0
M  V30 16 C 0.577453 1.221574 -4.461385 0
M  V30 17 C 1.028362 1.552794 -5.741719 0
M  V30 18 N 2.349651 1.689427 -5.899545 0
M  V30 19 C 3.179330 1.510415 -4.857456 0
M  V30 20 C 2.764100 1.186199 -3.595643 0
M  V30 21 C 1.380320 -0.113206 -1.130841 0
M  V30 22 C 0.758322 -0.410937 0.062995 0
M  V30 23 C -0.489113 0.084823 0.342021 0
M  V30 24 C -1.337540 -2.184924 5.577093 0
M  V30 25 F -2.457205 -1.491602 5.348093 0
M  V30 26 H -0.031158 -4.085844 7.957543 0
M  V30 27 H 1.776913 -4.198091 6.379087 0
M  V30 28 H 1.643990 -3.045394 4.281170 0
M  V30 29 H 0.527921 -1.665923 2.716657 0
M  V30 30 H -2.029144 -0.692039 3.379130 0
M  V30 31 H -3.015680 1.783592 -0.436079 0
M  V30 32 H -1.028738 1.824277 -2.488292 0
M  V30 33 H -0.499590 1.110653 -4.335064 0
M  V30 34 H 0.289702 1.681833 -6.538864 0
M  V30 35 H 4.233885 1.630198 -5.029643 0
M  V30 36 H 3.397494 1.034882 -2.737528 0
M  V30 37 H 2.364544 -0.507530 -1.344949 0
M  V30 38 H 1.272736 -1.036323 0.762841 0
M  V30 END ATOM
M  V30 BEGIN BOND
M  V30 1 1 1 2
M  V30 2 2 2 3
M  V30 3 1 3 4
M  V30 4 2 4 5
M  V30 5 1 5 6
M  V30 6 1 6 7
M  V30 7 2 7 8
M  V30 8 1 8 9
M  V30 9 2 9 10
M  V30 10 1 10 11
M  V30 11 1 11 12
M  V30 12 2 12 13
M  V30 13 1 13 14
M  V30 14 1 14 15
M  V30 15 2 15 16
M  V30 16 1 16 17
M  V30 17 2 17 18
M  V30 18 1 18 19
M  V30 19 2 19 20
M  V30 20 2 14 21
M  V30 21 1 21 22
M  V30 22 2 22 23
M  V30 23 2 6 24
M  V30 24 1 24 25
M  V30 25 1 24 2
M  V30 26 1 23 9
M  V30 27 1 23 12
M  V30 28 1 20 15
M  V30 29 1 3 26
M  V30 30 1 4 27
M  V30 31 1 5 28
M  V30 32 1 7 29
M  V30 33 1 8 30
M  V30 34 1 11 31
M  V30 35 1 13 32
M  V30 36 1 16 33
M  V30 37 1 17 34
M  V30 38 1 19 35
M  V30 39 1 20 36
M  V30 40 1 21 37
M  V30 41 1 22 38
M  V30 END BOND
M  V30 END CTAB
M  END
>  <Dataset>  (200) 
ChEMBL_Kinases

>  <Ligand_Instance>  (200) 
nan

>  <PDB_ID>  (200) 
nan

>  <Standardized_SMILES>  (200) 
Fc1cccc(/C=C/c2n[nH]c3cc(-c4ccncc4)ccc23)c1F

>  <Name>  (200) 
nan

>  <Pocket>  (200) 
nan

>  <ATP_Site>  (200) 
nan

>  <Peripheral>  (200) 
nan

>  <Num_H_Atoms_ProtBoundConf>  (200) 
nan

>  <Num_Resolved_Atoms>  (200) 
nan

>  <Num_Not_Resolved_Atoms>  (200) 
nan

$$$$
CHEMBL94377
     RDKit          3D

  0  0  0  0  0  0  0  0  0  0999 V3000
M  V30 BEGIN CTAB
M  V30 COUNTS 48 51 0 0 0
M  V30 BEGIN ATOM
M  V30 1 C -1.245929 1.737818 -4.202246 0
M  V30 2 O -0.609294 1.289542 -3.023075 0
M  V30 3 C -1.215608 0.343711 -2.189646 0
M  V30 4 O -2.340407 -0.099650 -2.512344 0
M  V30 5 C -0.491742 -0.078766 -0.973227 0
M  V30 6 C 0.756510 0.441349 -0.655154 0
M  V30 7 C 1.366495 -0.009400 0.504898 0
M  V30 8 C 2.678025 0.577432 0.781592 0
M  V30 9 C 3.930623 0.146103 0.397970 0
M  V30 10 C 5.036411 0.868915 0.780240 0
M  V30 11 C 4.925334 2.016254 1.538785 0
M  V30 12 C 3.663084 2.468831 1.937071 0
M  V30 13 C 2.538765 1.734998 1.549106 0
M  V30 14 C 1.267430 2.322334 2.036164 0
M  V30 15 C 0.803820 -0.947381 1.364165 0
M  V30 16 C -0.437032 -1.432464 1.002445 0
M  V30 17 C -1.080105 -1.011205 -0.143659 0
M  V30 18 N -1.020507 -2.387739 1.868690 0
M  V30 19 C -2.303796 -2.938583 1.564656 0
M  V30 20 C -3.319903 -2.166634 2.134933 0
M  V30 21 Cl -3.088039 -0.726437 3.089893 0
M  V30 22 C -4.647128 -2.543431 1.949990 0
M  V30 23 C -4.980279 -3.678106 1.205345 0
M  V30 24 C -3.941790 -4.406180 0.663375 0
M  V30 25 C -2.616764 -4.059756 0.828041 0
M  V30 26 Cl -1.246347 -4.909046 0.187686 0
M  V30 27 C -0.401465 -2.843594 3.043693 0
M  V30 28 O -0.854004 -3.681411 3.853654 0
M  V30 29 N 0.882516 -2.282045 3.333048 0
M  V30 30 C 1.601985 -1.300301 2.544471 0
M  V30 31 H -0.714553 1.415880 -5.129189 0
M  V30 32 H -2.262857 1.288932 -4.270469 0
M  V30 33 H -1.355992 2.856801 -4.192456 0
M  V30 34 H 1.221501 1.170771 -1.300089 0
M  V30 35 H 3.895352 -0.759836 -0.190974 0
M  V30 36 H 5.994406 0.479989 0.448277 0
M  V30 37 H 5.816087 2.569637 1.827858 0
M  V30 38 H 3.629306 3.362797 2.523815 0
M  V30 39 H 0.368084 1.799225 1.651416 0
M  V30 40 H 1.149316 3.392668 1.750709 0
M  V30 41 H 1.254970 2.304634 3.159179 0
M  V30 42 H -2.057519 -1.427949 -0.379198 0
M  V30 43 H -5.485285 -1.974677 2.374737 0
M  V30 44 H -6.009586 -3.976647 1.057671 0
M  V30 45 H -4.130211 -5.298993 0.073683 0
M  V30 46 H 1.441496 -2.547920 4.186359 0
M  V30 47 H 1.821017 -0.445872 3.196404 0
M  V30 48 H 2.557631 -1.821814 2.246436 0
M  V30 END ATOM
M  V30 BEGIN BOND
M  V30 1 1 1 2
M  V30 2 1 2 3
M  V30 3 2 3 4
M  V30 4 1 3 5
M  V30 5 2 5 6
M  V30 6 1 6 7
M  V30 7 1 7 8
M  V30 8 2 8 9
M  V30 9 1 9 10
M  V30 10 2 10 11
M  V30 11 1 11 12
M  V30 12 2 12 13
M  V30 13 1 13 14
M  V30 14 2 7 15
M  V30 15 1 15 16
M  V30 16 2 16 17
M  V30 17 1 16 18
M  V30 18 1 18 19
M  V30 19 2 19 20
M  V30 20 1 20 21
M  V30 21 1 20 22
M  V30 22 2 22 23
M  V30 23 1 23 24
M  V30 24 2 24 25
M  V30 25 1 25 26
M  V30 26 1 18 27
M  V30 27 2 27 28
M  V30 28 1 27 29
M  V30 29 1 29 30
M  V30 30 1 17 5
M  V30 31 1 25 19
M  V30 32 1 13 8
M  V30 33 1 30 15
M  V30 34 1 1 31
M  V30 35 1 1 32
M  V30 36 1 1 33
M  V30 37 1 6 34
M  V30 38 1 9 35
M  V30 39 1 10 36
M  V30 40 1 11 37
M  V30 41 1 12 38
M  V30 42 1 14 39
M  V30 43 1 14 40
M  V30 44 1 14 41
M  V30 45 1 17 42
M  V30 46 1 22 43
M  V30 47 1 23 44
M  V30 48 1 24 45
M  V30 49 1 29 46
M  V30 50 1 30 47
M  V30 51 1 30 48
M  V30 END BOND
M  V30 END CTAB
M  END
>  <Dataset>  (201) 
ChEMBL_Kinases

>  <Ligand_Instance>  (201) 
nan

>  <PDB_ID>  (201) 
nan

>  <Standardized_SMILES>  (201) 
COC(=O)c1cc(-c2ccccc2C)c2c(c1)N(c1c(Cl)cccc1Cl)C(=O)NC2

>  <Name>  (201) 
nan

>  <Pocket>  (201) 
nan

>  <ATP_Site>  (201) 
nan

>  <Peripheral>  (201) 
nan

>  <Num_H_Atoms_ProtBoundConf>  (201) 
nan

>  <Num_Resolved_Atoms>  (201) 
nan

>  <Num_Not_Resolved_Atoms>  (201) 
nan

$$$$
CHEMBL3983087
     RDKit          3D

  0  0  0  0  0  0  0  0  0  0999 V3000
M  V30 BEGIN CTAB
M  V30 COUNTS 52 55 0 0 0
M  V30 BEGIN ATOM
M  V30 1 C -2.868480 -4.970378 0.505898 0
M  V30 2 C -1.530064 -5.618341 0.365985 0
M  V30 3 C -0.508211 -4.629175 -0.092966 0
M  V30 4 C -0.301301 -4.456700 -1.448563 0
M  V30 5 C 0.663308 -3.527243 -1.856325 0
M  V30 6 C 1.403750 -2.786752 -0.924868 0
M  V30 7 N 2.291585 -1.949752 -1.642116 0
M  V30 8 C 2.493055 -0.770665 -1.193853 0
M  V30 9 S 1.843225 0.102052 0.249221 0
M  V30 10 C 2.637983 1.665844 -0.137435 0
M  V30 11 C 2.468005 2.776294 0.549760 0
M  V30 12 C 1.627914 2.922065 1.711309 0
M  V30 13 C 2.117002 3.753904 2.725147 0
M  V30 14 C 1.327479 3.910258 3.835173 0
M  V30 15 N 0.139032 3.313121 3.981321 0
M  V30 16 C -0.381571 2.504289 3.043702 0
M  V30 17 N -1.651131 1.913976 3.238760 0
M  V30 18 C -2.417622 0.963372 2.534262 0
M  V30 19 C -1.941268 -0.106094 1.810227 0
M  V30 20 C -2.690542 -1.015391 1.098993 0
M  V30 21 C -4.055130 -0.808956 1.134281 0
M  V30 22 C -4.646379 0.226100 1.825030 0
M  V30 23 C -3.809646 1.080643 2.503980 0
M  V30 24 C 0.399451 2.339755 1.926739 0
M  V30 25 C 3.471070 1.451272 -1.315886 0
M  V30 26 O 4.186503 2.389539 -1.755399 0
M  V30 27 N 3.373344 0.144856 -1.856384 0
M  V30 28 C 4.172389 -0.193661 -3.053000 0
M  V30 29 C 1.164930 -2.989716 0.413461 0
M  V30 30 C 0.220916 -3.899424 0.821575 0
M  V30 31 H -3.098213 -4.827650 1.583545 0
M  V30 32 H -3.651294 -5.634080 0.084265 0
M  V30 33 H -2.941764 -4.025720 -0.073436 0
M  V30 34 H -1.618377 -6.465734 -0.348416 0
M  V30 35 H -1.232286 -6.086360 1.327228 0
M  V30 36 H -0.901241 -5.055958 -2.117051 0
M  V30 37 H 0.713469 -3.501752 -2.953669 0
M  V30 38 H 3.008602 3.677233 0.213393 0
M  V30 39 H 3.064522 4.276800 2.692469 0
M  V30 40 H 1.658946 4.551563 4.661448 0
M  V30 41 H -2.164715 2.241837 4.113546 0
M  V30 42 H -0.879084 -0.281644 1.788452 0
M  V30 43 H -2.246550 -1.823023 0.558459 0
M  V30 44 H -4.710389 -1.473194 0.607891 0
M  V30 45 H -5.719523 0.399043 1.861231 0
M  V30 46 H -4.260447 1.905189 3.056379 0
M  V30 47 H 0.076215 1.727709 1.119764 0
M  V30 48 H 5.213886 -0.455325 -2.761278 0
M  V30 49 H 4.205670 0.658442 -3.768224 0
M  V30 50 H 3.743040 -1.089156 -3.540805 0
M  V30 51 H 1.805967 -2.353474 1.005541 0
M  V30 52 H 0.098312 -3.996382 1.874931 0
M  V30 END ATOM
M  V30 BEGIN BOND
M  V30 1 1 1 2
M  V30 2 1 2 3
M  V30 3 2 3 4
M  V30 4 1 4 5
M  V30 5 2 5 6
M  V30 6 1 6 7
M  V30 7 2 7 8
M  V30 8 1 8 9
M  V30 9 1 9 10
M  V30 10 2 10 11
M  V30 11 1 11 12
M  V30 12 2 12 13
M  V30 13 1 13 14
M  V30 14 2 14 15
M  V30 15 1 15 16
M  V30 16 1 16 17
M  V30 17 1 17 18
M  V30 18 2 18 19
M  V30 19 1 19 20
M  V30 20 2 20 21
M  V30 21 1 21 22
M  V30 22 2 22 23
M  V30 23 2 16 24
M  V30 24 1 10 25
M  V30 25 2 25 26
M  V30 26 1 25 27
M  V30 27 1 27 28
M  V30 28 1 6 29
M  V30 29 2 29 30
M  V30 30 1 30 3
M  V30 31 1 27 8
M  V30 32 1 24 12
M  V30 33 1 23 18
M  V30 34 1 1 31
M  V30 35 1 1 32
M  V30 36 1 1 33
M  V30 37 1 2 34
M  V30 38 1 2 35
M  V30 39 1 4 36
M  V30 40 1 5 37
M  V30 41 1 11 38
M  V30 42 1 13 39
M  V30 43 1 14 40
M  V30 44 1 17 41
M  V30 45 1 19 42
M  V30 46 1 20 43
M  V30 47 1 21 44
M  V30 48 1 22 45
M  V30 49 1 23 46
M  V30 50 1 24 47
M  V30 51 1 28 48
M  V30 52 1 28 49
M  V30 53 1 28 50
M  V30 54 1 29 51
M  V30 55 1 30 52
M  V30 END BOND
M  V30 END CTAB
M  END
>  <Dataset>  (202) 
ChEMBL_Kinases

>  <Ligand_Instance>  (202) 
nan

>  <PDB_ID>  (202) 
nan

>  <Standardized_SMILES>  (202) 
CCc1ccc(/N=C2\S/C(=C\c3ccnc(Nc4ccccc4)c3)C(=O)N2C)cc1

>  <Name>  (202) 
nan

>  <Pocket>  (202) 
nan

>  <ATP_Site>  (202) 
nan

>  <Peripheral>  (202) 
nan

>  <Num_H_Atoms_ProtBoundConf>  (202) 
nan

>  <Num_Resolved_Atoms>  (202) 
nan

>  <Num_Not_Resolved_Atoms>  (202) 
nan

$$$$
CHEMBL3982891
     RDKit          3D

  0  0  0  0  0  0  0  0  0  0999 V3000
M  V30 BEGIN CTAB
M  V30 COUNTS 43 46 0 0 0
M  V30 BEGIN ATOM
M  V30 1 N 1.122267 -8.934737 1.469901 0
M  V30 2 C 1.659957 -7.849309 0.724941 0
M  V30 3 O 2.577746 -8.127182 -0.093229 0
M  V30 4 C 1.088523 -6.519988 0.988281 0
M  V30 5 C 0.068468 -6.310676 1.918747 0
M  V30 6 C -0.365629 -4.999938 2.054779 0
M  V30 7 C 0.165227 -3.953247 1.324661 0
M  V30 8 N -0.181407 -2.637929 1.376131 0
M  V30 9 C 0.627110 -2.044248 0.477014 0
M  V30 10 C 0.630245 -0.616705 0.170322 0
M  V30 11 C -0.248825 0.216377 0.833354 0
M  V30 12 C -0.291555 1.575357 0.585131 0
M  V30 13 C 0.579042 2.092896 -0.357091 0
M  V30 14 C 0.595619 3.563452 -0.685716 0
M  V30 15 O 1.921634 3.954594 -0.727561 0
M  V30 16 C -0.074516 4.342921 0.388915 0
M  V30 17 C 0.643816 4.420068 1.568573 0
M  V30 18 C 0.105660 5.129980 2.646058 0
M  V30 19 C -1.117290 5.766114 2.598370 0
M  V30 20 C -1.795522 5.658695 1.396229 0
M  V30 21 C -1.302125 4.972420 0.317899 0
M  V30 22 C 1.456273 1.255511 -1.017452 0
M  V30 23 C 1.502075 -0.108340 -0.771129 0
M  V30 24 N 1.423130 -2.972024 -0.086447 0
M  V30 25 C 1.170085 -4.182340 0.412931 0
M  V30 26 C 1.635727 -5.484076 0.244831 0
M  V30 27 H 1.390500 -9.515761 2.294856 0
M  V30 28 H 0.193988 -9.205931 1.047521 0
M  V30 29 H -0.313159 -7.152222 2.462580 0
M  V30 30 H -1.154946 -4.878101 2.783315 0
M  V30 31 H -0.921215 -2.222328 1.994831 0
M  V30 32 H -0.944280 -0.129094 1.571569 0
M  V30 33 H -0.945776 2.293170 1.057771 0
M  V30 34 H 0.118823 3.736622 -1.684634 0
M  V30 35 H 2.018650 4.853261 -0.323039 0
M  V30 36 H 1.613906 3.960379 1.721156 0
M  V30 37 H 0.682534 5.181736 3.567351 0
M  V30 38 H -1.511185 6.309509 3.447790 0
M  V30 39 H -2.766780 6.141525 1.301188 0
M  V30 40 H -1.808098 4.870311 -0.635063 0
M  V30 41 H 2.155749 1.612695 -1.762004 0
M  V30 42 H 2.157495 -0.818231 -1.246601 0
M  V30 43 H 2.413025 -5.624570 -0.468238 0
M  V30 END ATOM
M  V30 BEGIN BOND
M  V30 1 1 1 2
M  V30 2 2 2 3
M  V30 3 1 2 4
M  V30 4 2 4 5
M  V30 5 1 5 6
M  V30 6 2 6 7
M  V30 7 1 7 8
M  V30 8 1 8 9
M  V30 9 1 9 10
M  V30 10 2 10 11
M  V30 11 1 11 12
M  V30 12 2 12 13
M  V30 13 1 13 14
M  V30 14 1 14 15
M  V30 15 1 14 16
M  V30 16 2 16 17
M  V30 17 1 17 18
M  V30 18 2 18 19
M  V30 19 1 19 20
M  V30 20 2 20 21
M  V30 21 1 13 22
M  V30 22 2 22 23
M  V30 23 2 9 24
M  V30 24 1 24 25
M  V30 25 2 25 26
M  V30 26 1 26 4
M  V30 27 1 25 7
M  V30 28 1 23 10
M  V30 29 1 21 16
M  V30 30 1 1 27
M  V30 31 1 1 28
M  V30 32 1 5 29
M  V30 33 1 6 30
M  V30 34 1 8 31
M  V30 35 1 11 32
M  V30 36 1 12 33
M  V30 37 1 14 34
M  V30 38 1 15 35
M  V30 39 1 17 36
M  V30 40 1 18 37
M  V30 41 1 19 38
M  V30 42 1 20 39
M  V30 43 1 21 40
M  V30 44 1 22 41
M  V30 45 1 23 42
M  V30 46 1 26 43
M  V30 END BOND
M  V30 END CTAB
M  END
>  <Dataset>  (203) 
ChEMBL_Kinases

>  <Ligand_Instance>  (203) 
nan

>  <PDB_ID>  (203) 
nan

>  <Standardized_SMILES>  (203) 
NC(=O)c1ccc2[nH]c(-c3ccc(C(O)c4ccccc4)cc3)nc2c1

>  <Name>  (203) 
nan

>  <Pocket>  (203) 
nan

>  <ATP_Site>  (203) 
nan

>  <Peripheral>  (203) 
nan

>  <Num_H_Atoms_ProtBoundConf>  (203) 
nan

>  <Num_Resolved_Atoms>  (203) 
nan

>  <Num_Not_Resolved_Atoms>  (203) 
nan

$$$$
CHEMBL3982809
     RDKit          3D

  0  0  0  0  0  0  0  0  0  0999 V3000
M  V30 BEGIN CTAB
M  V30 COUNTS 43 46 0 0 0
M  V30 BEGIN ATOM
M  V30 1 C -0.854597 -8.767946 1.503024 0
M  V30 2 N -0.600312 -7.393583 1.190567 0
M  V30 3 C -0.907675 -6.810005 -0.055849 0
M  V30 4 O -1.426947 -7.532110 -0.925900 0
M  V30 5 C -0.656173 -5.411331 -0.393320 0
M  V30 6 C -1.014850 -4.991875 -1.659387 0
M  V30 7 C -0.802359 -3.663395 -2.050699 0
M  V30 8 C -0.227417 -2.757329 -1.163670 0
M  V30 9 N 0.095293 -1.435968 -1.254077 0
M  V30 10 C 0.637358 -1.041758 -0.084813 0
M  V30 11 C 1.115605 0.304958 0.223744 0
M  V30 12 C 1.026087 1.291990 -0.731074 0
M  V30 13 C 1.484781 2.557058 -0.415882 0
M  V30 14 C 2.021771 2.831212 0.826820 0
M  V30 15 O 2.514204 4.053720 1.263365 0
M  V30 16 C 1.694636 4.983371 1.892841 0
M  V30 17 C 0.960691 5.986736 1.293128 0
M  V30 18 C 0.186570 6.838630 2.066166 0
M  V30 19 C 0.122468 6.717315 3.436752 0
M  V30 20 Cl -0.875389 7.823985 4.374831 0
M  V30 21 C 0.854765 5.718454 4.019798 0
M  V30 22 C 1.638494 4.850872 3.272000 0
M  V30 23 C 2.110857 1.825507 1.794000 0
M  V30 24 C 1.650232 0.566219 1.469442 0
M  V30 25 N 0.657327 -2.105934 0.739000 0
M  V30 26 C 0.133430 -3.189982 0.117776 0
M  V30 27 C -0.086672 -4.506332 0.479880 0
M  V30 28 H 0.064066 -9.380355 1.384362 0
M  V30 29 H -1.100351 -8.815128 2.603704 0
M  V30 30 H -1.719171 -9.199573 0.953211 0
M  V30 31 H -0.160425 -6.775935 1.923254 0
M  V30 32 H -1.466491 -5.649539 -2.395346 0
M  V30 33 H -1.075965 -3.320056 -3.033403 0
M  V30 34 H -0.080033 -0.870402 -2.133894 0
M  V30 35 H 0.618169 1.128531 -1.707522 0
M  V30 36 H 1.456145 3.396743 -1.100639 0
M  V30 37 H 1.044645 6.040923 0.211124 0
M  V30 38 H -0.363075 7.603588 1.524786 0
M  V30 39 H 0.759236 5.676594 5.116150 0
M  V30 40 H 2.141020 4.131134 3.905593 0
M  V30 41 H 2.522215 1.981247 2.785259 0
M  V30 42 H 1.690762 -0.247776 2.167522 0
M  V30 43 H 0.192042 -4.821855 1.456166 0
M  V30 END ATOM
M  V30 BEGIN BOND
M  V30 1 1 1 2
M  V30 2 1 2 3
M  V30 3 2 3 4
M  V30 4 1 3 5
M  V30 5 2 5 6
M  V30 6 1 6 7
M  V30 7 2 7 8
M  V30 8 1 8 9
M  V30 9 1 9 10
M  V30 10 1 10 11
M  V30 11 2 11 12
M  V30 12 1 12 13
M  V30 13 2 13 14
M  V30 14 1 14 15
M  V30 15 1 15 16
M  V30 16 2 16 17
M  V30 17 1 17 18
M  V30 18 2 18 19
M  V30 19 1 19 20
M  V30 20 1 19 21
M  V30 21 2 21 22
M  V30 22 1 14 23
M  V30 23 2 23 24
M  V30 24 2 10 25
M  V30 25 1 25 26
M  V30 26 2 26 27
M  V30 27 1 27 5
M  V30 28 1 26 8
M  V30 29 1 24 11
M  V30 30 1 22 16
M  V30 31 1 1 28
M  V30 32 1 1 29
M  V30 33 1 1 30
M  V30 34 1 2 31
M  V30 35 1 6 32
M  V30 36 1 7 33
M  V30 37 1 9 34
M  V30 38 1 12 35
M  V30 39 1 13 36
M  V30 40 1 17 37
M  V30 41 1 18 38
M  V30 42 1 21 39
M  V30 43 1 22 40
M  V30 44 1 23 41
M  V30 45 1 24 42
M  V30 46 1 27 43
M  V30 END BOND
M  V30 END CTAB
M  END
>  <Dataset>  (204) 
ChEMBL_Kinases

>  <Ligand_Instance>  (204) 
nan

>  <PDB_ID>  (204) 
nan

>  <Standardized_SMILES>  (204) 
CNC(=O)c1ccc2[nH]c(-c3ccc(Oc4ccc(Cl)cc4)cc3)nc2c1

>  <Name>  (204) 
nan

>  <Pocket>  (204) 
nan

>  <ATP_Site>  (204) 
nan

>  <Peripheral>  (204) 
nan

>  <Num_H_Atoms_ProtBoundConf>  (204) 
nan

>  <Num_Resolved_Atoms>  (204) 
nan

>  <Num_Not_Resolved_Atoms>  (204) 
nan

$$$$
CHEMBL3983778
     RDKit          3D

  0  0  0  0  0  0  0  0  0  0999 V3000
M  V30 BEGIN CTAB
M  V30 COUNTS 52 56 0 0 0
M  V30 BEGIN ATOM
M  V30 1 C 1.791802 -3.576987 7.732967 0
M  V30 2 O 1.652712 -2.178040 7.444555 0
M  V30 3 C 1.437783 -1.729357 6.150674 0
M  V30 4 O 1.408907 -2.772826 5.432386 0
M  V30 5 N 1.283742 -0.384305 5.728953 0
M  V30 6 C 1.074262 -0.280294 4.313234 0
M  V30 7 N 1.964621 -0.147316 3.310906 0
M  V30 8 C 1.324178 -0.088586 2.124020 0
M  V30 9 C 1.687600 0.039133 0.798501 0
M  V30 10 C 0.743359 0.065167 -0.212318 0
M  V30 11 C 1.106643 0.205220 -1.646736 0
M  V30 12 O 2.423055 -0.191994 -1.817014 0
M  V30 13 C 0.889761 1.628130 -1.986898 0
M  V30 14 C 1.514175 2.781883 -1.517806 0
M  V30 15 C 1.170043 4.045599 -1.950647 0
M  V30 16 C 0.169422 4.208124 -2.886978 0
M  V30 17 C -0.449890 3.068221 -3.352910 0
M  V30 18 C -0.106486 1.826789 -2.922907 0
M  V30 19 C -0.564286 0.462620 -3.229124 0
M  V30 20 O -1.501206 0.288559 -4.077503 0
M  V30 21 N 0.179604 -0.506988 -2.461725 0
M  V30 22 S -0.168306 -2.177350 -2.672228 0
M  V30 23 O -0.631917 -2.485937 -4.088501 0
M  V30 24 O 1.089481 -3.013970 -2.490329 0
M  V30 25 C -1.392460 -2.766321 -1.598301 0
M  V30 26 C -2.717584 -2.689956 -1.988153 0
M  V30 27 C -3.790844 -3.123359 -1.234766 0
M  V30 28 C -3.498411 -3.672873 0.001060 0
M  V30 29 C -2.211071 -3.781704 0.454580 0
M  V30 30 C -1.188485 -3.329132 -0.348623 0
M  V30 31 C -0.566866 -0.044571 0.202088 0
M  V30 32 C -0.990289 -0.174134 1.508385 0
M  V30 33 C -0.011599 -0.195335 2.483032 0
M  V30 34 N -0.178939 -0.312764 3.814120 0
M  V30 35 H 0.825139 -4.093483 7.822078 0
M  V30 36 H 2.351891 -4.064988 6.881707 0
M  V30 37 H 2.453839 -3.653384 8.610358 0
M  V30 38 H 1.341372 0.329965 6.485779 0
M  V30 39 H 2.739784 0.119597 0.563486 0
M  V30 40 H 2.819583 0.097852 -2.658751 0
M  V30 41 H 2.306656 2.725864 -0.783029 0
M  V30 42 H 1.638788 4.952800 -1.601910 0
M  V30 43 H -0.159061 5.165571 -3.277765 0
M  V30 44 H -1.234498 3.173333 -4.085481 0
M  V30 45 H -2.999040 -2.266209 -2.950946 0
M  V30 46 H -4.810239 -3.044026 -1.578941 0
M  V30 47 H -4.274792 -4.040171 0.662331 0
M  V30 48 H -1.995792 -4.211330 1.418288 0
M  V30 49 H -0.152901 -3.397838 -0.024704 0
M  V30 50 H -1.314321 -0.024234 -0.591877 0
M  V30 51 H -2.034308 -0.254697 1.753943 0
M  V30 52 H -1.080267 -0.406510 4.323130 0
M  V30 END ATOM
M  V30 BEGIN BOND
M  V30 1 1 1 2
M  V30 2 1 2 3
M  V30 3 2 3 4
M  V30 4 1 3 5
M  V30 5 1 5 6
M  V30 6 2 6 7
M  V30 7 1 7 8
M  V30 8 2 8 9
M  V30 9 1 9 10
M  V30 10 1 10 11
M  V30 11 1 11 12
M  V30 12 1 11 13
M  V30 13 2 13 14
M  V30 14 1 14 15
M  V30 15 2 15 16
M  V30 16 1 16 17
M  V30 17 2 17 18
M  V30 18 1 18 19
M  V30 19 2 19 20
M  V30 20 1 19 21
M  V30 21 1 21 22
M  V30 22 2 22 23
M  V30 23 2 22 24
M  V30 24 1 22 25
M  V30 25 2 25 26
M  V30 26 1 26 27
M  V30 27 2 27 28
M  V30 28 1 28 29
M  V30 29 2 29 30
M  V30 30 2 10 31
M  V30 31 1 31 32
M  V30 32 2 32 33
M  V30 33 1 33 34
M  V30 34 1 34 6
M  V30 35 1 33 8
M  V30 36 1 21 11
M  V30 37 1 30 25
M  V30 38 1 18 13
M  V30 39 1 1 35
M  V30 40 1 1 36
M  V30 41 1 1 37
M  V30 42 1 5 38
M  V30 43 1 9 39
M  V30 44 1 12 40
M  V30 45 1 14 41
M  V30 46 1 15 42
M  V30 47 1 16 43
M  V30 48 1 17 44
M  V30 49 1 26 45
M  V30 50 1 27 46
M  V30 51 1 28 47
M  V30 52 1 29 48
M  V30 53 1 30 49
M  V30 54 1 31 50
M  V30 55 1 32 51
M  V30 56 1 34 52
M  V30 END BOND
M  V30 END CTAB
M  END
>  <Dataset>  (205) 
ChEMBL_Kinases

>  <Ligand_Instance>  (205) 
nan

>  <PDB_ID>  (205) 
nan

>  <Standardized_SMILES>  (205) 
COC(=O)Nc1nc2cc(C3(O)c4ccccc4C(=O)N3S(=O)(=O)c3ccccc3)ccc2[nH]1

>  <Name>  (205) 
nan

>  <Pocket>  (205) 
nan

>  <ATP_Site>  (205) 
nan

>  <Peripheral>  (205) 
nan

>  <Num_H_Atoms_ProtBoundConf>  (205) 
nan

>  <Num_Resolved_Atoms>  (205) 
nan

>  <Num_Not_Resolved_Atoms>  (205) 
nan

$$$$
CHEMBL94495
     RDKit          3D

  0  0  0  0  0  0  0  0  0  0999 V3000
M  V30 BEGIN CTAB
M  V30 COUNTS 45 48 0 0 0
M  V30 BEGIN ATOM
M  V30 1 C 2.941426 -4.450409 2.945150 0
M  V30 2 O 2.112209 -3.499272 2.302492 0
M  V30 3 C 2.299228 -2.158041 2.483341 0
M  V30 4 O 3.218172 -1.689630 3.230676 0
M  V30 5 C 1.460420 -1.183687 1.833537 0
M  V30 6 C 1.665089 0.173253 2.028904 0
M  V30 7 C 0.843599 1.106217 1.392021 0
M  V30 8 C 1.126991 2.514888 1.651672 0
M  V30 9 C 2.031729 3.134654 0.782813 0
M  V30 10 C 2.425619 4.463826 0.868391 0
M  V30 11 C 1.853572 5.195100 1.909541 0
M  V30 12 C 0.949724 4.610514 2.792684 0
M  V30 13 C 0.605231 3.282809 2.645487 0
M  V30 14 F -0.272651 2.676859 3.486522 0
M  V30 15 C -0.174150 0.698703 0.566893 0
M  V30 16 C -0.342246 -0.655329 0.400904 0
M  V30 17 C 0.431716 -1.612806 0.999126 0
M  V30 18 N -1.398474 -1.106598 -0.456068 0
M  V30 19 C -1.599016 -2.505047 -0.649087 0
M  V30 20 C -0.861296 -2.994037 -1.731987 0
M  V30 21 Cl 0.190949 -2.045817 -2.752827 0
M  V30 22 C -0.948013 -4.341661 -2.051907 0
M  V30 23 C -1.752400 -5.221269 -1.320806 0
M  V30 24 C -2.453766 -4.675829 -0.265639 0
M  V30 25 C -2.393990 -3.341505 0.083915 0
M  V30 26 Cl -3.257760 -2.617119 1.400160 0
M  V30 27 C -2.268683 -0.196027 -1.132508 0
M  V30 28 O -3.191019 -0.617624 -1.881479 0
M  V30 29 N -2.037075 1.174154 -0.915248 0
M  V30 30 C -0.993602 1.730523 -0.066045 0
M  V30 31 H 2.356644 -4.992677 3.727148 0
M  V30 32 H 3.376823 -5.184112 2.228737 0
M  V30 33 H 3.807767 -3.951882 3.455382 0
M  V30 34 H 2.461850 0.506487 2.675189 0
M  V30 35 H 2.479325 2.557494 -0.033996 0
M  V30 36 H 3.126677 4.861338 0.158890 0
M  V30 37 H 2.150866 6.249238 1.996425 0
M  V30 38 H 0.526058 5.215312 3.591455 0
M  V30 39 H 0.254699 -2.673720 0.832740 0
M  V30 40 H -0.394892 -4.779990 -2.886672 0
M  V30 41 H -1.808389 -6.268346 -1.583677 0
M  V30 42 H -3.093242 -5.320323 0.332981 0
M  V30 43 H -2.654320 1.872727 -1.393845 0
M  V30 44 H -1.550965 2.256668 0.749025 0
M  V30 45 H -0.421601 2.428993 -0.710265 0
M  V30 END ATOM
M  V30 BEGIN BOND
M  V30 1 1 1 2
M  V30 2 1 2 3
M  V30 3 2 3 4
M  V30 4 1 3 5
M  V30 5 2 5 6
M  V30 6 1 6 7
M  V30 7 1 7 8
M  V30 8 2 8 9
M  V30 9 1 9 10
M  V30 10 2 10 11
M  V30 11 1 11 12
M  V30 12 2 12 13
M  V30 13 1 13 14
M  V30 14 2 7 15
M  V30 15 1 15 16
M  V30 16 2 16 17
M  V30 17 1 16 18
M  V30 18 1 18 19
M  V30 19 2 19 20
M  V30 20 1 20 21
M  V30 21 1 20 22
M  V30 22 2 22 23
M  V30 23 1 23 24
M  V30 24 2 24 25
M  V30 25 1 25 26
M  V30 26 1 18 27
M  V30 27 2 27 28
M  V30 28 1 27 29
M  V30 29 1 29 30
M  V30 30 1 17 5
M  V30 31 1 25 19
M  V30 32 1 13 8
M  V30 33 1 30 15
M  V30 34 1 1 31
M  V30 35 1 1 32
M  V30 36 1 1 33
M  V30 37 1 6 34
M  V30 38 1 9 35
M  V30 39 1 10 36
M  V30 40 1 11 37
M  V30 41 1 12 38
M  V30 42 1 17 39
M  V30 43 1 22 40
M  V30 44 1 23 41
M  V30 45 1 24 42
M  V30 46 1 29 43
M  V30 47 1 30 44
M  V30 48 1 30 45
M  V30 END BOND
M  V30 END CTAB
M  END
>  <Dataset>  (206) 
ChEMBL_Kinases

>  <Ligand_Instance>  (206) 
nan

>  <PDB_ID>  (206) 
nan

>  <Standardized_SMILES>  (206) 
COC(=O)c1cc(-c2ccccc2F)c2c(c1)N(c1c(Cl)cccc1Cl)C(=O)NC2

>  <Name>  (206) 
nan

>  <Pocket>  (206) 
nan

>  <ATP_Site>  (206) 
nan

>  <Peripheral>  (206) 
nan

>  <Num_H_Atoms_ProtBoundConf>  (206) 
nan

>  <Num_Resolved_Atoms>  (206) 
nan

>  <Num_Not_Resolved_Atoms>  (206) 
nan

$$$$
CHEMBL94492
     RDKit          3D

  0  0  0  0  0  0  0  0  0  0999 V3000
M  V30 BEGIN CTAB
M  V30 COUNTS 71 71 0 0 0
M  V30 BEGIN ATOM
M  V30 1 C 2.025471 -2.030278 6.026115 0
M  V30 2 C 3.491743 -2.303714 5.774322 0
M  V30 3 C 3.858124 -2.042287 4.317723 0
M  V30 4 C 3.584812 -0.620033 3.952119 0
M  V30 5 C 3.925916 -0.297179 2.530679 0
M  V30 6 C 3.112976 -1.164451 1.569548 0
M  V30 7 C 3.475140 -0.817877 0.128121 0
M  V30 8 C 2.675314 -1.678737 -0.804490 0
M  V30 9 C 1.237550 -1.467203 -0.617839 0
M  V30 10 C 0.317260 -1.044555 -1.480811 0
M  V30 11 C 0.605962 -0.688440 -2.879681 0
M  V30 12 C 0.310563 0.701027 -3.299348 0
M  V30 13 C 0.982327 1.821101 -2.653890 0
M  V30 14 C 0.882563 2.175999 -1.252739 0
M  V30 15 C -0.390964 2.607311 -0.637021 0
M  V30 16 C -1.552900 1.711081 -0.582866 0
M  V30 17 C -2.683971 2.512252 0.120957 0
M  V30 18 C -3.886264 1.657253 0.205172 0
M  V30 19 O -4.925006 2.122451 0.746248 0
M  V30 20 O -3.925739 0.364087 -0.284186 0
M  V30 21 C -5.097341 -0.439005 -0.190414 0
M  V30 22 C -4.811694 -1.776393 -0.809689 0
M  V30 23 C -3.670307 -2.491459 -0.102728 0
M  V30 24 O -3.391663 -3.696346 -0.744524 0
M  V30 25 C -4.543789 -1.691385 -2.286323 0
M  V30 26 C -4.887303 -3.083057 -2.768240 0
M  V30 27 C -5.619798 -3.672980 -1.626950 0
M  V30 28 O -5.781089 -4.938545 -1.706230 0
M  V30 29 O -5.938508 -2.640834 -0.755233 0
M  V30 30 H 1.558000 -2.887453 6.581617 0
M  V30 31 H 1.468912 -1.989903 5.055363 0
M  V30 32 H 1.848921 -1.080043 6.573329 0
M  V30 33 H 3.695242 -3.370549 5.951526 0
M  V30 34 H 4.154126 -1.733247 6.455400 0
M  V30 35 H 4.930569 -2.298451 4.215771 0
M  V30 36 H 3.209518 -2.737486 3.727910 0
M  V30 37 H 4.164073 0.026901 4.639588 0
M  V30 38 H 2.514439 -0.396926 4.194992 0
M  V30 39 H 5.011333 -0.479159 2.392481 0
M  V30 40 H 3.741989 0.772716 2.355600 0
M  V30 41 H 3.317281 -2.226527 1.761802 0
M  V30 42 H 2.062945 -0.926117 1.771872 0
M  V30 43 H 4.570789 -1.031128 -0.048418 0
M  V30 44 H 3.346195 0.265634 -0.030664 0
M  V30 45 H 2.889229 -2.745810 -0.514560 0
M  V30 46 H 3.040185 -1.469783 -1.824838 0
M  V30 47 H 0.826919 -1.680816 0.362012 0
M  V30 48 H -0.723427 -0.944081 -1.228807 0
M  V30 49 H -0.093933 -1.343122 -3.490583 0
M  V30 50 H 1.609927 -1.049214 -3.212239 0
M  V30 51 H 0.579231 0.699058 -4.427577 0
M  V30 52 H -0.810097 0.806239 -3.381535 0
M  V30 53 H 0.709765 2.753761 -3.275341 0
M  V30 54 H 2.094288 1.741540 -2.950304 0
M  V30 55 H 1.595325 3.059503 -1.070244 0
M  V30 56 H 1.322753 1.419937 -0.542648 0
M  V30 57 H -0.125385 2.828647 0.456177 0
M  V30 58 H -0.682920 3.662360 -0.979977 0
M  V30 59 H -1.373419 0.852089 0.121404 0
M  V30 60 H -1.981887 1.318310 -1.488281 0
M  V30 61 H -2.302381 2.799474 1.112222 0
M  V30 62 H -2.924109 3.413893 -0.467548 0
M  V30 63 H -5.458013 -0.573442 0.835076 0
M  V30 64 H -5.862590 0.062057 -0.811655 0
M  V30 65 H -3.987199 -2.652452 0.946964 0
M  V30 66 H -2.763079 -1.865651 -0.173736 0
M  V30 67 H -2.668283 -4.164232 -0.269573 0
M  V30 68 H -3.498212 -1.405928 -2.522824 0
M  V30 69 H -5.285899 -0.965813 -2.719699 0
M  V30 70 H -3.953123 -3.637408 -3.011361 0
M  V30 71 H -5.510112 -3.044613 -3.686898 0
M  V30 END ATOM
M  V30 BEGIN BOND
M  V30 1 1 1 2
M  V30 2 1 2 3
M  V30 3 1 3 4
M  V30 4 1 4 5
M  V30 5 1 5 6
M  V30 6 1 6 7
M  V30 7 1 7 8
M  V30 8 1 8 9
M  V30 9 2 9 10
M  V30 10 1 10 11
M  V30 11 1 11 12
M  V30 12 1 12 13
M  V30 13 1 13 14
M  V30 14 1 14 15
M  V30 15 1 15 16
M  V30 16 1 16 17
M  V30 17 1 17 18
M  V30 18 2 18 19
M  V30 19 1 18 20
M  V30 20 1 20 21
M  V30 21 1 21 22
M  V30 22 1 22 23
M  V30 23 1 23 24
M  V30 24 1 22 25
M  V30 25 1 25 26
M  V30 26 1 26 27
M  V30 27 2 27 28
M  V30 28 1 27 29
M  V30 29 1 29 22
M  V30 30 1 1 30
M  V30 31 1 1 31
M  V30 32 1 1 32
M  V30 33 1 2 33
M  V30 34 1 2 34
M  V30 35 1 3 35
M  V30 36 1 3 36
M  V30 37 1 4 37
M  V30 38 1 4 38
M  V30 39 1 5 39
M  V30 40 1 5 40
M  V30 41 1 6 41
M  V30 42 1 6 42
M  V30 43 1 7 43
M  V30 44 1 7 44
M  V30 45 1 8 45
M  V30 46 1 8 46
M  V30 47 1 9 47
M  V30 48 1 10 48
M  V30 49 1 11 49
M  V30 50 1 11 50
M  V30 51 1 12 51
M  V30 52 1 12 52
M  V30 53 1 13 53
M  V30 54 1 13 54
M  V30 55 1 14 55
M  V30 56 1 14 56
M  V30 57 1 15 57
M  V30 58 1 15 58
M  V30 59 1 16 59
M  V30 60 1 16 60
M  V30 61 1 17 61
M  V30 62 1 17 62
M  V30 63 1 21 63
M  V30 64 1 21 64
M  V30 65 1 23 65
M  V30 66 1 23 66
M  V30 67 1 24 67
M  V30 68 1 25 68
M  V30 69 1 25 69
M  V30 70 1 26 70
M  V30 71 1 26 71
M  V30 END BOND
M  V30 END CTAB
M  END
>  <Dataset>  (207) 
ChEMBL_Kinases

>  <Ligand_Instance>  (207) 
nan

>  <PDB_ID>  (207) 
nan

>  <Standardized_SMILES>  (207) 
CCCCCCCC/C=C\CCCCCCCC(=O)OCC1(CO)CCC(=O)O1

>  <Name>  (207) 
nan

>  <Pocket>  (207) 
nan

>  <ATP_Site>  (207) 
nan

>  <Peripheral>  (207) 
nan

>  <Num_H_Atoms_ProtBoundConf>  (207) 
nan

>  <Num_Resolved_Atoms>  (207) 
nan

>  <Num_Not_Resolved_Atoms>  (207) 
nan

$$$$
CHEMBL3986273
     RDKit          3D

  0  0  0  0  0  0  0  0  0  0999 V3000
M  V30 BEGIN CTAB
M  V30 COUNTS 57 60 0 0 0
M  V30 BEGIN ATOM
M  V30 1 C 0.170820 -3.578860 2.324310 0
M  V30 2 C 0.439044 -2.136044 2.231062 0
M  V30 3 N 1.095281 -1.510160 3.224400 0
M  V30 4 C 1.375851 -0.184747 3.195285 0
M  V30 5 C 0.954940 0.518702 2.084158 0
M  V30 6 N 1.284063 1.907472 2.121291 0
M  V30 7 C 2.557155 2.136783 1.534723 0
M  V30 8 O 3.111990 1.067709 1.113055 0
M  V30 9 C 3.227262 3.401794 1.388602 0
M  V30 10 C 4.467493 3.371267 0.784011 0
M  V30 11 C 5.145893 4.566954 0.624203 0
M  V30 12 C 4.600665 5.752559 1.055217 0
M  V30 13 C 3.343391 5.727625 1.660236 0
M  V30 14 C 2.831877 7.070763 2.097090 0
M  V30 15 F 1.730021 6.937903 2.884612 0
M  V30 16 F 3.915331 7.665078 2.751990 0
M  V30 17 F 2.494303 7.833703 0.986937 0
M  V30 18 C 2.634617 4.557218 1.838313 0
M  V30 19 C 0.279999 -0.100555 1.052154 0
M  V30 20 C 0.002457 -1.469319 1.105854 0
M  V30 21 C -0.717451 -2.056109 -0.016943 0
M  V30 22 C -1.777478 -2.895122 0.087662 0
M  V30 23 C -2.405283 -3.413853 -1.021284 0
M  V30 24 N -3.501203 -4.271573 -0.848228 0
M  V30 25 C -3.910728 -4.669242 0.488077 0
M  V30 26 C -4.756785 -5.895554 0.387928 0
M  V30 27 O -4.331680 -6.847684 -0.501885 0
M  V30 28 C -4.065616 -6.373981 -1.762970 0
M  V30 29 C -4.377627 -4.881982 -1.820410 0
M  V30 30 C -1.853552 -2.998069 -2.208620 0
M  V30 31 O -2.343183 -3.406751 -3.269776 0
M  V30 32 N -0.814102 -2.175966 -2.359409 0
M  V30 33 C -0.298802 -1.791206 -3.660417 0
M  V30 34 C -0.203071 -1.670843 -1.260681 0
M  V30 35 H 0.137159 -4.047430 1.314838 0
M  V30 36 H 1.010393 -4.126123 2.843444 0
M  V30 37 H -0.724000 -3.831843 2.948751 0
M  V30 38 H 1.904811 0.254673 4.023967 0
M  V30 39 H 0.780931 2.763518 2.487618 0
M  V30 40 H 4.934207 2.448012 0.427939 0
M  V30 41 H 6.120387 4.532672 0.147697 0
M  V30 42 H 5.149465 6.681193 0.920547 0
M  V30 43 H 1.663778 4.594638 2.313441 0
M  V30 44 H -0.022908 0.517115 0.204818 0
M  V30 45 H -2.038831 -3.078348 1.098484 0
M  V30 46 H -3.042456 -4.823475 1.164157 0
M  V30 47 H -4.556187 -3.836680 0.868962 0
M  V30 48 H -5.838216 -5.625431 0.303549 0
M  V30 49 H -4.701174 -6.392463 1.406444 0
M  V30 50 H -4.573443 -6.937445 -2.562534 0
M  V30 51 H -2.946368 -6.433090 -1.891884 0
M  V30 52 H -5.462938 -4.819901 -1.511451 0
M  V30 53 H -4.294149 -4.510122 -2.837728 0
M  V30 54 H 0.797998 -1.954205 -3.633979 0
M  V30 55 H -0.476966 -0.693855 -3.776782 0
M  V30 56 H -0.710841 -2.383320 -4.476482 0
M  V30 57 H 0.645469 -0.999752 -1.383270 0
M  V30 END ATOM
M  V30 BEGIN BOND
M  V30 1 1 1 2
M  V30 2 2 2 3
M  V30 3 1 3 4
M  V30 4 2 4 5
M  V30 5 1 5 6
M  V30 6 1 6 7
M  V30 7 2 7 8
M  V30 8 1 7 9
M  V30 9 2 9 10
M  V30 10 1 10 11
M  V30 11 2 11 12
M  V30 12 1 12 13
M  V30 13 1 13 14
M  V30 14 1 14 15
M  V30 15 1 14 16
M  V30 16 1 14 17
M  V30 17 2 13 18
M  V30 18 1 5 19
M  V30 19 2 19 20
M  V30 20 1 20 21
M  V30 21 1 21 22
M  V30 22 2 22 23
M  V30 23 1 23 24
M  V30 24 1 24 25
M  V30 25 1 25 26
M  V30 26 1 26 27
M  V30 27 1 27 28
M  V30 28 1 28 29
M  V30 29 1 23 30
M  V30 30 2 30 31
M  V30 31 1 30 32
M  V30 32 1 32 33
M  V30 33 1 32 34
M  V30 34 1 20 2
M  V30 35 2 34 21
M  V30 36 1 18 9
M  V30 37 1 29 24
M  V30 38 1 1 35
M  V30 39 1 1 36
M  V30 40 1 1 37
M  V30 41 1 4 38
M  V30 42 1 6 39
M  V30 43 1 10 40
M  V30 44 1 11 41
M  V30 45 1 12 42
M  V30 46 1 18 43
M  V30 47 1 19 44
M  V30 48 1 22 45
M  V30 49 1 25 46
M  V30 50 1 25 47
M  V30 51 1 26 48
M  V30 52 1 26 49
M  V30 53 1 28 50
M  V30 54 1 28 51
M  V30 55 1 29 52
M  V30 56 1 29 53
M  V30 57 1 33 54
M  V30 58 1 33 55
M  V30 59 1 33 56
M  V30 60 1 34 57
M  V30 END BOND
M  V30 END CTAB
M  END
>  <Dataset>  (208) 
ChEMBL_Kinases

>  <Ligand_Instance>  (208) 
nan

>  <PDB_ID>  (208) 
nan

>  <Standardized_SMILES>  (208) 
Cc1ncc(NC(=O)c2cccc(C(F)(F)F)c2)cc1-c1cc(N2CCOCC2)c(=O)n(C)c1

>  <Name>  (208) 
nan

>  <Pocket>  (208) 
nan

>  <ATP_Site>  (208) 
nan

>  <Peripheral>  (208) 
nan

>  <Num_H_Atoms_ProtBoundConf>  (208) 
nan

>  <Num_Resolved_Atoms>  (208) 
nan

>  <Num_Not_Resolved_Atoms>  (208) 
nan

$$$$
CHEMBL398627
     RDKit          3D

  0  0  0  0  0  0  0  0  0  0999 V3000
M  V30 BEGIN CTAB
M  V30 COUNTS 37 39 0 0 0
M  V30 BEGIN ATOM
M  V30 1 C -1.860556 -1.883058 2.639276 0
M  V30 2 C -0.470292 -2.457331 2.435887 0
M  V30 3 C -0.071159 -2.463968 0.990466 0
M  V30 4 N -0.044538 -1.159068 0.378429 0
M  V30 5 C 1.012149 -0.347268 0.412133 0
M  V30 6 C 2.334581 -0.350746 0.988823 0
M  V30 7 C 2.916647 -1.293592 1.790206 0
M  V30 8 C 4.173281 -1.265125 2.348216 0
M  V30 9 N 4.922815 -0.157470 2.062614 0
M  V30 10 C 4.401012 0.807446 1.277129 0
M  V30 11 N 5.090128 2.000396 0.915868 0
M  V30 12 N 3.173798 0.678299 0.789287 0
M  V30 13 C 0.607205 0.746105 -0.332434 0
M  V30 14 C -0.664385 0.583273 -0.794808 0
M  V30 15 C -1.064799 -0.642913 -0.328434 0
M  V30 16 C -2.432652 -1.193297 -0.627754 0
M  V30 17 C -2.972182 -0.611339 -1.910760 0
M  V30 18 N -2.924537 0.840966 -1.907155 0
M  V30 19 C -1.606927 1.338853 -1.596555 0
M  V30 20 O -1.212580 2.477924 -2.019588 0
M  V30 21 H -1.871358 -0.791168 2.423426 0
M  V30 22 H -2.112077 -1.999709 3.718809 0
M  V30 23 H -2.576441 -2.442483 2.029461 0
M  V30 24 H -0.477841 -3.483640 2.843270 0
M  V30 25 H 0.216778 -1.855395 3.052351 0
M  V30 26 H -0.890471 -3.063423 0.442430 0
M  V30 27 H 0.811164 -3.072018 0.830145 0
M  V30 28 H 2.375822 -2.169664 2.061359 0
M  V30 29 H 4.555819 -2.057090 2.972131 0
M  V30 30 H 5.924870 2.230914 0.350080 0
M  V30 31 H 4.830023 2.984564 1.203598 0
M  V30 32 H 1.126273 1.682295 -0.597281 0
M  V30 33 H -3.126741 -0.948446 0.208640 0
M  V30 34 H -2.346381 -2.290423 -0.766636 0
M  V30 35 H -4.041787 -0.898999 -1.963517 0
M  V30 36 H -2.449105 -0.999941 -2.790760 0
M  V30 37 H -3.657910 1.570113 -2.085382 0
M  V30 END ATOM
M  V30 BEGIN BOND
M  V30 1 1 1 2
M  V30 2 1 2 3
M  V30 3 1 3 4
M  V30 4 1 4 5
M  V30 5 1 5 6
M  V30 6 2 6 7
M  V30 7 1 7 8
M  V30 8 2 8 9
M  V30 9 1 9 10
M  V30 10 1 10 11
M  V30 11 2 10 12
M  V30 12 2 5 13
M  V30 13 1 13 14
M  V30 14 2 14 15
M  V30 15 1 15 16
M  V30 16 1 16 17
M  V30 17 1 17 18
M  V30 18 1 18 19
M  V30 19 2 19 20
M  V30 20 1 15 4
M  V30 21 1 12 6
M  V30 22 1 19 14
M  V30 23 1 1 21
M  V30 24 1 1 22
M  V30 25 1 1 23
M  V30 26 1 2 24
M  V30 27 1 2 25
M  V30 28 1 3 26
M  V30 29 1 3 27
M  V30 30 1 7 28
M  V30 31 1 8 29
M  V30 32 1 11 30
M  V30 33 1 11 31
M  V30 34 1 13 32
M  V30 35 1 16 33
M  V30 36 1 16 34
M  V30 37 1 17 35
M  V30 38 1 17 36
M  V30 39 1 18 37
M  V30 END BOND
M  V30 END CTAB
M  END
>  <Dataset>  (209) 
ChEMBL_Kinases

>  <Ligand_Instance>  (209) 
nan

>  <PDB_ID>  (209) 
nan

>  <Standardized_SMILES>  (209) 
CCCn1c(-c2ccnc(N)n2)cc2c1CCNC2=O

>  <Name>  (209) 
nan

>  <Pocket>  (209) 
nan

>  <ATP_Site>  (209) 
nan

>  <Peripheral>  (209) 
nan

>  <Num_H_Atoms_ProtBoundConf>  (209) 
nan

>  <Num_Resolved_Atoms>  (209) 
nan

>  <Num_Not_Resolved_Atoms>  (209) 
nan

$$$$
CHEMBL398626
     RDKit          3D

  0  0  0  0  0  0  0  0  0  0999 V3000
M  V30 BEGIN CTAB
M  V30 COUNTS 31 33 0 0 0
M  V30 BEGIN ATOM
M  V30 1 C -0.631890 -1.462170 2.768134 0
M  V30 2 N -0.399312 -0.689760 1.594162 0
M  V30 3 C 0.369241 -1.088375 0.574386 0
M  V30 4 C 1.148119 -2.267790 0.292231 0
M  V30 5 C 1.290393 -3.369801 1.099366 0
M  V30 6 C 2.037791 -4.491314 0.818590 0
M  V30 7 N 2.705145 -4.530736 -0.363852 0
M  V30 8 C 2.589371 -3.469272 -1.180191 0
M  V30 9 N 3.242981 -3.382723 -2.459536 0
M  V30 10 N 1.843236 -2.397227 -0.853813 0
M  V30 11 C 0.338967 -0.066685 -0.360085 0
M  V30 12 C -0.453483 0.966082 0.089030 0
M  V30 13 C -0.902993 0.549991 1.314417 0
M  V30 14 C -1.793634 1.409351 2.110077 0
M  V30 15 C -1.701666 2.855087 1.764075 0
M  V30 16 N -1.729300 3.117787 0.341657 0
M  V30 17 C -0.856800 2.266518 -0.431478 0
M  V30 18 O -0.427643 2.621031 -1.560300 0
M  V30 19 H -1.240781 -2.378782 2.636978 0
M  V30 20 H -1.313909 -0.840313 3.434860 0
M  V30 21 H 0.252478 -1.587441 3.438582 0
M  V30 22 H 0.791818 -3.405250 2.045482 0
M  V30 23 H 2.107375 -5.326061 1.499794 0
M  V30 24 H 4.085264 -2.801904 -2.219705 0
M  V30 25 H 3.064743 -3.738083 -3.445693 0
M  V30 26 H 0.819784 0.042725 -1.345719 0
M  V30 27 H -1.614339 1.310743 3.200436 0
M  V30 28 H -2.841212 1.069737 1.935151 0
M  V30 29 H -2.557373 3.414798 2.193058 0
M  V30 30 H -0.770695 3.307030 2.164350 0
M  V30 31 H -2.297041 3.838495 -0.178980 0
M  V30 END ATOM
M  V30 BEGIN BOND
M  V30 1 1 1 2
M  V30 2 1 2 3
M  V30 3 1 3 4
M  V30 4 2 4 5
M  V30 5 1 5 6
M  V30 6 2 6 7
M  V30 7 1 7 8
M  V30 8 1 8 9
M  V30 9 2 8 10
M  V30 10 2 3 11
M  V30 11 1 11 12
M  V30 12 2 12 13
M  V30 13 1 13 14
M  V30 14 1 14 15
M  V30 15 1 15 16
M  V30 16 1 16 17
M  V30 17 2 17 18
M  V30 18 1 13 2
M  V30 19 1 10 4
M  V30 20 1 17 12
M  V30 21 1 1 19
M  V30 22 1 1 20
M  V30 23 1 1 21
M  V30 24 1 5 22
M  V30 25 1 6 23
M  V30 26 1 9 24
M  V30 27 1 9 25
M  V30 28 1 11 26
M  V30 29 1 14 27
M  V30 30 1 14 28
M  V30 31 1 15 29
M  V30 32 1 15 30
M  V30 33 1 16 31
M  V30 END BOND
M  V30 END CTAB
M  END
>  <Dataset>  (210) 
ChEMBL_Kinases

>  <Ligand_Instance>  (210) 
nan

>  <PDB_ID>  (210) 
nan

>  <Standardized_SMILES>  (210) 
Cn1c(-c2ccnc(N)n2)cc2c1CCNC2=O

>  <Name>  (210) 
nan

>  <Pocket>  (210) 
nan

>  <ATP_Site>  (210) 
nan

>  <Peripheral>  (210) 
nan

>  <Num_H_Atoms_ProtBoundConf>  (210) 
nan

>  <Num_Resolved_Atoms>  (210) 
nan

>  <Num_Not_Resolved_Atoms>  (210) 
nan

$$$$
CHEMBL3986250
     RDKit          3D

  0  0  0  0  0  0  0  0  0  0999 V3000
M  V30 BEGIN CTAB
M  V30 COUNTS 55 59 0 0 0
M  V30 BEGIN ATOM
M  V30 1 C 7.487710 -1.769440 3.389755 0
M  V30 2 O 7.315956 -1.080467 2.141900 0
M  V30 3 C 6.017499 -0.824218 1.709159 0
M  V30 4 O 5.120090 -1.252317 2.509646 0
M  V30 5 N 5.696414 -0.152576 0.497029 0
M  V30 6 C 4.319521 0.035131 0.190904 0
M  V30 7 N 3.304275 -0.384659 0.979761 0
M  V30 8 C 2.124224 -0.060693 0.420911 0
M  V30 9 C 0.821847 -0.267345 0.829379 0
M  V30 10 C -0.220355 0.179497 0.043347 0
M  V30 11 C -1.613940 -0.050671 0.503562 0
M  V30 12 O -1.659151 -0.923807 1.586804 0
M  V30 13 C -2.226148 1.272558 0.881787 0
M  V30 14 C -1.814681 2.202174 1.808855 0
M  V30 15 C -2.478844 3.386614 2.048430 0
M  V30 16 C -3.629405 3.659498 1.313276 0
M  V30 17 C -4.044050 2.727704 0.382417 0
M  V30 18 C -3.372028 1.544379 0.149919 0
M  V30 19 C -3.558039 0.398802 -0.731255 0
M  V30 20 O -4.557868 0.392836 -1.526449 0
M  V30 21 N -2.498418 -0.545572 -0.497566 0
M  V30 22 C -2.496048 -1.759923 -1.252756 0
M  V30 23 C -1.266099 -1.934975 -2.117515 0
M  V30 24 C -2.651446 -2.935905 -0.334519 0
M  V30 25 C -1.908399 -4.093132 -0.401490 0
M  V30 26 C -2.122880 -5.122703 0.487621 0
M  V30 27 C -3.100219 -5.026049 1.484988 0
M  V30 28 C -3.838223 -3.862982 1.542790 0
M  V30 29 Cl -5.038973 -3.824609 2.819476 0
M  V30 30 C -3.627698 -2.815987 0.646814 0
M  V30 31 C 0.005798 0.832782 -1.149883 0
M  V30 32 C 1.330374 1.029435 -1.540771 0
M  V30 33 C 2.399244 0.592875 -0.774083 0
M  V30 34 N 3.740848 0.626424 -0.869178 0
M  V30 35 H 8.477260 -1.574059 3.834990 0
M  V30 36 H 7.242264 -2.849182 3.281566 0
M  V30 37 H 6.720375 -1.394461 4.122372 0
M  V30 38 H 6.459371 0.170169 -0.108676 0
M  V30 39 H 0.604820 -0.773521 1.754766 0
M  V30 40 H -1.880429 -0.409507 2.397289 0
M  V30 41 H -0.924893 2.077834 2.433478 0
M  V30 42 H -2.176065 4.135158 2.772188 0
M  V30 43 H -4.157262 4.583137 1.491986 0
M  V30 44 H -4.945116 2.935987 -0.196893 0
M  V30 45 H -3.359803 -1.824674 -1.962149 0
M  V30 46 H -1.434021 -2.865538 -2.722899 0
M  V30 47 H -1.259037 -1.120653 -2.870956 0
M  V30 48 H -0.334864 -2.016624 -1.529663 0
M  V30 49 H -1.159145 -4.158790 -1.171519 0
M  V30 50 H -1.497803 -6.009849 0.376196 0
M  V30 51 H -3.219512 -5.871140 2.153289 0
M  V30 52 H -4.270683 -1.950677 0.791819 0
M  V30 53 H -0.776012 1.197714 -1.793504 0
M  V30 54 H 1.603285 1.529628 -2.456881 0
M  V30 55 H 4.271464 1.055435 -1.662619 0
M  V30 END ATOM
M  V30 BEGIN BOND
M  V30 1 1 1 2
M  V30 2 1 2 3
M  V30 3 2 3 4
M  V30 4 1 3 5
M  V30 5 1 5 6
M  V30 6 2 6 7
M  V30 7 1 7 8
M  V30 8 2 8 9
M  V30 9 1 9 10
M  V30 10 1 10 11
M  V30 11 1 11 12
M  V30 12 1 11 13
M  V30 13 2 13 14
M  V30 14 1 14 15
M  V30 15 2 15 16
M  V30 16 1 16 17
M  V30 17 2 17 18
M  V30 18 1 18 19
M  V30 19 2 19 20
M  V30 20 1 19 21
M  V30 21 1 21 22
M  V30 22 1 22 23
M  V30 23 1 22 24
M  V30 24 2 24 25
M  V30 25 1 25 26
M  V30 26 2 26 27
M  V30 27 1 27 28
M  V30 28 1 28 29
M  V30 29 2 28 30
M  V30 30 2 10 31
M  V30 31 1 31 32
M  V30 32 2 32 33
M  V30 33 1 33 34
M  V30 34 1 34 6
M  V30 35 1 33 8
M  V30 36 1 21 11
M  V30 37 1 30 24
M  V30 38 1 18 13
M  V30 39 1 1 35
M  V30 40 1 1 36
M  V30 41 1 1 37
M  V30 42 1 5 38
M  V30 43 1 9 39
M  V30 44 1 12 40
M  V30 45 1 14 41
M  V30 46 1 15 42
M  V30 47 1 16 43
M  V30 48 1 17 44
M  V30 49 1 22 45
M  V30 50 1 23 46
M  V30 51 1 23 47
M  V30 52 1 23 48
M  V30 53 1 25 49
M  V30 54 1 26 50
M  V30 55 1 27 51
M  V30 56 1 30 52
M  V30 57 1 31 53
M  V30 58 1 32 54
M  V30 59 1 34 55
M  V30 END BOND
M  V30 END CTAB
M  END
>  <Dataset>  (211) 
ChEMBL_Kinases

>  <Ligand_Instance>  (211) 
nan

>  <PDB_ID>  (211) 
nan

>  <Standardized_SMILES>  (211) 
COC(=O)Nc1nc2cc(C3(O)c4ccccc4C(=O)N3C(C)c3cccc(Cl)c3)ccc2[nH]1

>  <Name>  (211) 
nan

>  <Pocket>  (211) 
nan

>  <ATP_Site>  (211) 
nan

>  <Peripheral>  (211) 
nan

>  <Num_H_Atoms_ProtBoundConf>  (211) 
nan

>  <Num_Resolved_Atoms>  (211) 
nan

>  <Num_Not_Resolved_Atoms>  (211) 
nan

$$$$
CHEMBL398622
     RDKit          3D

  0  0  0  0  0  0  0  0  0  0999 V3000
M  V30 BEGIN CTAB
M  V30 COUNTS 39 42 0 0 0
M  V30 BEGIN ATOM
M  V30 1 F -1.901608 -0.486203 3.706196 0
M  V30 2 C -0.625056 -0.669265 3.280096 0
M  V30 3 C 0.329630 -0.625771 4.277074 0
M  V30 4 C 1.661180 -0.803439 3.929456 0
M  V30 5 C 1.966412 -1.012758 2.620220 0
M  V30 6 C 1.003197 -1.052302 1.645989 0
M  V30 7 C -0.326235 -0.877986 1.970667 0
M  V30 8 C -1.418888 -0.904258 1.001139 0
M  V30 9 C -1.251536 -1.106155 -0.351658 0
M  V30 10 C -2.288372 -1.128280 -1.251130 0
M  V30 11 N -2.068823 -1.340529 -2.642550 0
M  V30 12 C -0.722345 -1.540188 -3.143212 0
M  V30 13 O 0.140875 -0.467891 -2.896501 0
M  V30 14 C 1.468177 -0.394144 -3.262062 0
M  V30 15 C 2.070904 0.797536 -2.880302 0
M  V30 16 C 3.406656 1.014214 -3.180811 0
M  V30 17 C 4.124542 0.048320 -3.854208 0
M  V30 18 N 3.506576 -1.085270 -4.203898 0
M  V30 19 C 2.216468 -1.352532 -3.941081 0
M  V30 20 N -3.538726 -0.943098 -0.791215 0
M  V30 21 N -4.716300 -0.913824 -1.416160 0
M  V30 22 C -5.699279 -0.694112 -0.514150 0
M  V30 23 C -5.095199 -0.582001 0.733289 0
M  V30 24 Br -6.010334 -0.267725 2.373001 0
M  V30 25 C -3.726597 -0.744204 0.525100 0
M  V30 26 N -2.708775 -0.726095 1.381739 0
M  V30 27 H 0.070059 -0.456205 5.328926 0
M  V30 28 H 2.415677 -0.770054 4.710170 0
M  V30 29 H 3.034273 -1.148270 2.392264 0
M  V30 30 H 1.266187 -1.219479 0.614016 0
M  V30 31 H -0.262303 -1.255144 -0.733244 0
M  V30 32 H -2.861179 -1.353349 -3.297814 0
M  V30 33 H -0.307481 -2.440424 -2.601549 0
M  V30 34 H -0.749732 -1.836871 -4.199794 0
M  V30 35 H 1.566420 1.597526 -2.349751 0
M  V30 36 H 3.898536 1.922602 -2.899593 0
M  V30 37 H 5.180807 0.157743 -4.121120 0
M  V30 38 H 1.680225 -2.237957 -4.198048 0
M  V30 39 H -6.780146 -0.611821 -0.683691 0
M  V30 END ATOM
M  V30 BEGIN BOND
M  V30 1 1 1 2
M  V30 2 2 2 3
M  V30 3 1 3 4
M  V30 4 2 4 5
M  V30 5 1 5 6
M  V30 6 2 6 7
M  V30 7 1 7 8
M  V30 8 1 8 9
M  V30 9 2 9 10
M  V30 10 1 10 11
M  V30 11 1 11 12
M  V30 12 1 12 13
M  V30 13 1 13 14
M  V30 14 2 14 15
M  V30 15 1 15 16
M  V30 16 2 16 17
M  V30 17 1 17 18
M  V30 18 2 18 19
M  V30 19 1 10 20
M  V30 20 1 20 21
M  V30 21 2 21 22
M  V30 22 1 22 23
M  V30 23 1 23 24
M  V30 24 2 23 25
M  V30 25 1 25 26
M  V30 26 1 7 2
M  V30 27 2 26 8
M  V30 28 1 19 14
M  V30 29 1 25 20
M  V30 30 1 3 27
M  V30 31 1 4 28
M  V30 32 1 5 29
M  V30 33 1 6 30
M  V30 34 1 9 31
M  V30 35 1 11 32
M  V30 36 1 12 33
M  V30 37 1 12 34
M  V30 38 1 15 35
M  V30 39 1 16 36
M  V30 40 1 17 37
M  V30 41 1 19 38
M  V30 42 1 22 39
M  V30 END BOND
M  V30 END CTAB
M  END
>  <Dataset>  (212) 
ChEMBL_Kinases

>  <Ligand_Instance>  (212) 
nan

>  <PDB_ID>  (212) 
nan

>  <Standardized_SMILES>  (212) 
Fc1ccccc1-c1cc(NCOc2cccnc2)n2ncc(Br)c2n1

>  <Name>  (212) 
nan

>  <Pocket>  (212) 
nan

>  <ATP_Site>  (212) 
nan

>  <Peripheral>  (212) 
nan

>  <Num_H_Atoms_ProtBoundConf>  (212) 
nan

>  <Num_Resolved_Atoms>  (212) 
nan

>  <Num_Not_Resolved_Atoms>  (212) 
nan

$$$$
CHEMBL398621
     RDKit          3D

  0  0  0  0  0  0  0  0  0  0999 V3000
M  V30 BEGIN CTAB
M  V30 COUNTS 39 42 0 0 0
M  V30 BEGIN ATOM
M  V30 1 Cl 0.084967 -4.841258 1.857093 0
M  V30 2 C 1.476253 -4.041630 1.210094 0
M  V30 3 C 2.696503 -4.691757 1.355821 0
M  V30 4 C 3.874703 -4.151382 0.880106 0
M  V30 5 C 3.820524 -2.919698 0.238898 0
M  V30 6 C 2.592852 -2.301443 0.111191 0
M  V30 7 C 1.418700 -2.827166 0.578517 0
M  V30 8 C 0.122544 -2.174167 0.443324 0
M  V30 9 C -0.057815 -0.954846 -0.171549 0
M  V30 10 C -1.288851 -0.341838 -0.296358 0
M  V30 11 N -1.437706 0.903661 -0.919269 0
M  V30 12 C -1.472490 2.324813 -0.833155 0
M  V30 13 O -0.304538 2.941822 -0.363347 0
M  V30 14 C 0.286645 2.777592 0.865782 0
M  V30 15 C 1.436025 3.576598 0.898793 0
M  V30 16 C 2.251764 3.615834 2.036036 0
M  V30 17 C 1.915033 2.855753 3.136354 0
M  V30 18 N 0.803279 2.101015 3.066666 0
M  V30 19 C -0.000176 2.041041 1.991901 0
M  V30 20 N -2.359786 -0.989286 0.218367 0
M  V30 21 N -3.644241 -0.610398 0.225607 0
M  V30 22 C -4.370637 -1.577293 0.853573 0
M  V30 23 C -3.495845 -2.573208 1.238364 0
M  V30 24 Br -3.857407 -4.220409 2.166770 0
M  V30 25 C -2.226822 -2.195695 0.834091 0
M  V30 26 N -1.001489 -2.730410 0.918682 0
M  V30 27 H 2.846914 -5.659266 1.842030 0
M  V30 28 H 4.836992 -4.626380 0.975128 0
M  V30 29 H 4.734038 -2.456914 -0.153072 0
M  V30 30 H 2.591423 -1.348076 -0.391711 0
M  V30 31 H 0.783806 -0.433555 -0.582899 0
M  V30 32 H -1.585710 0.477793 -1.885983 0
M  V30 33 H -2.273835 2.603430 -0.085798 0
M  V30 34 H -1.791369 2.769185 -1.792391 0
M  V30 35 H 1.850502 4.234714 0.130049 0
M  V30 36 H 3.151650 4.204093 2.140607 0
M  V30 37 H 2.489349 2.827875 4.053942 0
M  V30 38 H -0.893022 1.478052 1.862525 0
M  V30 39 H -5.415765 -1.707999 1.091334 0
M  V30 END ATOM
M  V30 BEGIN BOND
M  V30 1 1 1 2
M  V30 2 2 2 3
M  V30 3 1 3 4
M  V30 4 2 4 5
M  V30 5 1 5 6
M  V30 6 2 6 7
M  V30 7 1 7 8
M  V30 8 1 8 9
M  V30 9 2 9 10
M  V30 10 1 10 11
M  V30 11 1 11 12
M  V30 12 1 12 13
M  V30 13 1 13 14
M  V30 14 2 14 15
M  V30 15 1 15 16
M  V30 16 2 16 17
M  V30 17 1 17 18
M  V30 18 2 18 19
M  V30 19 1 10 20
M  V30 20 1 20 21
M  V30 21 2 21 22
M  V30 22 1 22 23
M  V30 23 1 23 24
M  V30 24 2 23 25
M  V30 25 1 25 26
M  V30 26 1 7 2
M  V30 27 2 26 8
M  V30 28 1 19 14
M  V30 29 1 25 20
M  V30 30 1 3 27
M  V30 31 1 4 28
M  V30 32 1 5 29
M  V30 33 1 6 30
M  V30 34 1 9 31
M  V30 35 1 11 32
M  V30 36 1 12 33
M  V30 37 1 12 34
M  V30 38 1 15 35
M  V30 39 1 16 36
M  V30 40 1 17 37
M  V30 41 1 19 38
M  V30 42 1 22 39
M  V30 END BOND
M  V30 END CTAB
M  END
>  <Dataset>  (213) 
ChEMBL_Kinases

>  <Ligand_Instance>  (213) 
nan

>  <PDB_ID>  (213) 
nan

>  <Standardized_SMILES>  (213) 
Clc1ccccc1-c1cc(NCOc2cccnc2)n2ncc(Br)c2n1

>  <Name>  (213) 
nan

>  <Pocket>  (213) 
nan

>  <ATP_Site>  (213) 
nan

>  <Peripheral>  (213) 
nan

>  <Num_H_Atoms_ProtBoundConf>  (213) 
nan

>  <Num_Resolved_Atoms>  (213) 
nan

>  <Num_Not_Resolved_Atoms>  (213) 
nan

$$$$
CHEMBL3986079
     RDKit          3D

  0  0  0  0  0  0  0  0  0  0999 V3000
M  V30 BEGIN CTAB
M  V30 COUNTS 59 63 0 0 0
M  V30 BEGIN ATOM
M  V30 1 C 0.918545 -1.422239 5.224614 0
M  V30 2 N 1.247915 -0.715149 4.005637 0
M  V30 3 C 2.448517 0.049258 3.828242 0
M  V30 4 O 3.297526 -0.309833 4.720580 0
M  V30 5 C 2.888487 1.088804 2.904269 0 CFG=1
M  V30 6 C 4.398603 0.874764 2.735749 0
M  V30 7 C 4.395178 -0.450907 2.001894 0
M  V30 8 C 3.194988 -0.313208 1.066412 0
M  V30 9 C 2.466993 0.918463 1.470056 0 CFG=1
M  V30 10 N 1.027077 0.889131 1.308432 0
M  V30 11 C 0.505167 2.004204 0.593362 0
M  V30 12 C -0.959439 2.236466 0.600022 0
M  V30 13 C -1.486146 1.985480 -0.779239 0
M  V30 14 C -0.309015 1.569028 -1.635476 0
M  V30 15 C 0.929663 1.991385 -0.871345 0
M  V30 16 C 0.144344 -0.140578 1.779845 0
M  V30 17 N -0.835785 -0.328246 0.848296 0
M  V30 18 C -1.754060 -1.269760 1.119189 0
M  V30 19 N -2.847004 -1.579729 0.252523 0
M  V30 20 C -2.743378 -2.433286 -0.876858 0
M  V30 21 C -3.866899 -2.731479 -1.624119 0
M  V30 22 C -3.832910 -3.544209 -2.744746 0
M  V30 23 C -2.627982 -4.097670 -3.158530 0
M  V30 24 C -2.422742 -4.968331 -4.315027 0
M  V30 25 N -3.633694 -5.240567 -5.047841 0
M  V30 26 O -1.340141 -5.461546 -4.688209 0
M  V30 27 C -1.524228 -3.783505 -2.394307 0
M  V30 28 C -1.530007 -2.965513 -1.257675 0
M  V30 29 N -1.673505 -1.971295 2.267410 0
M  V30 30 C -0.705553 -1.788066 3.192419 0
M  V30 31 C 0.260650 -0.835851 2.964522 0
M  V30 32 H -0.070291 -1.116921 5.631300 0
M  V30 33 H 1.090927 -2.501898 5.179857 0
M  V30 34 H 1.645780 -1.049621 6.001641 0
M  V30 35 H 2.729546 2.109962 3.299468 0
M  V30 36 H 4.775597 1.653303 2.052458 0
M  V30 37 H 4.904305 0.822896 3.705049 0
M  V30 38 H 4.188405 -1.244524 2.776055 0
M  V30 39 H 5.307710 -0.645483 1.435874 0
M  V30 40 H 3.487374 -0.335948 0.010090 0
M  V30 41 H 2.487670 -1.174440 1.250643 0
M  V30 42 H 2.920981 1.765346 0.917909 0
M  V30 43 H 1.010580 2.912294 1.008203 0
M  V30 44 H -1.533064 1.765704 1.420694 0
M  V30 45 H -1.182456 3.347706 0.782294 0
M  V30 46 H -2.337496 1.282974 -0.839000 0
M  V30 47 H -1.881233 2.917045 -1.286729 0
M  V30 48 H -0.350154 1.986636 -2.664283 0
M  V30 49 H -0.230408 0.470477 -1.776135 0
M  V30 50 H 1.778860 1.319704 -0.988766 0
M  V30 51 H 1.217856 2.994373 -1.245916 0
M  V30 52 H -3.750152 -1.137652 0.496454 0
M  V30 53 H -4.864788 -2.338974 -1.370965 0
M  V30 54 H -4.685905 -3.791843 -3.338629 0
M  V30 55 H -4.400169 -4.691889 -5.496287 0
M  V30 56 H -3.798885 -6.283378 -5.169802 0
M  V30 57 H -0.559184 -4.183134 -2.666672 0
M  V30 58 H -0.617370 -2.769801 -0.716205 0
M  V30 59 H -0.646332 -2.353866 4.110846 0
M  V30 END ATOM
M  V30 BEGIN BOND
M  V30 1 1 1 2
M  V30 2 1 2 3
M  V30 3 2 3 4
M  V30 4 1 3 5
M  V30 5 1 5 6
M  V30 6 1 6 7
M  V30 7 1 7 8
M  V30 8 1 8 9
M  V30 9 1 9 10
M  V30 10 1 10 11
M  V30 11 1 11 12
M  V30 12 1 12 13
M  V30 13 1 13 14
M  V30 14 1 14 15
M  V30 15 1 10 16
M  V30 16 2 16 17
M  V30 17 1 17 18
M  V30 18 1 18 19
M  V30 19 1 19 20
M  V30 20 2 20 21
M  V30 21 1 21 22
M  V30 22 2 22 23
M  V30 23 1 23 24
M  V30 24 1 24 25
M  V30 25 2 24 26
M  V30 26 1 23 27
M  V30 27 2 27 28
M  V30 28 2 18 29
M  V30 29 1 29 30
M  V30 30 2 30 31
M  V30 31 1 31 2
M  V30 32 1 9 5
M  V30 33 1 15 11
M  V30 34 1 31 16
M  V30 35 1 28 20
M  V30 36 1 1 32
M  V30 37 1 1 33
M  V30 38 1 1 34
M  V30 39 1 5 35 CFG=1
M  V30 40 1 6 36
M  V30 41 1 6 37
M  V30 42 1 7 38
M  V30 43 1 7 39
M  V30 44 1 8 40
M  V30 45 1 8 41
M  V30 46 1 9 42 CFG=3
M  V30 47 1 11 43
M  V30 48 1 12 44
M  V30 49 1 12 45
M  V30 50 1 13 46
M  V30 51 1 13 47
M  V30 52 1 14 48
M  V30 53 1 14 49
M  V30 54 1 15 50
M  V30 55 1 15 51
M  V30 56 1 19 52
M  V30 57 1 21 53
M  V30 58 1 22 54
M  V30 59 1 25 55
M  V30 60 1 25 56
M  V30 61 1 27 57
M  V30 62 1 28 58
M  V30 63 1 30 59
M  V30 END BOND
M  V30 END CTAB
M  END
>  <Dataset>  (214) 
ChEMBL_Kinases

>  <Ligand_Instance>  (214) 
nan

>  <PDB_ID>  (214) 
nan

>  <Standardized_SMILES>  (214) 
CN1C(=O)[C@H]2CCC[C@H]2N(C2CCCC2)c2nc(Nc3ccc(C(N)=O)cc3)ncc21

>  <Name>  (214) 
nan

>  <Pocket>  (214) 
nan

>  <ATP_Site>  (214) 
nan

>  <Peripheral>  (214) 
nan

>  <Num_H_Atoms_ProtBoundConf>  (214) 
nan

>  <Num_Resolved_Atoms>  (214) 
nan

>  <Num_Not_Resolved_Atoms>  (214) 
nan

$$$$
CHEMBL4866980
     RDKit          3D

  0  0  0  0  0  0  0  0  0  0999 V3000
M  V30 BEGIN CTAB
M  V30 COUNTS 49 51 0 0 0
M  V30 BEGIN ATOM
M  V30 1 C -0.521525 -2.869784 1.776348 0
M  V30 2 N 0.343908 -3.805567 1.129214 0
M  V30 3 C 1.395823 -3.642155 0.218296 0
M  V30 4 N 1.784527 -2.439634 -0.229310 0
M  V30 5 C 2.770772 -2.205157 -1.092948 0
M  V30 6 N 3.190714 -0.941101 -1.573395 0
M  V30 7 C 2.683556 0.342468 -1.258702 0
M  V30 8 C 3.195838 1.496519 -1.835355 0
M  V30 9 N 2.733611 2.722105 -1.553055 0
M  V30 10 C 1.732328 2.947943 -0.686521 0
M  V30 11 C 1.268473 4.271088 -0.414133 0
M  V30 12 N 0.909662 5.354846 -0.195112 0
M  V30 13 C 1.174852 1.845748 -0.075007 0
M  V30 14 O 0.143858 2.104459 0.814648 0
M  V30 15 C -0.469241 1.039928 1.472602 0
M  V30 16 C -1.576781 1.482468 2.410134 0
M  V30 17 C -2.217887 0.321859 3.102693 0
M  V30 18 C -3.485896 -0.169837 2.483752 0
M  V30 19 N -4.390547 0.918153 2.209304 0
M  V30 20 C -3.812084 1.881333 1.297267 0
M  V30 21 C -2.516941 2.446963 1.770564 0
M  V30 22 C 1.661984 0.593573 -0.376651 0
M  V30 23 N 3.409437 -3.299092 -1.531667 0
M  V30 24 C 3.111377 -4.539190 -1.157613 0
M  V30 25 C 2.082244 -4.720487 -0.262679 0
M  V30 26 C 1.752105 -6.098967 0.151813 0
M  V30 27 F 2.573900 -7.029088 -0.459046 0
M  V30 28 F 0.455849 -6.453351 -0.241344 0
M  V30 29 F 1.867450 -6.253267 1.518663 0
M  V30 30 H -0.172897 -1.836953 1.654619 0
M  V30 31 H -1.572144 -2.877272 1.371934 0
M  V30 32 H -0.658791 -3.045817 2.872077 0
M  V30 33 H 0.072956 -4.759144 1.450589 0
M  V30 34 H 3.996681 -0.922915 -2.267344 0
M  V30 35 H 4.020007 1.437866 -2.561979 0
M  V30 36 H 0.320571 0.479498 2.021348 0
M  V30 37 H -0.908702 0.308866 0.765443 0
M  V30 38 H -1.027755 2.059648 3.213716 0
M  V30 39 H -1.480816 -0.502111 3.158679 0
M  V30 40 H -2.456405 0.595725 4.158111 0
M  V30 41 H -3.986628 -0.810977 3.262781 0
M  V30 42 H -3.385026 -0.797118 1.601069 0
M  V30 43 H -5.216068 0.496038 1.715041 0
M  V30 44 H -4.542597 2.711169 1.196705 0
M  V30 45 H -3.745504 1.435972 0.274004 0
M  V30 46 H -2.763916 3.287331 2.468600 0
M  V30 47 H -2.006421 2.911189 0.898297 0
M  V30 48 H 1.177869 -0.215441 0.139049 0
M  V30 49 H 3.677122 -5.365781 -1.559899 0
M  V30 END ATOM
M  V30 BEGIN BOND
M  V30 1 1 1 2
M  V30 2 1 2 3
M  V30 3 2 3 4
M  V30 4 1 4 5
M  V30 5 1 5 6
M  V30 6 1 6 7
M  V30 7 2 7 8
M  V30 8 1 8 9
M  V30 9 2 9 10
M  V30 10 1 10 11
M  V30 11 3 11 12
M  V30 12 1 10 13
M  V30 13 1 13 14
M  V30 14 1 14 15
M  V30 15 1 15 16
M  V30 16 1 16 17
M  V30 17 1 17 18
M  V30 18 1 18 19
M  V30 19 1 19 20
M  V30 20 1 20 21
M  V30 21 2 13 22
M  V30 22 2 5 23
M  V30 23 1 23 24
M  V30 24 2 24 25
M  V30 25 1 25 26
M  V30 26 1 26 27
M  V30 27 1 26 28
M  V30 28 1 26 29
M  V30 29 1 25 3
M  V30 30 1 22 7
M  V30 31 1 21 16
M  V30 32 1 1 30
M  V30 33 1 1 31
M  V30 34 1 1 32
M  V30 35 1 2 33
M  V30 36 1 6 34
M  V30 37 1 8 35
M  V30 38 1 15 36
M  V30 39 1 15 37
M  V30 40 1 16 38
M  V30 41 1 17 39
M  V30 42 1 17 40
M  V30 43 1 18 41
M  V30 44 1 18 42
M  V30 45 1 19 43
M  V30 46 1 20 44
M  V30 47 1 20 45
M  V30 48 1 21 46
M  V30 49 1 21 47
M  V30 50 1 22 48
M  V30 51 1 24 49
M  V30 END BOND
M  V30 END CTAB
M  END
>  <Dataset>  (215) 
ChEMBL_Kinases

>  <Ligand_Instance>  (215) 
nan

>  <PDB_ID>  (215) 
nan

>  <Standardized_SMILES>  (215) 
CNc1nc(Nc2cnc(C#N)c(OCC3CCNCC3)c2)ncc1C(F)(F)F

>  <Name>  (215) 
nan

>  <Pocket>  (215) 
nan

>  <ATP_Site>  (215) 
nan

>  <Peripheral>  (215) 
nan

>  <Num_H_Atoms_ProtBoundConf>  (215) 
nan

>  <Num_Resolved_Atoms>  (215) 
nan

>  <Num_Not_Resolved_Atoms>  (215) 
nan

$$$$
CHEMBL3986015
     RDKit          3D

  0  0  0  0  0  0  0  0  0  0999 V3000
M  V30 BEGIN CTAB
M  V30 COUNTS 57 61 0 0 0
M  V30 BEGIN ATOM
M  V30 1 O 7.085350 -3.722757 2.065115 0
M  V30 2 C 6.670037 -2.783300 1.305201 0
M  V30 3 C 7.899627 -2.306678 1.985354 0
M  V30 4 O 8.332408 -3.328010 2.807829 0
M  V30 5 N 5.510546 -2.863073 0.485679 0
M  V30 6 C 4.956109 -1.860209 -0.405918 0
M  V30 7 C 3.543944 -1.683095 0.049012 0
M  V30 8 C 2.831544 -2.599453 0.682068 0
M  V30 9 C 1.456723 -2.289710 1.069879 0
M  V30 10 C 0.770883 -1.121624 0.857869 0
M  V30 11 C -0.491208 -1.218747 1.366855 0
M  V30 12 C -1.503379 -0.302505 1.358895 0
M  V30 13 C -1.534958 1.031634 0.811647 0
M  V30 14 C -0.555932 1.925680 0.530533 0
M  V30 15 N -0.738173 3.155870 0.063644 0
M  V30 16 C -1.976286 3.617435 -0.171537 0
M  V30 17 C -3.022318 2.760489 0.093486 0
M  V30 18 N -4.347511 3.219586 -0.135770 0
M  V30 19 C -5.592314 2.487170 0.000055 0
M  V30 20 C -5.691002 1.350807 -0.973984 0
M  V30 21 C -5.326552 0.027412 -0.872880 0
M  V30 22 C -5.537130 -0.798026 -1.951960 0
M  V30 23 C -6.091602 -0.387709 -3.134522 0
M  V30 24 C -6.453088 0.930829 -3.230856 0
M  V30 25 C -6.261518 1.800113 -2.173153 0
M  V30 26 N -2.763701 1.540121 0.560170 0
M  V30 27 C -2.671264 -0.784316 1.961460 0
M  V30 28 C -2.771789 -2.045756 2.500347 0
M  V30 29 N -1.719034 -2.871946 2.460137 0
M  V30 30 C -0.566444 -2.472469 1.894455 0
M  V30 31 N 0.596575 -3.118713 1.720725 0
M  V30 32 C 3.360991 -3.944766 1.024245 0
M  V30 33 C 4.790260 -4.118139 0.554630 0
M  V30 34 H 8.670101 -1.984107 1.251351 0
M  V30 35 H 7.698196 -1.376726 2.591054 0
M  V30 36 H 9.117001 -3.828192 2.423377 0
M  V30 37 H 5.002773 -2.287509 -1.438102 0
M  V30 38 H 5.534955 -0.917805 -0.351365 0
M  V30 39 H 3.155482 -0.702720 -0.200065 0
M  V30 40 H 1.232988 -0.324953 0.350324 0
M  V30 41 H 0.446132 1.643251 0.719844 0
M  V30 42 H -2.117193 4.610413 -0.548241 0
M  V30 43 H -4.495489 4.226165 -0.450262 0
M  V30 44 H -5.548806 2.065432 1.051632 0
M  V30 45 H -6.475634 3.118933 -0.010420 0
M  V30 46 H -4.910057 -0.185858 0.081269 0
M  V30 47 H -5.217821 -1.824183 -1.778451 0
M  V30 48 H -6.234572 -1.067097 -3.943458 0
M  V30 49 H -6.890787 1.240015 -4.173268 0
M  V30 50 H -6.599637 2.824466 -2.397431 0
M  V30 51 H -3.553557 -0.170291 2.031615 0
M  V30 52 H -3.693458 -2.370791 2.954779 0
M  V30 53 H 0.774879 -4.099197 2.046381 0
M  V30 54 H 2.696473 -4.678932 0.480922 0
M  V30 55 H 3.245298 -4.189477 2.105063 0
M  V30 56 H 4.775267 -4.585253 -0.469497 0
M  V30 57 H 5.259687 -4.875483 1.205327 0
M  V30 END ATOM
M  V30 BEGIN BOND
M  V30 1 2 1 2
M  V30 2 1 2 3
M  V30 3 1 3 4
M  V30 4 1 2 5
M  V30 5 1 5 6
M  V30 6 1 6 7
M  V30 7 2 7 8
M  V30 8 1 8 9
M  V30 9 2 9 10
M  V30 10 1 10 11
M  V30 11 2 11 12
M  V30 12 1 12 13
M  V30 13 2 13 14
M  V30 14 1 14 15
M  V30 15 2 15 16
M  V30 16 1 16 17
M  V30 17 1 17 18
M  V30 18 1 18 19
M  V30 19 1 19 20
M  V30 20 2 20 21
M  V30 21 1 21 22
M  V30 22 2 22 23
M  V30 23 1 23 24
M  V30 24 2 24 25
M  V30 25 2 17 26
M  V30 26 1 12 27
M  V30 27 2 27 28
M  V30 28 1 28 29
M  V30 29 2 29 30
M  V30 30 1 30 31
M  V30 31 1 8 32
M  V30 32 1 32 33
M  V30 33 1 33 5
M  V30 34 1 31 9
M  V30 35 1 30 11
M  V30 36 1 26 13
M  V30 37 1 25 20
M  V30 38 1 3 34
M  V30 39 1 3 35
M  V30 40 1 4 36
M  V30 41 1 6 37
M  V30 42 1 6 38
M  V30 43 1 7 39
M  V30 44 1 10 40
M  V30 45 1 14 41
M  V30 46 1 16 42
M  V30 47 1 18 43
M  V30 48 1 19 44
M  V30 49 1 19 45
M  V30 50 1 21 46
M  V30 51 1 22 47
M  V30 52 1 23 48
M  V30 53 1 24 49
M  V30 54 1 25 50
M  V30 55 1 27 51
M  V30 56 1 28 52
M  V30 57 1 31 53
M  V30 58 1 32 54
M  V30 59 1 32 55
M  V30 60 1 33 56
M  V30 61 1 33 57
M  V30 END BOND
M  V30 END CTAB
M  END
>  <Dataset>  (216) 
ChEMBL_Kinases

>  <Ligand_Instance>  (216) 
nan

>  <PDB_ID>  (216) 
nan

>  <Standardized_SMILES>  (216) 
O=C(CO)N1CC=C(c2cc3c(-c4cncc(NCc5ccccc5)n4)ccnc3[nH]2)CC1

>  <Name>  (216) 
nan

>  <Pocket>  (216) 
nan

>  <ATP_Site>  (216) 
nan

>  <Peripheral>  (216) 
nan

>  <Num_H_Atoms_ProtBoundConf>  (216) 
nan

>  <Num_Resolved_Atoms>  (216) 
nan

>  <Num_Not_Resolved_Atoms>  (216) 
nan

$$$$
CHEMBL3984982
     RDKit          3D

  0  0  0  0  0  0  0  0  0  0999 V3000
M  V30 BEGIN CTAB
M  V30 COUNTS 21 22 0 0 0
M  V30 BEGIN ATOM
M  V30 1 C 0.193898 1.993100 2.604717 0
M  V30 2 C 1.372507 1.477798 1.795022 0 CFG=1
M  V30 3 N 1.349352 0.022056 1.822233 0
M  V30 4 C 0.770426 -0.731293 0.759775 0
M  V30 5 C 0.533043 -2.077989 0.952351 0
M  V30 6 C -0.030834 -2.849923 -0.059340 0
M  V30 7 C -0.321431 -2.182182 -1.225752 0
M  V30 8 N -0.084194 -0.855921 -1.406355 0
M  V30 9 C 0.460168 -0.108914 -0.430758 0
M  V30 10 N 0.687103 1.292478 -0.683863 0
M  V30 11 C 1.263888 1.997724 0.402029 0
M  V30 12 O 1.723333 3.161072 0.171645 0
M  V30 13 H 0.219476 3.089673 2.617690 0
M  V30 14 H -0.709564 1.594460 2.110933 0
M  V30 15 H 0.284937 1.518888 3.604616 0
M  V30 16 H 2.339931 1.861567 2.198857 0
M  V30 17 H 1.764540 -0.470252 2.634634 0
M  V30 18 H 0.774108 -2.562706 1.878103 0
M  V30 19 H -0.234274 -3.893395 0.038759 0
M  V30 20 H -0.753895 -2.719460 -2.034822 0
M  V30 21 H 0.445321 1.728385 -1.581916 0
M  V30 END ATOM
M  V30 BEGIN BOND
M  V30 1 1 1 2
M  V30 2 1 2 3
M  V30 3 1 3 4
M  V30 4 2 4 5
M  V30 5 1 5 6
M  V30 6 2 6 7
M  V30 7 1 7 8
M  V30 8 2 8 9
M  V30 9 1 9 10
M  V30 10 1 10 11
M  V30 11 2 11 12
M  V30 12 1 11 2
M  V30 13 1 9 4
M  V30 14 1 1 13
M  V30 15 1 1 14
M  V30 16 1 1 15
M  V30 17 1 2 16 CFG=1
M  V30 18 1 3 17
M  V30 19 1 5 18
M  V30 20 1 6 19
M  V30 21 1 7 20
M  V30 22 1 10 21
M  V30 END BOND
M  V30 END CTAB
M  END
>  <Dataset>  (217) 
ChEMBL_Kinases

>  <Ligand_Instance>  (217) 
nan

>  <PDB_ID>  (217) 
nan

>  <Standardized_SMILES>  (217) 
C[C@H]1Nc2cccnc2NC1=O

>  <Name>  (217) 
nan

>  <Pocket>  (217) 
nan

>  <ATP_Site>  (217) 
nan

>  <Peripheral>  (217) 
nan

>  <Num_H_Atoms_ProtBoundConf>  (217) 
nan

>  <Num_Resolved_Atoms>  (217) 
nan

>  <Num_Not_Resolved_Atoms>  (217) 
nan

$$$$
CHEMBL398601
     RDKit          3D

  0  0  0  0  0  0  0  0  0  0999 V3000
M  V30 BEGIN CTAB
M  V30 COUNTS 52 56 0 0 0
M  V30 BEGIN ATOM
M  V30 1 N -1.701238 0.857702 2.978038 0
M  V30 2 C -1.319720 -0.071578 2.359556 0
M  V30 3 C -0.855585 -1.216147 1.581180 0
M  V30 4 C 0.383246 -1.237548 1.008804 0
M  V30 5 N 1.363725 -0.168360 1.075334 0
M  V30 6 C 2.282245 -0.125838 2.173957 0
M  V30 7 O 2.181985 -1.040970 3.032024 0
M  V30 8 C 3.146685 1.044699 1.993337 0
M  V30 9 C 4.014566 0.954675 0.899768 0
M  V30 10 C 4.879261 1.988316 0.609182 0
M  V30 11 C 4.856752 3.098880 1.425649 0
M  V30 12 C 4.005813 3.223252 2.524090 0
M  V30 13 C 3.966850 4.324252 3.354328 0
M  V30 14 C 3.083439 4.343389 4.415874 0
M  V30 15 C 2.232416 3.293559 4.679032 0
M  V30 16 C 2.232540 2.161158 3.873612 0
M  V30 17 C 3.135117 2.170383 2.808163 0
M  V30 18 S 0.501622 -2.780891 0.195485 0
M  V30 19 C -1.133360 -3.368628 0.646250 0
M  V30 20 C -1.634910 -2.304041 1.397846 0
M  V30 21 C -3.010986 -2.648574 1.847957 0
M  V30 22 C -3.801493 -3.150272 0.695658 0
M  V30 23 N -3.287413 -4.321783 0.037387 0
M  V30 24 S -3.590289 -4.288334 -1.655876 0
M  V30 25 O -3.276222 -5.554293 -2.358288 0
M  V30 26 O -5.094040 -4.041339 -1.782888 0
M  V30 27 C -2.820876 -2.954294 -2.470416 0
M  V30 28 C -3.207448 -1.652775 -2.689877 0
M  V30 29 C -2.438570 -0.749705 -3.383128 0
M  V30 30 C -1.207482 -1.114084 -3.906374 0
M  V30 31 C -0.754101 -2.412962 -3.721359 0
M  V30 32 C -1.567873 -3.282745 -3.016236 0
M  V30 33 C -1.921534 -4.614650 0.380515 0
M  V30 34 H 1.257673 0.469346 0.256625 0
M  V30 35 H 4.042620 0.105578 0.260512 0
M  V30 36 H 5.569316 1.952317 -0.236573 0
M  V30 37 H 5.505050 3.941801 1.256461 0
M  V30 38 H 4.666047 5.122266 3.091382 0
M  V30 39 H 3.087384 5.228000 5.038573 0
M  V30 40 H 1.537712 3.296110 5.506132 0
M  V30 41 H 1.570736 1.330208 4.069353 0
M  V30 42 H -3.540331 -1.719978 2.215240 0
M  V30 43 H -2.990268 -3.339026 2.709318 0
M  V30 44 H -4.061432 -2.321510 0.019624 0
M  V30 45 H -4.796679 -3.481486 1.124310 0
M  V30 46 H -4.191223 -1.481587 -2.226344 0
M  V30 47 H -2.925553 0.235419 -3.448582 0
M  V30 48 H -0.707683 -0.313855 -4.428309 0
M  V30 49 H 0.203942 -2.664733 -4.138754 0
M  V30 50 H -1.110337 -4.281230 -2.926956 0
M  V30 51 H -1.943756 -5.207162 1.312323 0
M  V30 52 H -1.451997 -5.127474 -0.479230 0
M  V30 END ATOM
M  V30 BEGIN BOND
M  V30 1 3 1 2
M  V30 2 1 2 3
M  V30 3 2 3 4
M  V30 4 1 4 5
M  V30 5 1 5 6
M  V30 6 2 6 7
M  V30 7 1 6 8
M  V30 8 2 8 9
M  V30 9 1 9 10
M  V30 10 2 10 11
M  V30 11 1 11 12
M  V30 12 2 12 13
M  V30 13 1 13 14
M  V30 14 2 14 15
M  V30 15 1 15 16
M  V30 16 2 16 17
M  V30 17 1 4 18
M  V30 18 1 18 19
M  V30 19 2 19 20
M  V30 20 1 20 21
M  V30 21 1 21 22
M  V30 22 1 22 23
M  V30 23 1 23 24
M  V30 24 2 24 25
M  V30 25 2 24 26
M  V30 26 1 24 27
M  V30 27 2 27 28
M  V30 28 1 28 29
M  V30 29 2 29 30
M  V30 30 1 30 31
M  V30 31 2 31 32
M  V30 32 1 23 33
M  V30 33 1 20 3
M  V30 34 1 32 27
M  V30 35 1 17 8
M  V30 36 1 33 19
M  V30 37 1 17 12
M  V30 38 1 5 34
M  V30 39 1 9 35
M  V30 40 1 10 36
M  V30 41 1 11 37
M  V30 42 1 13 38
M  V30 43 1 14 39
M  V30 44 1 15 40
M  V30 45 1 16 41
M  V30 46 1 21 42
M  V30 47 1 21 43
M  V30 48 1 22 44
M  V30 49 1 22 45
M  V30 50 1 28 46
M  V30 51 1 29 47
M  V30 52 1 30 48
M  V30 53 1 31 49
M  V30 54 1 32 50
M  V30 55 1 33 51
M  V30 56 1 33 52
M  V30 END BOND
M  V30 END CTAB
M  END
>  <Dataset>  (218) 
ChEMBL_Kinases

>  <Ligand_Instance>  (218) 
nan

>  <PDB_ID>  (218) 
nan

>  <Standardized_SMILES>  (218) 
N#Cc1c(NC(=O)c2cccc3ccccc23)sc2c1CCN(S(=O)(=O)c1ccccc1)C2

>  <Name>  (218) 
nan

>  <Pocket>  (218) 
nan

>  <ATP_Site>  (218) 
nan

>  <Peripheral>  (218) 
nan

>  <Num_H_Atoms_ProtBoundConf>  (218) 
nan

>  <Num_Resolved_Atoms>  (218) 
nan

>  <Num_Not_Resolved_Atoms>  (218) 
nan

$$$$
CHEMBL3985771
     RDKit          3D

  0  0  0  0  0  0  0  0  0  0999 V3000
M  V30 BEGIN CTAB
M  V30 COUNTS 51 54 0 0 0
M  V30 BEGIN ATOM
M  V30 1 C 1.926636 -5.600267 2.891743 0
M  V30 2 O 1.185235 -6.085363 1.815515 0
M  V30 3 C 1.130679 -5.514304 0.557473 0
M  V30 4 C 1.830839 -4.368090 0.237032 0
M  V30 5 C 1.787541 -3.784535 -1.014610 0
M  V30 6 C 2.510633 -2.570573 -1.403210 0
M  V30 7 O 3.822795 -2.693684 -0.904938 0
M  V30 8 C 1.816568 -1.359957 -0.906640 0
M  V30 9 C 1.834508 -0.941217 0.413001 0
M  V30 10 C 1.169441 0.198768 0.831374 0
M  V30 11 C 0.455429 0.967373 -0.067492 0
M  V30 12 C -0.255162 2.176614 0.352625 0
M  V30 13 N -0.283458 2.647567 1.620178 0
M  V30 14 C -1.016338 3.775214 1.699794 0
M  V30 15 C -1.303996 4.578293 2.797196 0
M  V30 16 C -2.091533 5.694715 2.600394 0
M  V30 17 C -2.457537 6.609909 3.680826 0
M  V30 18 N -1.971281 6.316417 4.968857 0
M  V30 19 O -3.174772 7.618264 3.480027 0
M  V30 20 C -2.568184 5.977354 1.318607 0
M  V30 21 C -2.257540 5.148850 0.248134 0
M  V30 22 C -1.466295 4.017886 0.418348 0
M  V30 23 N -0.990406 3.034687 -0.375805 0
M  V30 24 C 0.400781 0.599662 -1.399147 0
M  V30 25 C 1.078341 -0.544684 -1.774934 0
M  V30 26 C 0.971001 -4.458917 -1.927873 0
M  V30 27 C 0.251712 -5.602193 -1.665271 0
M  V30 28 Br -0.821367 -6.409418 -3.019001 0
M  V30 29 C 0.340568 -6.134510 -0.389045 0
M  V30 30 O -0.401396 -7.287695 -0.168835 0
M  V30 31 C -1.727594 -7.090693 0.294853 0
M  V30 32 H 2.009031 -4.492795 2.904630 0
M  V30 33 H 1.456067 -5.916234 3.860116 0
M  V30 34 H 2.950396 -6.062119 2.929386 0
M  V30 35 H 2.429965 -3.916892 0.990797 0
M  V30 36 H 2.515999 -2.516632 -2.511058 0
M  V30 37 H 4.428488 -2.484190 -1.637233 0
M  V30 38 H 2.384883 -1.523740 1.133732 0
M  V30 39 H 1.207891 0.497568 1.887153 0
M  V30 40 H -0.943637 4.371567 3.787016 0
M  V30 41 H -2.169418 5.842847 5.878023 0
M  V30 42 H -2.185277 5.831609 5.886331 0
M  V30 43 H -3.186135 6.861453 1.187960 0
M  V30 44 H -2.624469 5.368305 -0.732882 0
M  V30 45 H -1.170309 2.959262 -1.398115 0
M  V30 46 H -0.142284 1.153200 -2.174885 0
M  V30 47 H 1.035232 -0.834180 -2.824422 0
M  V30 48 H 0.902061 -4.043741 -2.922073 0
M  V30 49 H -2.438580 -7.785440 -0.207515 0
M  V30 50 H -2.112026 -6.076725 0.102281 0
M  V30 51 H -1.826021 -7.275306 1.376245 0
M  V30 END ATOM
M  V30 BEGIN BOND
M  V30 1 1 1 2
M  V30 2 1 2 3
M  V30 3 2 3 4
M  V30 4 1 4 5
M  V30 5 1 5 6
M  V30 6 1 6 7
M  V30 7 1 6 8
M  V30 8 2 8 9
M  V30 9 1 9 10
M  V30 10 2 10 11
M  V30 11 1 11 12
M  V30 12 2 12 13
M  V30 13 1 13 14
M  V30 14 2 14 15
M  V30 15 1 15 16
M  V30 16 1 16 17
M  V30 17 1 17 18
M  V30 18 2 17 19
M  V30 19 2 16 20
M  V30 20 1 20 21
M  V30 21 2 21 22
M  V30 22 1 22 23
M  V30 23 1 11 24
M  V30 24 2 24 25
M  V30 25 2 5 26
M  V30 26 1 26 27
M  V30 27 1 27 28
M  V30 28 2 27 29
M  V30 29 1 29 30
M  V30 30 1 30 31
M  V30 31 1 29 3
M  V30 32 1 25 8
M  V30 33 1 23 12
M  V30 34 1 22 14
M  V30 35 1 1 32
M  V30 36 1 1 33
M  V30 37 1 1 34
M  V30 38 1 4 35
M  V30 39 1 6 36
M  V30 40 1 7 37
M  V30 41 1 9 38
M  V30 42 1 10 39
M  V30 43 1 15 40
M  V30 44 1 18 41
M  V30 45 1 18 42
M  V30 46 1 20 43
M  V30 47 1 21 44
M  V30 48 1 23 45
M  V30 49 1 24 46
M  V30 50 1 25 47
M  V30 51 1 26 48
M  V30 52 1 31 49
M  V30 53 1 31 50
M  V30 54 1 31 51
M  V30 END BOND
M  V30 END CTAB
M  END
>  <Dataset>  (219) 
ChEMBL_Kinases

>  <Ligand_Instance>  (219) 
nan

>  <PDB_ID>  (219) 
nan

>  <Standardized_SMILES>  (219) 
COc1cc(C(O)c2ccc(-c3nc4cc(C(N)=O)ccc4[nH]3)cc2)cc(Br)c1OC

>  <Name>  (219) 
nan

>  <Pocket>  (219) 
nan

>  <ATP_Site>  (219) 
nan

>  <Peripheral>  (219) 
nan

>  <Num_H_Atoms_ProtBoundConf>  (219) 
nan

>  <Num_Resolved_Atoms>  (219) 
nan

>  <Num_Not_Resolved_Atoms>  (219) 
nan

$$$$
CHEMBL3985497
     RDKit          3D

  0  0  0  0  0  0  0  0  0  0999 V3000
M  V30 BEGIN CTAB
M  V30 COUNTS 46 49 0 0 0
M  V30 BEGIN ATOM
M  V30 1 C 0.823441 -4.286426 -3.545390 0
M  V30 2 O 1.461561 -3.548485 -2.562448 0
M  V30 3 C 1.206713 -2.186278 -2.644880 0
M  V30 4 C 2.486863 -1.492275 -2.926147 0
M  V30 5 C 2.559833 -0.476903 -3.885116 0
M  V30 6 C 3.690504 0.210310 -4.207204 0
M  V30 7 C 4.849836 -0.102723 -3.554206 0
M  V30 8 C 4.858737 -1.101391 -2.586650 0
M  V30 9 C 3.690157 -1.750893 -2.312487 0
M  V30 10 C 0.609486 -1.621500 -1.410821 0
M  V30 11 C 1.063121 -1.924871 -0.146353 0
M  V30 12 C 0.511637 -1.401274 1.007511 0
M  V30 13 C -0.553602 -0.525003 0.888331 0
M  V30 14 C -1.172369 0.056848 2.085262 0
M  V30 15 N -0.774914 -0.199212 3.362438 0
M  V30 16 C -1.549024 0.491926 4.219964 0
M  V30 17 C -1.521532 0.548517 5.599922 0
M  V30 18 C -2.428654 1.338728 6.262564 0
M  V30 19 C -2.507053 1.487845 7.724836 0
M  V30 20 N -1.549286 0.735973 8.459244 0
M  V30 21 O -3.312493 2.192913 8.372392 0
M  V30 22 C -3.329260 2.041309 5.495847 0
M  V30 23 C -3.385992 2.009197 4.119999 0
M  V30 24 C -2.472661 1.214008 3.460290 0
M  V30 25 N -2.203659 0.917335 2.180030 0
M  V30 26 C -1.063920 -0.172942 -0.345813 0
M  V30 27 C -0.445539 -0.749566 -1.457797 0
M  V30 28 H 1.066714 -5.362681 -3.424757 0
M  V30 29 H -0.278895 -4.112198 -3.534068 0
M  V30 30 H 1.137163 -4.009748 -4.581727 0
M  V30 31 H 0.519873 -1.956765 -3.511264 0
M  V30 32 H 1.619749 -0.234743 -4.403343 0
M  V30 33 H 3.708929 0.984464 -4.949605 0
M  V30 34 H 5.806429 0.392459 -3.743372 0
M  V30 35 H 5.766875 -1.360328 -2.061875 0
M  V30 36 H 3.715032 -2.522029 -1.561278 0
M  V30 37 H 1.892169 -2.605641 -0.013502 0
M  V30 38 H 0.884426 -1.654611 1.975872 0
M  V30 39 H -0.810848 -0.006339 6.197360 0
M  V30 40 H -0.920522 1.273627 9.127355 0
M  V30 41 H -1.110097 -0.180790 8.692847 0
M  V30 42 H -4.058168 2.674273 5.993497 0
M  V30 43 H -4.101314 2.568886 3.539727 0
M  V30 44 H -2.736862 1.312916 1.371769 0
M  V30 45 H -1.895045 0.509929 -0.452662 0
M  V30 46 H -0.859243 -0.462319 -2.426389 0
M  V30 END ATOM
M  V30 BEGIN BOND
M  V30 1 1 1 2
M  V30 2 1 2 3
M  V30 3 1 3 4
M  V30 4 2 4 5
M  V30 5 1 5 6
M  V30 6 2 6 7
M  V30 7 1 7 8
M  V30 8 2 8 9
M  V30 9 1 3 10
M  V30 10 2 10 11
M  V30 11 1 11 12
M  V30 12 2 12 13
M  V30 13 1 13 14
M  V30 14 2 14 15
M  V30 15 1 15 16
M  V30 16 2 16 17
M  V30 17 1 17 18
M  V30 18 1 18 19
M  V30 19 1 19 20
M  V30 20 2 19 21
M  V30 21 2 18 22
M  V30 22 1 22 23
M  V30 23 2 23 24
M  V30 24 1 24 25
M  V30 25 1 13 26
M  V30 26 2 26 27
M  V30 27 1 9 4
M  V30 28 1 27 10
M  V30 29 1 25 14
M  V30 30 1 24 16
M  V30 31 1 1 28
M  V30 32 1 1 29
M  V30 33 1 1 30
M  V30 34 1 3 31
M  V30 35 1 5 32
M  V30 36 1 6 33
M  V30 37 1 7 34
M  V30 38 1 8 35
M  V30 39 1 9 36
M  V30 40 1 11 37
M  V30 41 1 12 38
M  V30 42 1 17 39
M  V30 43 1 20 40
M  V30 44 1 20 41
M  V30 45 1 22 42
M  V30 46 1 23 43
M  V30 47 1 25 44
M  V30 48 1 26 45
M  V30 49 1 27 46
M  V30 END BOND
M  V30 END CTAB
M  END
>  <Dataset>  (220) 
ChEMBL_Kinases

>  <Ligand_Instance>  (220) 
nan

>  <PDB_ID>  (220) 
nan

>  <Standardized_SMILES>  (220) 
COC(c1ccccc1)c1ccc(-c2nc3cc(C(N)=O)ccc3[nH]2)cc1

>  <Name>  (220) 
nan

>  <Pocket>  (220) 
nan

>  <ATP_Site>  (220) 
nan

>  <Peripheral>  (220) 
nan

>  <Num_H_Atoms_ProtBoundConf>  (220) 
nan

>  <Num_Resolved_Atoms>  (220) 
nan

>  <Num_Not_Resolved_Atoms>  (220) 
nan

$$$$
CHEMBL3985469
     RDKit          3D

  0  0  0  0  0  0  0  0  0  0999 V3000
M  V30 BEGIN CTAB
M  V30 COUNTS 63 66 0 0 0
M  V30 BEGIN ATOM
M  V30 1 C -0.240241 0.499155 6.161256 0
M  V30 2 C -1.720510 0.618623 5.855272 0
M  V30 3 C -2.450498 1.308097 6.982759 0
M  V30 4 C -2.225714 -0.802097 5.681415 0
M  V30 5 O -1.955574 1.284863 4.637258 0
M  V30 6 C -1.556332 2.566177 4.364560 0
M  V30 7 O -0.932288 3.272607 5.195897 0
M  V30 8 N -1.834638 3.165162 3.106844 0
M  V30 9 C -1.472964 4.483354 2.703156 0
M  V30 10 C -1.089254 4.571396 1.240821 0
M  V30 11 C -0.449547 3.239067 0.869938 0
M  V30 12 C 0.382884 3.338407 -0.359070 0
M  V30 13 O 1.031112 2.238274 -0.824296 0
M  V30 14 C 0.796423 1.028406 -1.305995 0
M  V30 15 C -0.267680 0.218274 -1.616454 0
M  V30 16 C -0.231442 -1.058332 -2.124500 0
M  V30 17 C 1.032027 -1.562343 -2.339649 0
M  V30 18 C 1.085450 -2.920083 -2.880043 0
M  V30 19 N 2.202085 -3.612728 -3.168457 0
M  V30 20 C 1.894893 -4.831238 -3.649194 0
M  V30 21 C 2.687676 -5.883859 -4.076904 0
M  V30 22 C 2.005991 -7.018503 -4.519924 0
M  V30 23 C 2.844173 -8.119119 -4.967100 0
M  V30 24 N 2.330089 -9.351996 -5.451687 0
M  V30 25 O 4.089579 -8.022605 -4.942724 0
M  V30 26 C 0.634690 -7.112493 -4.541204 0
M  V30 27 C -0.115259 -6.035489 -4.104304 0
M  V30 28 C 0.522173 -4.874848 -3.650442 0
M  V30 29 N 0.036971 -3.704722 -3.179641 0
M  V30 30 C 2.188711 -0.860473 -2.074056 0
M  V30 31 C 2.051885 0.438758 -1.555499 0
M  V30 32 C -1.570097 2.246686 0.836106 0
M  V30 33 C -2.521057 2.607737 1.984089 0
M  V30 34 H 0.243257 1.454386 6.369698 0
M  V30 35 H 0.268009 0.047457 5.289540 0
M  V30 36 H -0.111017 -0.218829 6.996840 0
M  V30 37 H -2.741805 0.544296 7.757039 0
M  V30 38 H -3.401056 1.766220 6.646041 0
M  V30 39 H -1.836132 2.101214 7.478165 0
M  V30 40 H -2.060777 -1.089155 4.603784 0
M  V30 41 H -1.729629 -1.506649 6.361863 0
M  V30 42 H -3.329489 -0.775650 5.795276 0
M  V30 43 H -2.291694 5.235180 2.890690 0
M  V30 44 H -0.600760 4.840807 3.293976 0
M  V30 45 H -0.416014 5.422110 1.025855 0
M  V30 46 H -2.035648 4.641486 0.663863 0
M  V30 47 H 0.198816 2.981971 1.755798 0
M  V30 48 H 1.128842 4.185185 -0.282663 0
M  V30 49 H -0.338691 3.706835 -1.171117 0
M  V30 50 H -1.209487 0.690611 -1.434918 0
M  V30 51 H -1.168581 -1.542298 -2.306034 0
M  V30 52 H 3.775550 -5.820962 -4.064587 0
M  V30 53 H 2.429179 -9.523992 -6.459758 0
M  V30 54 H 1.977299 -9.729110 -4.523298 0
M  V30 55 H 0.143177 -8.023024 -4.897314 0
M  V30 56 H -1.199659 -6.047560 -4.096397 0
M  V30 57 H -0.974945 -3.509749 -3.090339 0
M  V30 58 H 3.097881 -1.381762 -2.292258 0
M  V30 59 H 3.065453 0.841696 -1.407231 0
M  V30 60 H -2.170777 2.425470 -0.089110 0
M  V30 61 H -1.218765 1.199130 0.937916 0
M  V30 62 H -3.394843 3.177877 1.645001 0
M  V30 63 H -2.936876 1.620126 2.335745 0
M  V30 END ATOM
M  V30 BEGIN BOND
M  V30 1 1 1 2
M  V30 2 1 2 3
M  V30 3 1 2 4
M  V30 4 1 2 5
M  V30 5 1 5 6
M  V30 6 2 6 7
M  V30 7 1 6 8
M  V30 8 1 8 9
M  V30 9 1 9 10
M  V30 10 1 10 11
M  V30 11 1 11 12
M  V30 12 1 12 13
M  V30 13 1 13 14
M  V30 14 2 14 15
M  V30 15 1 15 16
M  V30 16 2 16 17
M  V30 17 1 17 18
M  V30 18 2 18 19
M  V30 19 1 19 20
M  V30 20 2 20 21
M  V30 21 1 21 22
M  V30 22 1 22 23
M  V30 23 1 23 24
M  V30 24 2 23 25
M  V30 25 2 22 26
M  V30 26 1 26 27
M  V30 27 2 27 28
M  V30 28 1 28 29
M  V30 29 1 17 30
M  V30 30 2 30 31
M  V30 31 1 11 32
M  V30 32 1 32 33
M  V30 33 1 33 8
M  V30 34 1 31 14
M  V30 35 1 29 18
M  V30 36 1 28 20
M  V30 37 1 1 34
M  V30 38 1 1 35
M  V30 39 1 1 36
M  V30 40 1 3 37
M  V30 41 1 3 38
M  V30 42 1 3 39
M  V30 43 1 4 40
M  V30 44 1 4 41
M  V30 45 1 4 42
M  V30 46 1 9 43
M  V30 47 1 9 44
M  V30 48 1 10 45
M  V30 49 1 10 46
M  V30 50 1 11 47
M  V30 51 1 12 48
M  V30 52 1 12 49
M  V30 53 1 15 50
M  V30 54 1 16 51
M  V30 55 1 21 52
M  V30 56 1 24 53
M  V30 57 1 24 54
M  V30 58 1 26 55
M  V30 59 1 27 56
M  V30 60 1 29 57
M  V30 61 1 30 58
M  V30 62 1 31 59
M  V30 63 1 32 60
M  V30 64 1 32 61
M  V30 65 1 33 62
M  V30 66 1 33 63
M  V30 END BOND
M  V30 END CTAB
M  END
>  <Dataset>  (221) 
ChEMBL_Kinases

>  <Ligand_Instance>  (221) 
nan

>  <PDB_ID>  (221) 
nan

>  <Standardized_SMILES>  (221) 
CC(C)(C)OC(=O)N1CCC(COc2ccc(-c3nc4cc(C(N)=O)ccc4[nH]3)cc2)CC1

>  <Name>  (221) 
nan

>  <Pocket>  (221) 
nan

>  <ATP_Site>  (221) 
nan

>  <Peripheral>  (221) 
nan

>  <Num_H_Atoms_ProtBoundConf>  (221) 
nan

>  <Num_Resolved_Atoms>  (221) 
nan

>  <Num_Not_Resolved_Atoms>  (221) 
nan

$$$$
CHEMBL3985321
     RDKit          3D

  0  0  0  0  0  0  0  0  0  0999 V3000
M  V30 BEGIN CTAB
M  V30 COUNTS 134 137 0 0 0
M  V30 BEGIN ATOM
M  V30 1 C 3.681200 -1.231907 4.668022 0
M  V30 2 C 3.735306 -0.437222 3.397500 0
M  V30 3 O 3.387654 0.758853 3.496324 0
M  V30 4 N 4.166366 -1.088116 2.210498 0
M  V30 5 C 4.612527 -2.460203 1.903936 0
M  V30 6 C 5.825308 -2.183013 1.029387 0
M  V30 7 C 5.289165 -1.075626 0.110982 0
M  V30 8 C 4.234210 -0.416227 0.924077 0 CFG=1
M  V30 9 C 2.900221 -0.318480 0.294263 0
M  V30 10 O 2.147925 -0.527657 1.303036 0
M  V30 11 N 2.458005 -0.077019 -1.005933 0
M  V30 12 C 1.039223 -0.041412 -1.262407 0 CFG=1
M  V30 13 C 0.618812 0.895166 -2.332936 0
M  V30 14 C 0.999665 2.299165 -2.018081 0
M  V30 15 C 0.385272 2.838753 -0.747363 0
M  V30 16 C 0.648780 3.261888 -3.156603 0
M  V30 17 C 0.534487 -1.441104 -1.578836 0
M  V30 18 O 1.156185 -2.544642 -1.639715 0
M  V30 19 N -0.865157 -1.477282 -1.848323 0
M  V30 20 C -1.587996 -2.619981 -2.177965 0 CFG=1
M  V30 21 C -2.716529 -3.186282 -1.451525 0
M  V30 22 C -2.609192 -3.664604 -0.087898 0
M  V30 23 C -2.041752 -4.956714 -0.022267 0
M  V30 24 N -1.952822 -5.302266 1.304209 0
M  V30 25 C -2.458960 -4.235248 2.005766 0
M  V30 26 N -2.847625 -3.260219 1.129584 0
M  V30 27 C -3.373654 -2.143176 1.801772 0
M  V30 28 C -2.405063 -1.193772 2.408549 0
M  V30 29 C -1.543331 -0.492999 1.445122 0
M  V30 30 C -2.377122 0.374868 0.538873 0
M  V30 31 C -3.166066 1.412990 1.341717 0
M  V30 32 C -2.227329 2.240891 2.166064 0
M  V30 33 C -3.029940 3.287932 2.936399 0
M  V30 34 C -2.063471 4.077690 3.841038 0
M  V30 35 C -1.429916 3.133159 4.818703 0
M  V30 36 C -0.228108 2.508232 4.568091 0
M  V30 37 C 0.297234 1.581723 5.472315 0
M  V30 38 C -0.431948 1.322654 6.613425 0
M  V30 39 C -1.645233 1.972382 6.838585 0
M  V30 40 C -2.184971 2.905045 5.943936 0
M  V30 41 O -3.345268 3.339952 6.466577 0
M  V30 42 C -4.620979 3.358085 6.110860 0
M  V30 43 C -5.325347 4.387492 5.483741 0
M  V30 44 C -6.674695 4.351688 5.132431 0
M  V30 45 C -7.356660 3.173316 5.446072 0
M  V30 46 C -6.699659 2.130771 6.064874 0
M  V30 47 C -5.356728 2.209109 6.396511 0
M  V30 48 C -1.771172 -2.760199 -3.687559 0
M  V30 49 O -2.499654 -3.730918 -4.043092 0
M  V30 50 N -1.142112 -1.841165 -4.579653 0
M  V30 51 C -1.390997 -2.100806 -5.986931 0 CFG=1
M  V30 52 C -1.799565 -0.854770 -6.695345 0
M  V30 53 O -2.965801 -0.389824 -6.090957 0
M  V30 54 C -0.239696 -2.818912 -6.607435 0
M  V30 55 O -0.351388 -3.075544 -7.846971 0
M  V30 56 N 0.869185 -3.148945 -5.760585 0
M  V30 57 C 2.105809 -3.834846 -6.064876 0 CFG=2
M  V30 58 C 2.387221 -4.988460 -5.173309 0
M  V30 59 N 1.383839 -5.220603 -4.160826 0
M  V30 60 O 3.420621 -5.719004 -5.279307 0
M  V30 61 C 3.278619 -2.869487 -5.916452 0 CFG=1
M  V30 62 C 4.570078 -3.616130 -6.280005 0
M  V30 63 O 3.163708 -1.792323 -6.759759 0
M  V30 64 P 3.133252 -0.380002 -5.868257 0
M  V30 65 O 3.243032 -0.697862 -4.402861 0
M  V30 66 O 1.687400 0.477122 -6.077330 0
M  V30 67 O 4.428457 0.639910 -6.250118 0
M  V30 68 H 4.410503 -2.041722 4.578529 0
M  V30 69 H 3.790917 -0.600635 5.565341 0
M  V30 70 H 2.672229 -1.724466 4.754387 0
M  V30 71 H 3.853081 -2.894329 1.248735 0
M  V30 72 H 4.839530 -3.045323 2.793371 0
M  V30 73 H 6.089103 -3.078112 0.453427 0
M  V30 74 H 6.694644 -1.817284 1.612670 0
M  V30 75 H 6.169363 -0.425795 -0.109052 0
M  V30 76 H 4.955605 -1.474822 -0.868724 0
M  V30 77 H 4.581469 0.640641 1.106606 0
M  V30 78 H 3.286231 0.047538 -1.635617 0
M  V30 79 H 0.549208 0.182932 -0.302787 0
M  V30 80 H 1.098011 0.640954 -3.313454 0
M  V30 81 H -0.473633 0.783264 -2.512322 0
M  V30 82 H 2.112874 2.350959 -1.951111 0
M  V30 83 H 0.633106 2.194461 0.092663 0
M  V30 84 H 0.778072 3.866879 -0.523167 0
M  V30 85 H -0.714827 2.944640 -0.829615 0
M  V30 86 H 0.673822 4.287814 -2.715407 0
M  V30 87 H 1.422247 3.188367 -3.961157 0
M  V30 88 H -0.383419 3.074471 -3.552305 0
M  V30 89 H -1.613641 -0.763240 -1.885150 0
M  V30 90 H -0.765847 -3.471428 -2.055691 0
M  V30 91 H -3.517981 -2.338278 -1.441621 0
M  V30 92 H -3.282217 -3.965535 -2.044092 0
M  V30 93 H -1.670897 -5.716589 -0.733206 0
M  V30 94 H -2.437572 -4.407852 3.094461 0
M  V30 95 H -4.081166 -1.580752 1.095647 0
M  V30 96 H -4.110596 -2.449586 2.611783 0
M  V30 97 H -2.972233 -0.447955 3.021410 0
M  V30 98 H -1.782504 -1.825932 3.132341 0
M  V30 99 H -0.751852 0.126599 1.914115 0
M  V30 100 H -0.967485 -1.264549 0.854231 0
M  V30 101 H -3.118438 -0.193138 -0.033716 0
M  V30 102 H -1.731149 0.880565 -0.169375 0
M  V30 103 H -3.620573 2.071696 0.545379 0
M  V30 104 H -3.953011 0.896702 1.891225 0
M  V30 105 H -1.576672 2.789976 1.451898 0
M  V30 106 H -1.680623 1.592571 2.852918 0
M  V30 107 H -3.778265 2.796248 3.563545 0
M  V30 108 H -3.550334 3.984663 2.256496 0
M  V30 109 H -2.561251 4.923951 4.327645 0
M  V30 110 H -1.239608 4.472699 3.219676 0
M  V30 111 H 0.262377 2.787325 3.638990 0
M  V30 112 H 1.242225 1.129352 5.213538 0
M  V30 113 H 0.059044 0.595153 7.239796 0
M  V30 114 H -2.035623 1.604908 7.802860 0
M  V30 115 H -4.742943 5.289499 5.260236 0
M  V30 116 H -7.096436 5.223541 4.647504 0
M  V30 117 H -8.395918 3.191630 5.155364 0
M  V30 118 H -7.340436 1.263599 6.256769 0
M  V30 119 H -5.022372 1.280519 6.879564 0
M  V30 120 H -0.583388 -1.100214 -4.105702 0
M  V30 121 H -2.228551 -2.832444 -6.037010 0
M  V30 122 H -1.022965 -0.060486 -6.666098 0
M  V30 123 H -2.082904 -1.046961 -7.757286 0
M  V30 124 H -3.473914 -1.100264 -5.633987 0
M  V30 125 H 0.821365 -2.864410 -4.737597 0
M  V30 126 H 2.068705 -4.194949 -7.133021 0
M  V30 127 H 1.033574 -6.154620 -4.496834 0
M  V30 128 H 0.675483 -5.984930 -3.949936 0
M  V30 129 H 3.331701 -2.579663 -4.849589 0
M  V30 130 H 4.372703 -4.454109 -6.986126 0
M  V30 131 H 5.040707 -4.043117 -5.381792 0
M  V30 132 H 5.258011 -2.922174 -6.843760 0
M  V30 133 H 1.913438 1.444479 -5.890040 0
M  V30 134 H 4.786670 0.426508 -7.171056 0
M  V30 END ATOM
M  V30 BEGIN BOND
M  V30 1 1 1 2
M  V30 2 2 2 3
M  V30 3 1 2 4
M  V30 4 1 4 5
M  V30 5 1 5 6
M  V30 6 1 6 7
M  V30 7 1 7 8
M  V30 8 1 8 9
M  V30 9 2 9 10
M  V30 10 1 9 11
M  V30 11 1 11 12
M  V30 12 1 12 13
M  V30 13 1 13 14
M  V30 14 1 14 15
M  V30 15 1 14 16
M  V30 16 1 12 17
M  V30 17 2 17 18
M  V30 18 1 17 19
M  V30 19 1 19 20
M  V30 20 1 20 21
M  V30 21 1 21 22
M  V30 22 2 22 23
M  V30 23 1 23 24
M  V30 24 2 24 25
M  V30 25 1 25 26
M  V30 26 1 26 27
M  V30 27 1 27 28
M  V30 28 1 28 29
M  V30 29 1 29 30
M  V30 30 1 30 31
M  V30 31 1 31 32
M  V30 32 1 32 33
M  V30 33 1 33 34
M  V30 34 1 34 35
M  V30 35 2 35 36
M  V30 36 1 36 37
M  V30 37 2 37 38
M  V30 38 1 38 39
M  V30 39 2 39 40
M  V30 40 1 40 41
M  V30 41 1 41 42
M  V30 42 2 42 43
M  V30 43 1 43 44
M  V30 44 2 44 45
M  V30 45 1 45 46
M  V30 46 2 46 47
M  V30 47 1 20 48
M  V30 48 2 48 49
M  V30 49 1 48 50
M  V30 50 1 50 51
M  V30 51 1 51 52
M  V30 52 1 52 53
M  V30 53 1 51 54
M  V30 54 2 54 55
M  V30 55 1 54 56
M  V30 56 1 56 57
M  V30 57 1 57 58
M  V30 58 1 58 59
M  V30 59 2 58 60
M  V30 60 1 57 61
M  V30 61 1 61 62
M  V30 62 1 61 63
M  V30 63 1 63 64
M  V30 64 2 64 65
M  V30 65 1 64 66
M  V30 66 1 64 67
M  V30 67 1 8 4
M  V30 68 1 26 22
M  V30 69 1 40 35
M  V30 70 1 47 42
M  V30 71 1 1 68
M  V30 72 1 1 69
M  V30 73 1 1 70
M  V30 74 1 5 71
M  V30 75 1 5 72
M  V30 76 1 6 73
M  V30 77 1 6 74
M  V30 78 1 7 75
M  V30 79 1 7 76
M  V30 80 1 8 77 CFG=1
M  V30 81 1 11 78
M  V30 82 1 12 79 CFG=1
M  V30 83 1 13 80
M  V30 84 1 13 81
M  V30 85 1 14 82
M  V30 86 1 15 83
M  V30 87 1 15 84
M  V30 88 1 15 85
M  V30 89 1 16 86
M  V30 90 1 16 87
M  V30 91 1 16 88
M  V30 92 1 19 89
M  V30 93 1 20 90 CFG=1
M  V30 94 1 21 91
M  V30 95 1 21 92
M  V30 96 1 23 93
M  V30 97 1 25 94
M  V30 98 1 27 95
M  V30 99 1 27 96
M  V30 100 1 28 97
M  V30 101 1 28 98
M  V30 102 1 29 99
M  V30 103 1 29 100
M  V30 104 1 30 101
M  V30 105 1 30 102
M  V30 106 1 31 103
M  V30 107 1 31 104
M  V30 108 1 32 105
M  V30 109 1 32 106
M  V30 110 1 33 107
M  V30 111 1 33 108
M  V30 112 1 34 109
M  V30 113 1 34 110
M  V30 114 1 36 111
M  V30 115 1 37 112
M  V30 116 1 38 113
M  V30 117 1 39 114
M  V30 118 1 43 115
M  V30 119 1 44 116
M  V30 120 1 45 117
M  V30 121 1 46 118
M  V30 122 1 47 119
M  V30 123 1 50 120
M  V30 124 1 51 121 CFG=1
M  V30 125 1 52 122
M  V30 126 1 52 123
M  V30 127 1 53 124
M  V30 128 1 56 125
M  V30 129 1 57 126 CFG=3
M  V30 130 1 59 127
M  V30 131 1 59 128
M  V30 132 1 61 129 CFG=1
M  V30 133 1 62 130
M  V30 134 1 62 131
M  V30 135 1 62 132
M  V30 136 1 66 133
M  V30 137 1 67 134
M  V30 END BOND
M  V30 END CTAB
M  END
>  <Dataset>  (222) 
ChEMBL_Kinases

>  <Ligand_Instance>  (222) 
nan

>  <PDB_ID>  (222) 
nan

>  <Standardized_SMILES>  (222) 
CC(=O)N1CCC[C@H]1C(=O)N[C@@H](CC(C)C)C(=O)N[C@@H](Cc1cncn1CCCCCCCCc1ccccc1Oc1ccccc1)C(=O)N[C@@H](CO)C(=O)N[C@H](C(N)=O)[C@@H](C)OP(=O)(O)O

>  <Name>  (222) 
nan

>  <Pocket>  (222) 
nan

>  <ATP_Site>  (222) 
nan

>  <Peripheral>  (222) 
nan

>  <Num_H_Atoms_ProtBoundConf>  (222) 
nan

>  <Num_Resolved_Atoms>  (222) 
nan

>  <Num_Not_Resolved_Atoms>  (222) 
nan

$$$$
CHEMBL3985313
     RDKit          3D

  0  0  0  0  0  0  0  0  0  0999 V3000
M  V30 BEGIN CTAB
M  V30 COUNTS 56 58 0 0 0
M  V30 BEGIN ATOM
M  V30 1 C 2.274012 -3.946951 5.620952 0
M  V30 2 C 1.484757 -2.779306 5.030678 0
M  V30 3 C 1.882576 -2.698280 3.592605 0
M  V30 4 C 2.965943 -1.917963 3.204038 0
M  V30 5 C 3.318306 -1.864210 1.861809 0
M  V30 6 C 2.620509 -2.569200 0.884729 0
M  V30 7 N 3.197933 -2.333778 -0.390545 0
M  V30 8 C 2.713623 -1.514532 -1.228833 0
M  V30 9 S 1.265483 -0.415577 -1.206918 0
M  V30 10 C 2.079428 0.876979 -2.196265 0
M  V30 11 C 1.974360 2.187983 -2.215637 0
M  V30 12 C 1.010386 2.775160 -1.258169 0
M  V30 13 C 1.198799 3.869528 -0.440170 0
M  V30 14 C 0.152066 4.271379 0.378115 0
M  V30 15 N -1.031917 3.650761 0.413682 0
M  V30 16 C -1.306515 2.562161 -0.359853 0
M  V30 17 N -2.529422 1.844763 -0.387891 0
M  V30 18 C -3.044123 0.728170 0.301177 0
M  V30 19 O -2.567340 -0.021765 1.195939 0
M  V30 20 C -4.431152 0.269656 -0.031008 0
M  V30 21 C -4.684009 -0.949851 0.825351 0
M  V30 22 C -6.069535 -1.449038 0.538076 0
M  V30 23 C -6.196822 -1.828221 -0.879827 0
M  V30 24 O -5.405232 -1.852322 -1.879635 0
M  V30 25 O -6.774770 -2.269853 -2.043640 0
M  V30 26 C -0.252043 2.176972 -1.167895 0
M  V30 27 C 2.954941 0.036396 -3.042783 0
M  V30 28 O 3.383834 0.443546 -4.181338 0
M  V30 29 N 3.291842 -1.240201 -2.524115 0
M  V30 30 C 4.145314 -2.215766 -3.204309 0
M  V30 31 C 1.549048 -3.337051 1.289039 0
M  V30 32 C 1.200158 -3.389872 2.619129 0
M  V30 33 H 2.319283 -4.788503 4.897564 0
M  V30 34 H 3.315745 -3.623629 5.778538 0
M  V30 35 H 1.812045 -4.337232 6.543978 0
M  V30 36 H 0.407055 -2.958234 5.172077 0
M  V30 37 H 1.738437 -1.853831 5.586673 0
M  V30 38 H 3.465165 -1.397882 4.003686 0
M  V30 39 H 4.179778 -1.215329 1.722102 0
M  V30 40 H 2.593846 2.696298 -2.919560 0
M  V30 41 H 2.167338 4.322201 -0.515769 0
M  V30 42 H 0.333271 5.136458 1.010587 0
M  V30 43 H -3.127765 2.309588 -1.106896 0
M  V30 44 H -5.147333 1.089651 0.207533 0
M  V30 45 H -4.458899 0.090490 -1.110835 0
M  V30 46 H -3.905105 -1.733230 0.640179 0
M  V30 47 H -4.657478 -0.609002 1.887818 0
M  V30 48 H -6.749038 -0.570460 0.719437 0
M  V30 49 H -6.372281 -2.257618 1.236511 0
M  V30 50 H -7.786254 -2.224895 -2.206718 0
M  V30 51 H -0.449157 1.315294 -1.800140 0
M  V30 52 H 4.773914 -2.711647 -2.425564 0
M  V30 53 H 3.566645 -3.023283 -3.696279 0
M  V30 54 H 4.806407 -1.706423 -3.929922 0
M  V30 55 H 1.084637 -3.836190 0.452807 0
M  V30 56 H 0.342814 -4.018177 2.858553 0
M  V30 END ATOM
M  V30 BEGIN BOND
M  V30 1 1 1 2
M  V30 2 1 2 3
M  V30 3 2 3 4
M  V30 4 1 4 5
M  V30 5 2 5 6
M  V30 6 1 6 7
M  V30 7 2 7 8
M  V30 8 1 8 9
M  V30 9 1 9 10
M  V30 10 2 10 11
M  V30 11 1 11 12
M  V30 12 2 12 13
M  V30 13 1 13 14
M  V30 14 2 14 15
M  V30 15 1 15 16
M  V30 16 1 16 17
M  V30 17 1 17 18
M  V30 18 2 18 19
M  V30 19 1 18 20
M  V30 20 1 20 21
M  V30 21 1 21 22
M  V30 22 1 22 23
M  V30 23 2 23 24
M  V30 24 1 23 25
M  V30 25 2 16 26
M  V30 26 1 10 27
M  V30 27 2 27 28
M  V30 28 1 27 29
M  V30 29 1 29 30
M  V30 30 1 6 31
M  V30 31 2 31 32
M  V30 32 1 32 3
M  V30 33 1 29 8
M  V30 34 1 26 12
M  V30 35 1 1 33
M  V30 36 1 1 34
M  V30 37 1 1 35
M  V30 38 1 2 36
M  V30 39 1 2 37
M  V30 40 1 4 38
M  V30 41 1 5 39
M  V30 42 1 11 40
M  V30 43 1 13 41
M  V30 44 1 14 42
M  V30 45 1 17 43
M  V30 46 1 20 44
M  V30 47 1 20 45
M  V30 48 1 21 46
M  V30 49 1 21 47
M  V30 50 1 22 48
M  V30 51 1 22 49
M  V30 52 1 25 50
M  V30 53 1 26 51
M  V30 54 1 30 52
M  V30 55 1 30 53
M  V30 56 1 30 54
M  V30 57 1 31 55
M  V30 58 1 32 56
M  V30 END BOND
M  V30 END CTAB
M  END
>  <Dataset>  (223) 
ChEMBL_Kinases

>  <Ligand_Instance>  (223) 
nan

>  <PDB_ID>  (223) 
nan

>  <Standardized_SMILES>  (223) 
CCc1ccc(/N=C2\S/C(=C\c3ccnc(NC(=O)CCCC(=O)O)c3)C(=O)N2C)cc1

>  <Name>  (223) 
nan

>  <Pocket>  (223) 
nan

>  <ATP_Site>  (223) 
nan

>  <Peripheral>  (223) 
nan

>  <Num_H_Atoms_ProtBoundConf>  (223) 
nan

>  <Num_Resolved_Atoms>  (223) 
nan

>  <Num_Not_Resolved_Atoms>  (223) 
nan

$$$$
CHEMBL398529
     RDKit          3D

  0  0  0  0  0  0  0  0  0  0999 V3000
M  V30 BEGIN CTAB
M  V30 COUNTS 64 68 0 0 0
M  V30 BEGIN ATOM
M  V30 1 N 9.775827 -0.197915 3.196210 0
M  V30 2 C 8.865169 0.585866 2.455356 0
M  V30 3 O 9.289398 1.515037 1.706868 0
M  V30 4 C 7.439238 0.266751 2.601915 0
M  V30 5 C 6.986273 -0.757813 3.419070 0
M  V30 6 C 5.634731 -0.996866 3.506255 0
M  V30 7 C 4.701252 -0.267299 2.819967 0
M  V30 8 N 3.368504 -0.254745 2.698423 0
M  V30 9 C 3.010788 0.725934 1.850493 0
M  V30 10 C 1.638371 1.041939 1.470591 0
M  V30 11 C 0.637401 0.271584 2.025748 0
M  V30 12 C -0.655122 0.570726 1.665420 0
M  V30 13 C -1.042117 1.566846 0.802192 0
M  V30 14 O -2.197346 2.057193 0.291195 0
M  V30 15 C -3.523538 1.688371 0.465136 0
M  V30 16 C -3.856032 0.286112 0.014816 0
M  V30 17 C -3.566059 0.072350 -1.448413 0
M  V30 18 C -4.349701 0.998136 -2.337473 0
M  V30 19 C -5.732214 0.397558 -2.545503 0
M  V30 20 C -5.647944 -1.017276 -3.049861 0
M  V30 21 C -4.826466 -1.885896 -2.120584 0
M  V30 22 N -3.586398 -1.271813 -1.854700 0
M  V30 23 C -2.423565 -2.052162 -1.821268 0
M  V30 24 C -2.371110 -3.148097 -0.827765 0
M  V30 25 C -1.891330 -3.014608 0.460248 0
M  V30 26 C -1.841275 -4.028486 1.380786 0
M  V30 27 C -2.288983 -5.267874 1.031841 0
M  V30 28 Cl -2.269896 -6.639484 2.136661 0
M  V30 29 C -2.781070 -5.480573 -0.231335 0
M  V30 30 C -2.813305 -4.427679 -1.130077 0
M  V30 31 C 0.008145 2.328063 0.259151 0
M  V30 32 C 1.343995 2.064175 0.594187 0
M  V30 33 N 4.133715 1.338114 1.433373 0
M  V30 34 C 5.199920 0.737079 2.023660 0
M  V30 35 C 6.540317 1.032319 1.888780 0
M  V30 36 H 10.217268 -1.127592 3.005020 0
M  V30 37 H 10.438463 -0.693002 3.810436 0
M  V30 38 H 7.731797 -1.321852 3.951394 0
M  V30 39 H 5.303936 -1.797439 4.147237 0
M  V30 40 H 2.733701 -0.920137 3.200716 0
M  V30 41 H 0.748920 -0.538254 2.710057 0
M  V30 42 H -1.510195 0.040063 2.045653 0
M  V30 43 H -3.703081 1.698142 1.583640 0
M  V30 44 H -4.178788 2.447673 -0.017918 0
M  V30 45 H -4.948558 0.080607 0.229506 0
M  V30 46 H -3.321888 -0.414640 0.667337 0
M  V30 47 H -2.495250 0.422916 -1.568308 0
M  V30 48 H -3.804286 1.018409 -3.315043 0
M  V30 49 H -4.406290 2.025022 -1.994885 0
M  V30 50 H -6.356542 0.465793 -1.657226 0
M  V30 51 H -6.232102 0.996068 -3.332985 0
M  V30 52 H -6.670531 -1.398784 -3.153604 0
M  V30 53 H -5.195467 -1.028919 -4.077125 0
M  V30 54 H -5.424514 -2.206875 -1.243861 0
M  V30 55 H -4.627583 -2.825099 -2.706717 0
M  V30 56 H -2.269359 -2.488264 -2.850693 0
M  V30 57 H -1.540908 -1.364187 -1.722508 0
M  V30 58 H -1.526976 -2.046614 0.774854 0
M  V30 59 H -1.454672 -3.872476 2.382194 0
M  V30 60 H -3.142893 -6.470205 -0.523533 0
M  V30 61 H -3.213985 -4.667396 -2.106526 0
M  V30 62 H -0.016436 3.166686 -0.441347 0
M  V30 63 H 2.208460 2.595818 0.226316 0
M  V30 64 H 6.958650 1.803593 1.280272 0
M  V30 END ATOM
M  V30 BEGIN BOND
M  V30 1 1 1 2
M  V30 2 2 2 3
M  V30 3 1 2 4
M  V30 4 2 4 5
M  V30 5 1 5 6
M  V30 6 2 6 7
M  V30 7 1 7 8
M  V30 8 1 8 9
M  V30 9 1 9 10
M  V30 10 2 10 11
M  V30 11 1 11 12
M  V30 12 2 12 13
M  V30 13 1 13 14
M  V30 14 1 14 15
M  V30 15 1 15 16
M  V30 16 1 16 17
M  V30 17 1 17 18
M  V30 18 1 18 19
M  V30 19 1 19 20
M  V30 20 1 20 21
M  V30 21 1 21 22
M  V30 22 1 22 23
M  V30 23 1 23 24
M  V30 24 2 24 25
M  V30 25 1 25 26
M  V30 26 2 26 27
M  V30 27 1 27 28
M  V30 28 1 27 29
M  V30 29 2 29 30
M  V30 30 1 13 31
M  V30 31 2 31 32
M  V30 32 2 9 33
M  V30 33 1 33 34
M  V30 34 2 34 35
M  V30 35 1 35 4
M  V30 36 1 34 7
M  V30 37 1 32 10
M  V30 38 1 22 17
M  V30 39 1 30 24
M  V30 40 1 1 36
M  V30 41 1 1 37
M  V30 42 1 5 38
M  V30 43 1 6 39
M  V30 44 1 8 40
M  V30 45 1 11 41
M  V30 46 1 12 42
M  V30 47 1 15 43
M  V30 48 1 15 44
M  V30 49 1 16 45
M  V30 50 1 16 46
M  V30 51 1 17 47
M  V30 52 1 18 48
M  V30 53 1 18 49
M  V30 54 1 19 50
M  V30 55 1 19 51
M  V30 56 1 20 52
M  V30 57 1 20 53
M  V30 58 1 21 54
M  V30 59 1 21 55
M  V30 60 1 23 56
M  V30 61 1 23 57
M  V30 62 1 25 58
M  V30 63 1 26 59
M  V30 64 1 29 60
M  V30 65 1 30 61
M  V30 66 1 31 62
M  V30 67 1 32 63
M  V30 68 1 35 64
M  V30 END BOND
M  V30 END CTAB
M  END
>  <Dataset>  (224) 
ChEMBL_Kinases

>  <Ligand_Instance>  (224) 
nan

>  <PDB_ID>  (224) 
nan

>  <Standardized_SMILES>  (224) 
NC(=O)c1ccc2[nH]c(-c3ccc(OCCC4CCCCN4Cc4ccc(Cl)cc4)cc3)nc2c1

>  <Name>  (224) 
nan

>  <Pocket>  (224) 
nan

>  <ATP_Site>  (224) 
nan

>  <Peripheral>  (224) 
nan

>  <Num_H_Atoms_ProtBoundConf>  (224) 
nan

>  <Num_Resolved_Atoms>  (224) 
nan

>  <Num_Not_Resolved_Atoms>  (224) 
nan

$$$$
CHEMBL398521
     RDKit          3D

  0  0  0  0  0  0  0  0  0  0999 V3000
M  V30 BEGIN CTAB
M  V30 COUNTS 29 31 0 0 0
M  V30 BEGIN ATOM
M  V30 1 O -1.994167 -3.097646 5.393477 0
M  V30 2 C -1.633181 -3.356529 4.234974 0
M  V30 3 N -1.463091 -2.310475 3.284824 0
M  V30 4 C -1.705265 -0.926205 3.642764 0
M  V30 5 C -0.500014 -0.069978 3.321208 0
M  V30 6 C -0.072968 -0.364229 1.928952 0
M  V30 7 N 0.609444 0.409397 1.063156 0
M  V30 8 C 0.802872 -0.235527 -0.124219 0
M  V30 9 C 1.493870 0.264393 -1.309782 0
M  V30 10 C 1.604943 -0.526569 -2.450126 0
M  V30 11 C 2.260040 -0.042029 -3.562497 0
M  V30 12 N 2.801215 1.202148 -3.561543 0
M  V30 13 C 2.676767 1.945130 -2.440009 0
M  V30 14 C 2.031717 1.535712 -1.270912 0
M  V30 15 C 0.211183 -1.499505 -0.020145 0
M  V30 16 C -0.314613 -1.539646 1.252859 0
M  V30 17 C -1.050504 -2.587058 1.952216 0
M  V30 18 O -1.337659 -3.714215 1.443032 0
M  V30 19 H -1.443190 -4.376292 3.931022 0
M  V30 20 H -2.024219 -0.824573 4.692536 0
M  V30 21 H -2.524337 -0.532311 2.972655 0
M  V30 22 H 0.315614 -0.381068 4.037832 0
M  V30 23 H -0.717175 0.984997 3.489482 0
M  V30 24 H 0.978103 1.376301 1.193777 0
M  V30 25 H 1.151411 -1.513154 -2.389776 0
M  V30 26 H 2.288783 -0.736337 -4.391324 0
M  V30 27 H 3.127290 2.943043 -2.480458 0
M  V30 28 H 1.981880 2.196134 -0.426227 0
M  V30 29 H 0.168147 -2.276305 -0.759053 0
M  V30 END ATOM
M  V30 BEGIN BOND
M  V30 1 2 1 2
M  V30 2 1 2 3
M  V30 3 1 3 4
M  V30 4 1 4 5
M  V30 5 1 5 6
M  V30 6 1 6 7
M  V30 7 1 7 8
M  V30 8 1 8 9
M  V30 9 2 9 10
M  V30 10 1 10 11
M  V30 11 2 11 12
M  V30 12 1 12 13
M  V30 13 2 13 14
M  V30 14 2 8 15
M  V30 15 1 15 16
M  V30 16 1 16 17
M  V30 17 2 17 18
M  V30 18 1 17 3
M  V30 19 2 16 6
M  V30 20 1 14 9
M  V30 21 1 2 19
M  V30 22 1 4 20
M  V30 23 1 4 21
M  V30 24 1 5 22
M  V30 25 1 5 23
M  V30 26 1 7 24
M  V30 27 1 10 25
M  V30 28 1 11 26
M  V30 29 1 13 27
M  V30 30 1 14 28
M  V30 31 1 15 29
M  V30 END BOND
M  V30 END CTAB
M  END
>  <Dataset>  (225) 
ChEMBL_Kinases

>  <Ligand_Instance>  (225) 
nan

>  <PDB_ID>  (225) 
nan

>  <Standardized_SMILES>  (225) 
O=CN1CCc2[nH]c(-c3ccncc3)cc2C1=O

>  <Name>  (225) 
nan

>  <Pocket>  (225) 
nan

>  <ATP_Site>  (225) 
nan

>  <Peripheral>  (225) 
nan

>  <Num_H_Atoms_ProtBoundConf>  (225) 
nan

>  <Num_Resolved_Atoms>  (225) 
nan

>  <Num_Not_Resolved_Atoms>  (225) 
nan

$$$$
CHEMBL3985199
     RDKit          3D

  0  0  0  0  0  0  0  0  0  0999 V3000
M  V30 BEGIN CTAB
M  V30 COUNTS 74 78 0 0 0
M  V30 BEGIN ATOM
M  V30 1 C 0.821641 -0.528046 4.156044 0
M  V30 2 C 2.278202 -0.465792 4.436614 0
M  V30 3 C 2.885345 -1.531995 5.074053 0
M  V30 4 C 4.258229 -1.485686 5.342125 0
M  V30 5 C 4.976668 -0.361221 4.957273 0
M  V30 6 C 4.373114 0.726053 4.310871 0
M  V30 7 C 3.018604 0.638859 4.066177 0
M  V30 8 C 2.386107 1.794446 3.380675 0
M  V30 9 O 1.549647 2.501808 3.952093 0
M  V30 10 N 2.889123 1.913755 2.050899 0
M  V30 11 C 2.573524 2.869252 1.015066 0
M  V30 12 N 3.059736 4.075343 0.588676 0
M  V30 13 N 2.335010 4.471268 -0.453970 0
M  V30 14 C 1.358696 3.629915 -0.806760 0
M  V30 15 C 1.521483 2.636961 0.121592 0
M  V30 16 C 0.463859 1.603527 -0.135282 0
M  V30 17 N -0.216316 2.061437 -1.321021 0
M  V30 18 C -1.242814 1.234812 -1.874530 0
M  V30 19 O -1.613178 1.769901 -2.977432 0
M  V30 20 N -1.870243 0.012905 -1.442291 0
M  V30 21 C -1.689979 -0.628155 -0.173188 0
M  V30 22 C -2.597512 -1.846253 0.030423 0
M  V30 23 N -2.841538 -2.540269 -1.154516 0
M  V30 24 C -2.288971 -3.783223 -1.455043 0
M  V30 25 C -2.775601 -4.974978 -0.728979 0
M  V30 26 C -2.029884 -6.212276 -1.252674 0
M  V30 27 C -0.660004 -6.249977 -0.664510 0
M  V30 28 O -0.628903 -6.217680 0.730600 0
M  V30 29 C -1.194494 -5.039322 1.219550 0
M  V30 30 C -2.633393 -5.008092 0.749349 0
M  V30 31 C -3.401945 -1.762635 -2.210924 0
M  V30 32 C -2.692469 -0.504119 -2.559565 0 CFG=2
M  V30 33 C -1.791280 -0.687659 -3.781566 0
M  V30 34 C 0.253485 3.347157 -1.742369 0
M  V30 35 C -0.804359 4.424853 -1.589368 0
M  V30 36 C 0.801952 3.320439 -3.144950 0
M  V30 37 H 0.469521 -1.578307 4.177679 0
M  V30 38 H 0.614647 -0.197812 3.097659 0
M  V30 39 H 0.226211 0.026686 4.906779 0
M  V30 40 H 2.359897 -2.428566 5.389037 0
M  V30 41 H 4.818055 -2.294151 5.845752 0
M  V30 42 H 6.048211 -0.228510 5.119144 0
M  V30 43 H 4.908777 1.606383 4.004533 0
M  V30 44 H 3.594538 1.306576 1.586654 0
M  V30 45 H 2.545219 5.389810 -0.944005 0
M  V30 46 H 0.959512 0.617258 -0.303900 0
M  V30 47 H -0.141056 1.545357 0.767040 0
M  V30 48 H -1.909295 0.114649 0.635743 0
M  V30 49 H -0.648969 -0.955588 -0.053856 0
M  V30 50 H -3.562812 -1.401086 0.422602 0
M  V30 51 H -2.175794 -2.396697 0.868863 0
M  V30 52 H -2.528052 -3.987184 -2.558570 0
M  V30 53 H -1.155740 -3.777264 -1.485893 0
M  V30 54 H -3.862514 -5.138658 -0.953599 0
M  V30 55 H -1.935886 -6.158270 -2.344682 0
M  V30 56 H -2.598452 -7.101210 -0.974515 0
M  V30 57 H -0.207964 -7.256229 -0.922048 0
M  V30 58 H -0.059616 -5.430512 -1.100276 0
M  V30 59 H -1.227309 -5.157826 2.336698 0
M  V30 60 H -0.613365 -4.153938 0.985200 0
M  V30 61 H -3.280016 -4.329155 1.302132 0
M  V30 62 H -3.021896 -6.044411 1.050768 0
M  V30 63 H -3.410985 -2.449483 -3.115301 0
M  V30 64 H -4.486752 -1.571369 -2.003028 0
M  V30 65 H -3.425409 0.292863 -2.788290 0
M  V30 66 H -0.723186 -0.544993 -3.527484 0
M  V30 67 H -2.070141 0.091355 -4.511322 0
M  V30 68 H -2.025687 -1.692845 -4.197453 0
M  V30 69 H -1.241013 4.441189 -0.590343 0
M  V30 70 H -0.251560 5.391314 -1.751367 0
M  V30 71 H -1.542998 4.376949 -2.419951 0
M  V30 72 H 0.106162 2.923776 -3.882148 0
M  V30 73 H 1.760976 2.765298 -3.123766 0
M  V30 74 H 1.099408 4.364079 -3.466164 0
M  V30 END ATOM
M  V30 BEGIN BOND
M  V30 1 1 1 2
M  V30 2 2 2 3
M  V30 3 1 3 4
M  V30 4 2 4 5
M  V30 5 1 5 6
M  V30 6 2 6 7
M  V30 7 1 7 8
M  V30 8 2 8 9
M  V30 9 1 8 10
M  V30 10 1 10 11
M  V30 11 2 11 12
M  V30 12 1 12 13
M  V30 13 1 13 14
M  V30 14 2 14 15
M  V30 15 1 15 16
M  V30 16 1 16 17
M  V30 17 1 17 18
M  V30 18 2 18 19
M  V30 19 1 18 20
M  V30 20 1 20 21
M  V30 21 1 21 22
M  V30 22 1 22 23
M  V30 23 1 23 24
M  V30 24 1 24 25
M  V30 25 1 25 26
M  V30 26 1 26 27
M  V30 27 1 27 28
M  V30 28 1 28 29
M  V30 29 1 29 30
M  V30 30 1 23 31
M  V30 31 1 31 32
M  V30 32 1 32 33
M  V30 33 1 17 34
M  V30 34 1 34 35
M  V30 35 1 34 36
M  V30 36 1 7 2
M  V30 37 1 15 11
M  V30 38 1 32 20
M  V30 39 1 34 14
M  V30 40 1 30 25
M  V30 41 1 1 37
M  V30 42 1 1 38
M  V30 43 1 1 39
M  V30 44 1 3 40
M  V30 45 1 4 41
M  V30 46 1 5 42
M  V30 47 1 6 43
M  V30 48 1 10 44
M  V30 49 1 13 45
M  V30 50 1 16 46
M  V30 51 1 16 47
M  V30 52 1 21 48
M  V30 53 1 21 49
M  V30 54 1 22 50
M  V30 55 1 22 51
M  V30 56 1 24 52
M  V30 57 1 24 53
M  V30 58 1 25 54
M  V30 59 1 26 55
M  V30 60 1 26 56
M  V30 61 1 27 57
M  V30 62 1 27 58
M  V30 63 1 29 59
M  V30 64 1 29 60
M  V30 65 1 30 61
M  V30 66 1 30 62
M  V30 67 1 31 63
M  V30 68 1 31 64
M  V30 69 1 32 65 CFG=3
M  V30 70 1 33 66
M  V30 71 1 33 67
M  V30 72 1 33 68
M  V30 73 1 35 69
M  V30 74 1 35 70
M  V30 75 1 35 71
M  V30 76 1 36 72
M  V30 77 1 36 73
M  V30 78 1 36 74
M  V30 END BOND
M  V30 END CTAB
M  END
>  <Dataset>  (226) 
ChEMBL_Kinases

>  <Ligand_Instance>  (226) 
nan

>  <PDB_ID>  (226) 
nan

>  <Standardized_SMILES>  (226) 
Cc1ccccc1C(=O)Nc1n[nH]c2c1CN(C(=O)N1CCN(CC3CCOCC3)C[C@@H]1C)C2(C)C

>  <Name>  (226) 
nan

>  <Pocket>  (226) 
nan

>  <ATP_Site>  (226) 
nan

>  <Peripheral>  (226) 
nan

>  <Num_H_Atoms_ProtBoundConf>  (226) 
nan

>  <Num_Resolved_Atoms>  (226) 
nan

>  <Num_Not_Resolved_Atoms>  (226) 
nan

$$$$
CHEMBL398513
     RDKit          3D

  0  0  0  0  0  0  0  0  0  0999 V3000
M  V30 BEGIN CTAB
M  V30 COUNTS 39 42 0 0 0
M  V30 BEGIN ATOM
M  V30 1 C 1.730721 -2.694393 4.363912 0
M  V30 2 C 2.335704 -2.468596 3.046942 0
M  V30 3 C 3.562588 -2.987896 2.617193 0
M  V30 4 N 3.786391 -2.566672 1.355594 0
M  V30 5 C 2.745452 -1.804936 0.983759 0
M  V30 6 C 2.401227 -1.109675 -0.155960 0
M  V30 7 N 3.258996 -1.103755 -1.299468 0
M  V30 8 C 2.953827 -0.397796 -2.516940 0
M  V30 9 C 1.702303 -0.828714 -3.201163 0
M  V30 10 N 1.463196 -0.061500 -4.433758 0
M  V30 11 N 1.265229 -0.406031 -0.269030 0
M  V30 12 C 0.372000 -0.329132 0.734511 0
M  V30 13 C -0.822985 0.331857 0.797153 0
M  V30 14 C -1.563398 0.277598 1.899611 0
M  V30 15 C -2.839896 0.866465 2.235264 0
M  V30 16 C -3.471113 1.644250 1.285034 0
M  V30 17 C -4.697548 2.210458 1.606478 0
M  V30 18 C -5.223602 1.966441 2.861203 0
M  V30 19 C -4.561333 1.177251 3.796578 0
M  V30 20 N -3.375729 0.645782 3.449382 0
M  V30 21 S -0.618698 -0.763373 3.038980 0
M  V30 22 C 0.754027 -1.041742 1.864097 0
M  V30 23 N 1.891010 -1.763585 2.017593 0
M  V30 24 H 1.969628 -3.754013 4.673562 0
M  V30 25 H 0.642367 -2.599081 4.380004 0
M  V30 26 H 2.249899 -2.060338 5.138709 0
M  V30 27 H 4.263700 -3.611367 3.120841 0
M  V30 28 H 4.158291 -1.658312 -1.212157 0
M  V30 29 H 2.898013 0.715090 -2.330252 0
M  V30 30 H 3.802528 -0.523751 -3.212249 0
M  V30 31 H 1.809677 -1.897580 -3.469792 0
M  V30 32 H 0.806468 -0.658146 -2.584379 0
M  V30 33 H 2.312736 0.442381 -4.759107 0
M  V30 34 H 1.208818 -0.730015 -5.204519 0
M  V30 35 H -1.210594 0.919211 -0.037802 0
M  V30 36 H -3.014676 1.802834 0.318251 0
M  V30 37 H -5.229260 2.829593 0.888695 0
M  V30 38 H -6.176332 2.378533 3.174579 0
M  V30 39 H -4.952668 0.971847 4.784766 0
M  V30 END ATOM
M  V30 BEGIN BOND
M  V30 1 1 1 2
M  V30 2 2 2 3
M  V30 3 1 3 4
M  V30 4 2 4 5
M  V30 5 1 5 6
M  V30 6 1 6 7
M  V30 7 1 7 8
M  V30 8 1 8 9
M  V30 9 1 9 10
M  V30 10 2 6 11
M  V30 11 1 11 12
M  V30 12 1 12 13
M  V30 13 2 13 14
M  V30 14 1 14 15
M  V30 15 2 15 16
M  V30 16 1 16 17
M  V30 17 2 17 18
M  V30 18 1 18 19
M  V30 19 2 19 20
M  V30 20 1 14 21
M  V30 21 1 21 22
M  V30 22 1 22 23
M  V30 23 1 23 2
M  V30 24 1 23 5
M  V30 25 2 22 12
M  V30 26 1 20 15
M  V30 27 1 1 24
M  V30 28 1 1 25
M  V30 29 1 1 26
M  V30 30 1 3 27
M  V30 31 1 7 28
M  V30 32 1 8 29
M  V30 33 1 8 30
M  V30 34 1 9 31
M  V30 35 1 9 32
M  V30 36 1 10 33
M  V30 37 1 10 34
M  V30 38 1 13 35
M  V30 39 1 16 36
M  V30 40 1 17 37
M  V30 41 1 18 38
M  V30 42 1 19 39
M  V30 END BOND
M  V30 END CTAB
M  END
>  <Dataset>  (227) 
ChEMBL_Kinases

>  <Ligand_Instance>  (227) 
nan

>  <PDB_ID>  (227) 
nan

>  <Standardized_SMILES>  (227) 
Cc1cnc2c(NCCN)nc3cc(-c4ccccn4)sc3n12

>  <Name>  (227) 
nan

>  <Pocket>  (227) 
nan

>  <ATP_Site>  (227) 
nan

>  <Peripheral>  (227) 
nan

>  <Num_H_Atoms_ProtBoundConf>  (227) 
nan

>  <Num_Resolved_Atoms>  (227) 
nan

>  <Num_Not_Resolved_Atoms>  (227) 
nan

$$$$
CHEMBL3985036
     RDKit          3D

  0  0  0  0  0  0  0  0  0  0999 V3000
M  V30 BEGIN CTAB
M  V30 COUNTS 66 69 0 0 0
M  V30 BEGIN ATOM
M  V30 1 C 4.692928 1.107127 4.123729 0
M  V30 2 C 3.349812 1.690481 4.579795 0
M  V30 3 C 2.334575 1.607235 3.456864 0
M  V30 4 C 2.791655 2.376520 2.245617 0
M  V30 5 N 1.853608 2.316597 1.164700 0
M  V30 6 C 0.621848 3.019743 1.436894 0
M  V30 7 C -0.343927 2.735640 0.298732 0
M  V30 8 N 0.283358 1.941467 -0.737592 0
M  V30 9 C -0.360292 0.730311 -1.032770 0
M  V30 10 O -1.379306 0.653581 -0.271194 0
M  V30 11 N -0.535020 -0.499345 -1.714165 0
M  V30 12 C -1.663929 -1.350071 -1.387100 0
M  V30 13 C -0.915441 -2.630471 -1.106583 0
M  V30 14 C -0.825858 -3.822513 -0.377065 0
M  V30 15 N -1.779058 -4.189907 0.608221 0
M  V30 16 C -2.975938 -4.933440 0.504424 0
M  V30 17 O -3.133953 -5.282189 -0.696924 0
M  V30 18 C -3.862302 -5.232880 1.618623 0
M  V30 19 C -4.964488 -5.998932 1.216265 0
M  V30 20 C -5.924856 -6.394035 2.111421 0
M  V30 21 C -5.838841 -6.053751 3.424894 0
M  V30 22 F -6.765320 -6.419073 4.357125 0
M  V30 23 C -4.779600 -5.309582 3.848475 0
M  V30 24 C -3.814716 -4.911373 2.954816 0
M  V30 25 F -2.736336 -4.175435 3.288465 0
M  V30 26 N 0.297467 -4.458042 -0.818459 0
M  V30 27 N 0.873069 -3.729604 -1.750483 0
M  V30 28 C 0.188103 -2.613909 -1.969125 0
M  V30 29 C 0.072500 -1.332609 -2.736402 0
M  V30 30 C 1.404967 -0.854720 -3.210826 0
M  V30 31 C -0.822632 -1.559184 -3.905605 0
M  V30 32 C 1.448615 2.693854 -1.168708 0 CFG=1
M  V30 33 C 1.055127 4.071153 -1.677821 0
M  V30 34 C 2.429077 2.896204 -0.033910 0
M  V30 35 H 5.279437 1.862826 3.552678 0
M  V30 36 H 5.263088 0.796671 5.018118 0
M  V30 37 H 4.532138 0.210209 3.496557 0
M  V30 38 H 2.991916 1.040912 5.405698 0
M  V30 39 H 3.494703 2.720538 4.952708 0
M  V30 40 H 1.382961 1.973125 3.858341 0
M  V30 41 H 2.211520 0.545154 3.197933 0
M  V30 42 H 3.126562 3.397933 2.498037 0
M  V30 43 H 3.723944 1.850522 1.895283 0
M  V30 44 H 0.174664 2.764620 2.425354 0
M  V30 45 H 0.873367 4.101391 1.481152 0
M  V30 46 H -0.705444 3.702297 -0.160040 0
M  V30 47 H -1.243830 2.290362 0.741232 0
M  V30 48 H -2.301845 -1.559795 -2.280606 0
M  V30 49 H -2.257738 -1.034665 -0.535729 0
M  V30 50 H -1.452901 -3.802424 1.517859 0
M  V30 51 H -5.143262 -6.336329 0.182109 0
M  V30 52 H -6.775150 -6.984462 1.805707 0
M  V30 53 H -4.587826 -4.968899 4.871421 0
M  V30 54 H 1.765069 -4.005753 -2.253359 0
M  V30 55 H 2.060630 -0.421602 -2.454452 0
M  V30 56 H 1.216167 -0.069461 -3.981826 0
M  V30 57 H 1.885994 -1.689938 -3.748247 0
M  V30 58 H -1.367037 -2.538482 -3.808265 0
M  V30 59 H -1.602795 -0.787576 -4.035531 0
M  V30 60 H -0.238597 -1.656562 -4.843594 0
M  V30 61 H 2.012386 2.136778 -1.958995 0
M  V30 62 H 0.015411 4.138313 -2.018234 0
M  V30 63 H 1.706943 4.380976 -2.543180 0
M  V30 64 H 1.209660 4.868040 -0.924953 0
M  V30 65 H 2.611535 3.977203 0.160109 0
M  V30 66 H 3.420221 2.434930 -0.240375 0
M  V30 END ATOM
M  V30 BEGIN BOND
M  V30 1 1 1 2
M  V30 2 1 2 3
M  V30 3 1 3 4
M  V30 4 1 4 5
M  V30 5 1 5 6
M  V30 6 1 6 7
M  V30 7 1 7 8
M  V30 8 1 8 9
M  V30 9 2 9 10
M  V30 10 1 9 11
M  V30 11 1 11 12
M  V30 12 1 12 13
M  V30 13 1 13 14
M  V30 14 1 14 15
M  V30 15 1 15 16
M  V30 16 2 16 17
M  V30 17 1 16 18
M  V30 18 2 18 19
M  V30 19 1 19 20
M  V30 20 2 20 21
M  V30 21 1 21 22
M  V30 22 1 21 23
M  V30 23 2 23 24
M  V30 24 1 24 25
M  V30 25 2 14 26
M  V30 26 1 26 27
M  V30 27 1 27 28
M  V30 28 1 28 29
M  V30 29 1 29 30
M  V30 30 1 29 31
M  V30 31 1 8 32
M  V30 32 1 32 33
M  V30 33 1 32 34
M  V30 34 1 34 5
M  V30 35 1 29 11
M  V30 36 2 28 13
M  V30 37 1 24 18
M  V30 38 1 1 35
M  V30 39 1 1 36
M  V30 40 1 1 37
M  V30 41 1 2 38
M  V30 42 1 2 39
M  V30 43 1 3 40
M  V30 44 1 3 41
M  V30 45 1 4 42
M  V30 46 1 4 43
M  V30 47 1 6 44
M  V30 48 1 6 45
M  V30 49 1 7 46
M  V30 50 1 7 47
M  V30 51 1 12 48
M  V30 52 1 12 49
M  V30 53 1 15 50
M  V30 54 1 19 51
M  V30 55 1 20 52
M  V30 56 1 23 53
M  V30 57 1 27 54
M  V30 58 1 30 55
M  V30 59 1 30 56
M  V30 60 1 30 57
M  V30 61 1 31 58
M  V30 62 1 31 59
M  V30 63 1 31 60
M  V30 64 1 32 61 CFG=3
M  V30 65 1 33 62
M  V30 66 1 33 63
M  V30 67 1 33 64
M  V30 68 1 34 65
M  V30 69 1 34 66
M  V30 END BOND
M  V30 END CTAB
M  END
>  <Dataset>  (228) 
ChEMBL_Kinases

>  <Ligand_Instance>  (228) 
nan

>  <PDB_ID>  (228) 
nan

>  <Standardized_SMILES>  (228) 
CCCCN1CCN(C(=O)N2Cc3c(NC(=O)c4ccc(F)cc4F)n[nH]c3C2(C)C)[C@@H](C)C1

>  <Name>  (228) 
nan

>  <Pocket>  (228) 
nan

>  <ATP_Site>  (228) 
nan

>  <Peripheral>  (228) 
nan

>  <Num_H_Atoms_ProtBoundConf>  (228) 
nan

>  <Num_Resolved_Atoms>  (228) 
nan

>  <Num_Not_Resolved_Atoms>  (228) 
nan

$$$$
CHEMBL94487
     RDKit          3D

  0  0  0  0  0  0  0  0  0  0999 V3000
M  V30 BEGIN CTAB
M  V30 COUNTS 47 49 0 0 0
M  V30 BEGIN ATOM
M  V30 1 C 3.021479 -5.794206 1.103533 0
M  V30 2 C 2.198261 -5.430842 -0.112327 0
M  V30 3 C 2.221040 -6.542416 -1.134039 0
M  V30 4 C 0.761129 -5.259802 0.381713 0
M  V30 5 C 2.694153 -4.168722 -0.725007 0
M  V30 6 C 2.272360 -2.890821 -0.416361 0
M  V30 7 C 2.957726 -1.976527 -1.188133 0
M  V30 8 N 2.879166 -0.555844 -1.237552 0
M  V30 9 C 2.005020 0.214591 -0.428368 0
M  V30 10 O 1.241351 -0.356903 0.391007 0
M  V30 11 N 1.937708 1.634579 -0.489008 0
M  V30 12 C 0.955136 2.122634 0.454683 0
M  V30 13 C 1.433835 2.408066 1.738886 0
M  V30 14 C 0.520271 2.875105 2.660484 0
M  V30 15 C -0.809584 3.062937 2.362018 0
M  V30 16 O -1.740944 3.538894 3.300968 0
M  V30 17 C -3.074448 3.720078 2.977543 0
M  V30 18 C -3.845195 2.580224 3.214880 0
M  V30 19 C -5.216935 2.570778 2.948940 0
M  V30 20 C -5.810811 3.715719 2.442105 0
M  V30 21 C -5.036399 4.832943 2.213201 0
M  V30 22 C -3.692613 4.838668 2.474925 0
M  V30 23 C -1.236850 2.773251 1.099394 0
M  V30 24 C -0.384739 2.296709 0.103394 0
M  V30 25 N 3.773080 -2.738237 -1.939162 0
M  V30 26 O 3.603477 -3.995484 -1.655012 0
M  V30 27 H 3.835297 -6.506467 0.867346 0
M  V30 28 H 3.455861 -4.845619 1.526252 0
M  V30 29 H 2.378930 -6.196787 1.918237 0
M  V30 30 H 1.226923 -7.013099 -1.219976 0
M  V30 31 H 2.466547 -6.149639 -2.149020 0
M  V30 32 H 3.018768 -7.249785 -0.836462 0
M  V30 33 H 0.758334 -4.779912 1.396872 0
M  V30 34 H 0.316975 -6.255535 0.503640 0
M  V30 35 H 0.186677 -4.625762 -0.320215 0
M  V30 36 H 1.525945 -2.659443 0.313270 0
M  V30 37 H 3.486942 -0.027030 -1.896347 0
M  V30 38 H 2.583205 2.080664 -1.178231 0
M  V30 39 H 2.481187 2.263043 1.983640 0
M  V30 40 H 0.846154 3.111392 3.674645 0
M  V30 41 H -3.467039 1.631283 3.612573 0
M  V30 42 H -5.833299 1.694826 3.126609 0
M  V30 43 H -6.883191 3.731004 2.226476 0
M  V30 44 H -5.460873 5.747638 1.818097 0
M  V30 45 H -3.007364 5.676554 2.323749 0
M  V30 46 H -2.266219 2.895779 0.792177 0
M  V30 47 H -0.686348 2.057251 -0.904440 0
M  V30 END ATOM
M  V30 BEGIN BOND
M  V30 1 1 1 2
M  V30 2 1 2 3
M  V30 3 1 2 4
M  V30 4 1 2 5
M  V30 5 2 5 6
M  V30 6 1 6 7
M  V30 7 1 7 8
M  V30 8 1 8 9
M  V30 9 2 9 10
M  V30 10 1 9 11
M  V30 11 1 11 12
M  V30 12 2 12 13
M  V30 13 1 13 14
M  V30 14 2 14 15
M  V30 15 1 15 16
M  V30 16 1 16 17
M  V30 17 2 17 18
M  V30 18 1 18 19
M  V30 19 2 19 20
M  V30 20 1 20 21
M  V30 21 2 21 22
M  V30 22 1 15 23
M  V30 23 2 23 24
M  V30 24 2 7 25
M  V30 25 1 25 26
M  V30 26 1 26 5
M  V30 27 1 24 12
M  V30 28 1 22 17
M  V30 29 1 1 27
M  V30 30 1 1 28
M  V30 31 1 1 29
M  V30 32 1 3 30
M  V30 33 1 3 31
M  V30 34 1 3 32
M  V30 35 1 4 33
M  V30 36 1 4 34
M  V30 37 1 4 35
M  V30 38 1 6 36
M  V30 39 1 8 37
M  V30 40 1 11 38
M  V30 41 1 13 39
M  V30 42 1 14 40
M  V30 43 1 18 41
M  V30 44 1 19 42
M  V30 45 1 20 43
M  V30 46 1 21 44
M  V30 47 1 22 45
M  V30 48 1 23 46
M  V30 49 1 24 47
M  V30 END BOND
M  V30 END CTAB
M  END
>  <Dataset>  (229) 
ChEMBL_Kinases

>  <Ligand_Instance>  (229) 
nan

>  <PDB_ID>  (229) 
nan

>  <Standardized_SMILES>  (229) 
CC(C)(C)c1cc(NC(=O)Nc2ccc(Oc3ccccc3)cc2)no1

>  <Name>  (229) 
nan

>  <Pocket>  (229) 
nan

>  <ATP_Site>  (229) 
nan

>  <Peripheral>  (229) 
nan

>  <Num_H_Atoms_ProtBoundConf>  (229) 
nan

>  <Num_Resolved_Atoms>  (229) 
nan

>  <Num_Not_Resolved_Atoms>  (229) 
nan

$$$$
CHEMBL4867053
     RDKit          3D

  0  0  0  0  0  0  0  0  0  0999 V3000
M  V30 BEGIN CTAB
M  V30 COUNTS 45 47 0 0 0
M  V30 BEGIN ATOM
M  V30 1 C -2.037426 -3.645028 2.791328 0
M  V30 2 N -0.670887 -4.066650 3.117854 0
M  V30 3 C 0.204072 -4.933920 2.416601 0
M  V30 4 C 1.056399 -4.390400 1.464606 0
M  V30 5 C 1.948701 -5.158685 0.726962 0
M  V30 6 O 2.745101 -4.498118 -0.192138 0
M  V30 7 C 2.689834 -3.129679 -0.402281 0
M  V30 8 C 3.493704 -2.278958 0.329280 0
M  V30 9 C 3.472178 -0.910972 0.153894 0
M  V30 10 C 2.615411 -0.374301 -0.787491 0
M  V30 11 N 2.413617 0.992773 -1.148164 0
M  V30 12 C 1.390416 1.639025 -0.374878 0
M  V30 13 O 0.774776 1.000995 0.515483 0
M  V30 14 N 1.001075 3.001909 -0.543034 0
M  V30 15 C -0.041889 3.530424 0.299059 0
M  V30 16 C 0.230378 4.127609 1.519847 0
M  V30 17 C -0.815910 4.617081 2.284846 0
M  V30 18 C -2.141831 4.531850 1.871747 0
M  V30 19 C -2.430236 3.933082 0.644864 0
M  V30 20 C -3.832996 3.802037 0.127697 0
M  V30 21 F -4.635280 3.091138 0.975220 0
M  V30 22 F -4.381561 5.058014 -0.073904 0
M  V30 23 C -1.358983 3.451001 -0.101020 0
M  V30 24 C 1.796934 -1.218922 -1.534760 0
M  V30 25 C 1.819227 -2.593192 -1.357883 0
M  V30 26 N 1.974547 -6.500429 0.961146 0
M  V30 27 C 1.126483 -7.000650 1.900521 0
M  V30 28 N 0.269301 -6.246881 2.606089 0
M  V30 29 H -2.675677 -3.639052 3.692264 0
M  V30 30 H -2.029082 -2.609106 2.373404 0
M  V30 31 H -2.437024 -4.381969 2.064930 0
M  V30 32 H -0.200383 -3.713884 3.989124 0
M  V30 33 H 1.014786 -3.322325 1.299081 0
M  V30 34 H 4.181310 -2.648154 1.077906 0
M  V30 35 H 4.049889 -0.173657 0.665519 0
M  V30 36 H 2.892595 1.577964 -1.877641 0
M  V30 37 H 1.495712 3.562396 -1.278188 0
M  V30 38 H 1.263652 4.207079 1.867336 0
M  V30 39 H -0.562732 5.074674 3.228538 0
M  V30 40 H -2.962490 4.916946 2.474102 0
M  V30 41 H -3.795051 3.288913 -0.871328 0
M  V30 42 H -1.570132 2.984345 -1.054684 0
M  V30 43 H 1.086637 -0.933870 -2.297301 0
M  V30 44 H 1.226821 -3.305815 -1.887406 0
M  V30 45 H 1.174846 -8.087642 2.062998 0
M  V30 END ATOM
M  V30 BEGIN BOND
M  V30 1 1 1 2
M  V30 2 1 2 3
M  V30 3 2 3 4
M  V30 4 1 4 5
M  V30 5 1 5 6
M  V30 6 1 6 7
M  V30 7 2 7 8
M  V30 8 1 8 9
M  V30 9 2 9 10
M  V30 10 1 10 11
M  V30 11 1 11 12
M  V30 12 2 12 13
M  V30 13 1 12 14
M  V30 14 1 14 15
M  V30 15 2 15 16
M  V30 16 1 16 17
M  V30 17 2 17 18
M  V30 18 1 18 19
M  V30 19 1 19 20
M  V30 20 1 20 21
M  V30 21 1 20 22
M  V30 22 2 19 23
M  V30 23 1 10 24
M  V30 24 2 24 25
M  V30 25 2 5 26
M  V30 26 1 26 27
M  V30 27 2 27 28
M  V30 28 1 28 3
M  V30 29 1 25 7
M  V30 30 1 23 15
M  V30 31 1 1 29
M  V30 32 1 1 30
M  V30 33 1 1 31
M  V30 34 1 2 32
M  V30 35 1 4 33
M  V30 36 1 8 34
M  V30 37 1 9 35
M  V30 38 1 11 36
M  V30 39 1 14 37
M  V30 40 1 16 38
M  V30 41 1 17 39
M  V30 42 1 18 40
M  V30 43 1 20 41
M  V30 44 1 23 42
M  V30 45 1 24 43
M  V30 46 1 25 44
M  V30 47 1 27 45
M  V30 END BOND
M  V30 END CTAB
M  END
>  <Dataset>  (230) 
ChEMBL_Kinases

>  <Ligand_Instance>  (230) 
nan

>  <PDB_ID>  (230) 
nan

>  <Standardized_SMILES>  (230) 
CNc1cc(Oc2ccc(NC(=O)Nc3cccc(C(F)F)c3)cc2)ncn1

>  <Name>  (230) 
nan

>  <Pocket>  (230) 
nan

>  <ATP_Site>  (230) 
nan

>  <Peripheral>  (230) 
nan

>  <Num_H_Atoms_ProtBoundConf>  (230) 
nan

>  <Num_Resolved_Atoms>  (230) 
nan

>  <Num_Not_Resolved_Atoms>  (230) 
nan

$$$$
CHEMBL3980198
     RDKit          3D

  0  0  0  0  0  0  0  0  0  0999 V3000
M  V30 BEGIN CTAB
M  V30 COUNTS 49 53 0 0 0
M  V30 BEGIN ATOM
M  V30 1 C 5.755122 -4.895521 1.321245 0
M  V30 2 O 5.156365 -4.780009 0.020900 0
M  V30 3 C 4.087912 -3.896204 -0.122868 0
M  V30 4 O 3.806962 -3.312565 0.970326 0
M  V30 5 N 3.381618 -3.658858 -1.335630 0
M  V30 6 C 2.309387 -2.719418 -1.314569 0
M  V30 7 N 1.925261 -2.053481 -0.209519 0
M  V30 8 C 0.892286 -1.236949 -0.499484 0
M  V30 9 C 0.123384 -0.341434 0.242546 0
M  V30 10 C -0.905394 0.373290 -0.381812 0
M  V30 11 C -1.588891 1.272772 0.610827 0
M  V30 12 O -2.692833 1.892281 0.077452 0
M  V30 13 C -0.550958 2.257437 1.080038 0
M  V30 14 C 0.062147 3.260041 0.342514 0
M  V30 15 C 1.016475 4.115532 0.850754 0
M  V30 16 C 1.336368 3.909414 2.178772 0
M  V30 17 C 0.749026 2.921572 2.950420 0
M  V30 18 C -0.201933 2.087012 2.402762 0
M  V30 19 C -1.015490 0.987408 2.874041 0
M  V30 20 O -0.908672 0.601964 4.066170 0
M  V30 21 N -1.842412 0.519085 1.816253 0
M  V30 22 C -2.789165 -0.534431 1.909887 0
M  V30 23 C -3.563052 -0.917535 0.825396 0
M  V30 24 C -4.498278 -1.925807 0.837450 0
M  V30 25 F -5.234631 -2.278100 -0.224074 0
M  V30 26 C -4.697456 -2.625720 2.017560 0
M  V30 27 C -3.958434 -2.292902 3.133081 0
M  V30 28 F -4.175580 -2.991020 4.261880 0
M  V30 29 C -3.041765 -1.268015 3.031791 0
M  V30 30 C -1.151990 0.187636 -1.725146 0
M  V30 31 C -0.375522 -0.702873 -2.427733 0
M  V30 32 C 0.644668 -1.422096 -1.843868 0
M  V30 33 N 1.516501 -2.329365 -2.329035 0
M  V30 34 H 5.022665 -5.096422 2.109922 0
M  V30 35 H 6.186613 -3.879623 1.563446 0
M  V30 36 H 6.583364 -5.630796 1.253296 0
M  V30 37 H 3.685713 -4.181241 -2.165766 0
M  V30 38 H 0.414462 -0.286818 1.278754 0
M  V30 39 H -2.795299 2.767043 0.546785 0
M  V30 40 H -0.204783 3.407092 -0.706410 0
M  V30 41 H 1.485209 4.888287 0.272288 0
M  V30 42 H 2.064665 4.517114 2.672481 0
M  V30 43 H 1.008564 2.771402 3.987444 0
M  V30 44 H -3.478558 -0.430335 -0.131324 0
M  V30 45 H -5.419540 -3.423506 2.074995 0
M  V30 46 H -2.505731 -1.067074 3.939459 0
M  V30 47 H -1.966414 0.798126 -2.070200 0
M  V30 48 H -0.617144 -0.803508 -3.472868 0
M  V30 49 H 1.558090 -2.660334 -3.315028 0
M  V30 END ATOM
M  V30 BEGIN BOND
M  V30 1 1 1 2
M  V30 2 1 2 3
M  V30 3 2 3 4
M  V30 4 1 3 5
M  V30 5 1 5 6
M  V30 6 2 6 7
M  V30 7 1 7 8
M  V30 8 2 8 9
M  V30 9 1 9 10
M  V30 10 1 10 11
M  V30 11 1 11 12
M  V30 12 1 11 13
M  V30 13 2 13 14
M  V30 14 1 14 15
M  V30 15 2 15 16
M  V30 16 1 16 17
M  V30 17 2 17 18
M  V30 18 1 18 19
M  V30 19 2 19 20
M  V30 20 1 19 21
M  V30 21 1 21 22
M  V30 22 2 22 23
M  V30 23 1 23 24
M  V30 24 1 24 25
M  V30 25 2 24 26
M  V30 26 1 26 27
M  V30 27 1 27 28
M  V30 28 2 27 29
M  V30 29 2 10 30
M  V30 30 1 30 31
M  V30 31 2 31 32
M  V30 32 1 32 33
M  V30 33 1 33 6
M  V30 34 1 32 8
M  V30 35 1 21 11
M  V30 36 1 29 22
M  V30 37 1 18 13
M  V30 38 1 1 34
M  V30 39 1 1 35
M  V30 40 1 1 36
M  V30 41 1 5 37
M  V30 42 1 9 38
M  V30 43 1 12 39
M  V30 44 1 14 40
M  V30 45 1 15 41
M  V30 46 1 16 42
M  V30 47 1 17 43
M  V30 48 1 23 44
M  V30 49 1 26 45
M  V30 50 1 29 46
M  V30 51 1 30 47
M  V30 52 1 31 48
M  V30 53 1 33 49
M  V30 END BOND
M  V30 END CTAB
M  END
>  <Dataset>  (231) 
ChEMBL_Kinases

>  <Ligand_Instance>  (231) 
nan

>  <PDB_ID>  (231) 
nan

>  <Standardized_SMILES>  (231) 
COC(=O)Nc1nc2cc(C3(O)c4ccccc4C(=O)N3c3cc(F)cc(F)c3)ccc2[nH]1

>  <Name>  (231) 
nan

>  <Pocket>  (231) 
nan

>  <ATP_Site>  (231) 
nan

>  <Peripheral>  (231) 
nan

>  <Num_H_Atoms_ProtBoundConf>  (231) 
nan

>  <Num_Resolved_Atoms>  (231) 
nan

>  <Num_Not_Resolved_Atoms>  (231) 
nan

$$$$
CHEMBL3980079
     RDKit          3D

  0  0  0  0  0  0  0  0  0  0999 V3000
M  V30 BEGIN CTAB
M  V30 COUNTS 47 50 0 0 0
M  V30 BEGIN ATOM
M  V30 1 C 5.146629 -2.170766 1.957443 0
M  V30 2 N 4.697727 -2.061139 0.583792 0
M  V30 3 N 5.483645 -1.889805 -0.485348 0
M  V30 4 C 4.747875 -1.805433 -1.617554 0
M  V30 5 C 3.463492 -1.937749 -1.158632 0
M  V30 6 C 2.316772 -1.909198 -1.927312 0
M  V30 7 C 1.189014 -2.053078 -1.197702 0
M  V30 8 N 1.123128 -2.214964 0.131021 0
M  V30 9 C 2.202609 -2.244029 0.869157 0
M  V30 10 C 3.407236 -2.099761 0.213941 0
M  V30 11 C 2.055382 -2.460339 2.298888 0
M  V30 12 C 1.701913 -1.262675 3.100079 0
M  V30 13 C 0.328386 -0.743223 3.028127 0
M  V30 14 O -0.148130 -0.294485 1.840051 0
M  V30 15 C -1.437640 0.256704 1.967555 0
M  V30 16 C -1.929330 0.774920 0.636281 0 CFG=2
M  V30 17 C -3.085353 1.621962 0.655136 0
M  V30 18 C -4.336879 1.013454 0.773995 0
M  V30 19 C -5.482655 1.803621 0.792484 0
M  V30 20 C -5.405160 3.171307 0.695858 0
M  V30 21 C -4.173883 3.814277 0.576075 0
M  V30 22 C -3.034944 3.011013 0.559052 0
M  V30 23 N -2.093748 -0.380570 -0.263867 0
M  V30 24 C -1.478365 -1.436454 -1.051404 0
M  V30 25 O -0.750146 -0.690311 -0.376840 0
M  V30 26 N -0.224783 -2.017561 -1.380618 0
M  V30 27 H 6.220022 -1.793943 1.938696 0
M  V30 28 H 4.653821 -1.444668 2.638196 0
M  V30 29 H 5.236146 -3.194744 2.324118 0
M  V30 30 H 5.052163 -1.667843 -2.652967 0
M  V30 31 H 2.051884 -1.812397 -2.938174 0
M  V30 32 H 1.162195 -3.176294 2.485929 0
M  V30 33 H 2.959656 -2.998239 2.681640 0
M  V30 34 H 2.434368 -0.424595 2.788458 0
M  V30 35 H 1.993683 -1.450017 4.199651 0
M  V30 36 H 0.169008 0.016994 3.856384 0
M  V30 37 H -0.342047 -1.607328 3.387554 0
M  V30 38 H -1.387696 1.020043 2.741069 0
M  V30 39 H -2.093621 -0.605193 2.281848 0
M  V30 40 H -1.031829 1.358245 0.256947 0
M  V30 41 H -4.554119 -0.024459 0.857476 0
M  V30 42 H -6.493183 1.408777 0.882270 0
M  V30 43 H -6.287388 3.798268 0.708960 0
M  V30 44 H -4.029845 4.866451 0.496906 0
M  V30 45 H -2.027553 3.389588 0.471243 0
M  V30 46 H -3.129725 -0.591934 -0.474198 0
M  V30 47 H -0.248645 -2.806700 -2.030069 0
M  V30 END ATOM
M  V30 BEGIN BOND
M  V30 1 1 1 2
M  V30 2 1 2 3
M  V30 3 2 3 4
M  V30 4 1 4 5
M  V30 5 2 5 6
M  V30 6 1 6 7
M  V30 7 2 7 8
M  V30 8 1 8 9
M  V30 9 2 9 10
M  V30 10 1 9 11
M  V30 11 1 11 12
M  V30 12 1 12 13
M  V30 13 1 13 14
M  V30 14 1 14 15
M  V30 15 1 15 16
M  V30 16 1 16 17
M  V30 17 2 17 18
M  V30 18 1 18 19
M  V30 19 2 19 20
M  V30 20 1 20 21
M  V30 21 2 21 22
M  V30 22 1 16 23
M  V30 23 1 23 24
M  V30 24 2 24 25
M  V30 25 1 24 26
M  V30 26 1 10 2
M  V30 27 1 22 17
M  V30 28 1 10 5
M  V30 29 1 26 7
M  V30 30 1 1 27
M  V30 31 1 1 28
M  V30 32 1 1 29
M  V30 33 1 4 30
M  V30 34 1 6 31
M  V30 35 1 11 32
M  V30 36 1 11 33
M  V30 37 1 12 34
M  V30 38 1 12 35
M  V30 39 1 13 36
M  V30 40 1 13 37
M  V30 41 1 15 38
M  V30 42 1 15 39
M  V30 43 1 16 40 CFG=3
M  V30 44 1 18 41
M  V30 45 1 19 42
M  V30 46 1 20 43
M  V30 47 1 21 44
M  V30 48 1 22 45
M  V30 49 1 23 46
M  V30 50 1 26 47
M  V30 END BOND
M  V30 END CTAB
M  END
>  <Dataset>  (232) 
ChEMBL_Kinases

>  <Ligand_Instance>  (232) 
nan

>  <PDB_ID>  (232) 
nan

>  <Standardized_SMILES>  (232) 
Cn1ncc2cc3nc(c21)CCCOC[C@H](c1ccccc1)NC(=O)N3

>  <Name>  (232) 
nan

>  <Pocket>  (232) 
nan

>  <ATP_Site>  (232) 
nan

>  <Peripheral>  (232) 
nan

>  <Num_H_Atoms_ProtBoundConf>  (232) 
nan

>  <Num_Resolved_Atoms>  (232) 
nan

>  <Num_Not_Resolved_Atoms>  (232) 
nan

$$$$
CHEMBL4867079
     RDKit          3D

  0  0  0  0  0  0  0  0  0  0999 V3000
M  V30 BEGIN CTAB
M  V30 COUNTS 46 49 0 0 0
M  V30 BEGIN ATOM
M  V30 1 O 3.019365 1.279441 -0.506185 0
M  V30 2 C 3.195597 0.054262 -0.769069 0
M  V30 3 N 3.848715 -0.368014 -1.963815 0
M  V30 4 C 4.344106 0.547725 -2.936203 0
M  V30 5 C 3.563531 0.985406 -3.986910 0
M  V30 6 C 4.025731 1.875395 -4.943045 0
M  V30 7 C 5.331080 2.358609 -4.854882 0
M  V30 8 C 6.101997 1.907116 -3.790768 0
M  V30 9 Cl 7.737407 2.481342 -3.637480 0
M  V30 10 C 5.639497 1.019362 -2.837874 0
M  V30 11 N 2.762500 -0.990072 0.094099 0
M  V30 12 C 2.103008 -0.567644 1.300676 0
M  V30 13 N 2.559478 -0.306498 2.422310 0
M  V30 14 C 1.716264 0.070733 3.389216 0
M  V30 15 C 0.369350 0.175101 3.172394 0
M  V30 16 C -0.617171 0.580034 4.170150 0
M  V30 17 C -1.177511 -0.573055 4.943456 0
M  V30 18 N -1.846659 -1.559260 4.133212 0
M  V30 19 C -3.008470 -1.189417 3.392830 0
M  V30 20 N -3.478258 0.061888 3.456573 0
M  V30 21 C -4.572083 0.392124 2.759879 0
M  V30 22 N -5.272309 -0.445571 1.970663 0
M  V30 23 C -4.836974 -1.729127 1.871017 0
M  V30 24 C -5.517917 -2.622927 1.077588 0
M  V30 25 C -5.068980 -3.933638 0.979014 0
M  V30 26 F -5.786302 -4.758546 0.181373 0
M  V30 27 C -3.931509 -4.320451 1.689304 0
M  V30 28 C -3.300451 -3.370676 2.464342 0
M  V30 29 C -3.709652 -2.064718 2.590602 0
M  V30 30 S 0.228884 -0.280653 1.500334 0
M  V30 31 H 4.000662 -1.382162 -2.192761 0
M  V30 32 H 2.551548 0.646187 -4.103880 0
M  V30 33 H 3.388708 2.207159 -5.765598 0
M  V30 34 H 5.740167 3.058532 -5.580559 0
M  V30 35 H 6.294178 0.701654 -2.024452 0
M  V30 36 H 2.859053 -2.030123 -0.030172 0
M  V30 37 H 2.208209 0.282595 4.352163 0
M  V30 38 H -1.415111 1.166950 3.682504 0
M  V30 39 H -0.121797 1.265857 4.888168 0
M  V30 40 H -0.380372 -1.064282 5.520884 0
M  V30 41 H -1.906788 -0.169975 5.683625 0
M  V30 42 H -1.442495 -2.516690 4.124861 0
M  V30 43 H -4.886276 1.439817 2.871475 0
M  V30 44 H -6.385700 -2.252819 0.560255 0
M  V30 45 H -3.603746 -5.344516 1.595366 0
M  V30 46 H -2.434203 -3.762925 2.973221 0
M  V30 END ATOM
M  V30 BEGIN BOND
M  V30 1 2 1 2
M  V30 2 1 2 3
M  V30 3 1 3 4
M  V30 4 2 4 5
M  V30 5 1 5 6
M  V30 6 2 6 7
M  V30 7 1 7 8
M  V30 8 1 8 9
M  V30 9 2 8 10
M  V30 10 1 2 11
M  V30 11 1 11 12
M  V30 12 2 12 13
M  V30 13 1 13 14
M  V30 14 2 14 15
M  V30 15 1 15 16
M  V30 16 1 16 17
M  V30 17 1 17 18
M  V30 18 1 18 19
M  V30 19 2 19 20
M  V30 20 1 20 21
M  V30 21 2 21 22
M  V30 22 1 22 23
M  V30 23 2 23 24
M  V30 24 1 24 25
M  V30 25 1 25 26
M  V30 26 2 25 27
M  V30 27 1 27 28
M  V30 28 2 28 29
M  V30 29 1 15 30
M  V30 30 1 10 4
M  V30 31 1 30 12
M  V30 32 1 29 19
M  V30 33 1 29 23
M  V30 34 1 3 31
M  V30 35 1 5 32
M  V30 36 1 6 33
M  V30 37 1 7 34
M  V30 38 1 10 35
M  V30 39 1 11 36
M  V30 40 1 14 37
M  V30 41 1 16 38
M  V30 42 1 16 39
M  V30 43 1 17 40
M  V30 44 1 17 41
M  V30 45 1 18 42
M  V30 46 1 21 43
M  V30 47 1 24 44
M  V30 48 1 27 45
M  V30 49 1 28 46
M  V30 END BOND
M  V30 END CTAB
M  END
>  <Dataset>  (233) 
ChEMBL_Kinases

>  <Ligand_Instance>  (233) 
nan

>  <PDB_ID>  (233) 
nan

>  <Standardized_SMILES>  (233) 
O=C(Nc1cccc(Cl)c1)Nc1ncc(CCNc2ncnc3cc(F)ccc23)s1

>  <Name>  (233) 
nan

>  <Pocket>  (233) 
nan

>  <ATP_Site>  (233) 
nan

>  <Peripheral>  (233) 
nan

>  <Num_H_Atoms_ProtBoundConf>  (233) 
nan

>  <Num_Resolved_Atoms>  (233) 
nan

>  <Num_Not_Resolved_Atoms>  (233) 
nan

$$$$
CHEMBL370177
     RDKit          3D

  0  0  0  0  0  0  0  0  0  0999 V3000
M  V30 BEGIN CTAB
M  V30 COUNTS 53 58 0 0 0
M  V30 BEGIN ATOM
M  V30 1 N -1.720276 0.272453 3.713645 0
M  V30 2 C -0.742334 -0.729516 4.142277 0
M  V30 3 C -0.730152 -1.763940 3.008720 0
M  V30 4 C 0.235065 -2.832310 3.330563 0
M  V30 5 C 1.455707 -2.911473 2.460639 0
M  V30 6 N 1.041419 -2.732816 1.094205 0
M  V30 7 C 0.132817 -1.838668 0.675849 0
M  V30 8 C -0.064590 -1.907057 -0.712434 0
M  V30 9 C -0.944669 -1.080682 -1.530427 0
M  V30 10 C -1.061624 0.250260 -1.544448 0
M  V30 11 C -0.253689 1.098158 -0.677279 0
M  V30 12 C 1.120895 0.914127 -0.524548 0
M  V30 13 N 1.514823 1.866174 0.357356 0
M  V30 14 C 0.471018 2.607823 0.745053 0
M  V30 15 C 0.344365 3.683032 1.617971 0
M  V30 16 C -0.858200 4.312059 1.879696 0
M  V30 17 C -1.944349 3.787208 1.200594 0
M  V30 18 C -1.890156 2.729215 0.324974 0
M  V30 19 C -0.661672 2.147162 0.108435 0
M  V30 20 C -2.058276 0.708738 -2.502734 0
M  V30 21 O -2.437344 1.853233 -2.793821 0
M  V30 22 N -2.600332 -0.441544 -3.130373 0
M  V30 23 C -1.906144 -1.549596 -2.523535 0
M  V30 24 O -2.170794 -2.735544 -2.877594 0
M  V30 25 C 0.796119 -2.916929 -1.119380 0
M  V30 26 C 1.014458 -3.404826 -2.397548 0
M  V30 27 C 1.936186 -4.431926 -2.608800 0
M  V30 28 C 2.572744 -4.885737 -1.473786 0
M  V30 29 C 2.398842 -4.442105 -0.175364 0
M  V30 30 C 1.465893 -3.413263 -0.012192 0
M  V30 31 C -0.453114 -1.017614 1.733204 0
M  V30 32 H -1.223136 1.051381 3.189103 0
M  V30 33 H -2.280219 0.636429 4.508465 0
M  V30 34 H -1.015456 -1.211543 5.082727 0
M  V30 35 H 0.253390 -0.269832 4.240023 0
M  V30 36 H -1.754888 -2.189401 3.023710 0
M  V30 37 H 0.604692 -2.709787 4.383638 0
M  V30 38 H -0.241079 -3.842156 3.292298 0
M  V30 39 H 1.913994 -3.902663 2.641816 0
M  V30 40 H 2.160216 -2.092817 2.711946 0
M  V30 41 H 1.725898 0.162608 -1.016209 0
M  V30 42 H 2.515355 1.957092 0.656974 0
M  V30 43 H 1.216064 4.064158 2.130754 0
M  V30 44 H -1.008537 5.143116 2.544036 0
M  V30 45 H -2.917068 4.265620 1.385843 0
M  V30 46 H -2.786012 2.381568 -0.159428 0
M  V30 47 H -3.342254 -0.478431 -3.874705 0
M  V30 48 H 0.513577 -3.044322 -3.287873 0
M  V30 49 H 2.176279 -4.878073 -3.569032 0
M  V30 50 H 3.299730 -5.690122 -1.617412 0
M  V30 51 H 2.939591 -4.857664 0.645936 0
M  V30 52 H 0.246758 -0.181912 1.953908 0
M  V30 53 H -1.413461 -0.521329 1.412167 0
M  V30 END ATOM
M  V30 BEGIN BOND
M  V30 1 1 1 2
M  V30 2 1 2 3
M  V30 3 1 3 4
M  V30 4 1 4 5
M  V30 5 1 5 6
M  V30 6 1 6 7
M  V30 7 2 7 8
M  V30 8 1 8 9
M  V30 9 2 9 10
M  V30 10 1 10 11
M  V30 11 2 11 12
M  V30 12 1 12 13
M  V30 13 1 13 14
M  V30 14 2 14 15
M  V30 15 1 15 16
M  V30 16 2 16 17
M  V30 17 1 17 18
M  V30 18 2 18 19
M  V30 19 1 10 20
M  V30 20 2 20 21
M  V30 21 1 20 22
M  V30 22 1 22 23
M  V30 23 2 23 24
M  V30 24 1 8 25
M  V30 25 2 25 26
M  V30 26 1 26 27
M  V30 27 2 27 28
M  V30 28 1 28 29
M  V30 29 2 29 30
M  V30 30 1 7 31
M  V30 31 1 31 3
M  V30 32 1 30 6
M  V30 33 1 23 9
M  V30 34 1 30 25
M  V30 35 1 19 11
M  V30 36 1 19 14
M  V30 37 1 1 32
M  V30 38 1 1 33
M  V30 39 1 2 34
M  V30 40 1 2 35
M  V30 41 1 3 36
M  V30 42 1 4 37
M  V30 43 1 4 38
M  V30 44 1 5 39
M  V30 45 1 5 40
M  V30 46 1 12 41
M  V30 47 1 13 42
M  V30 48 1 15 43
M  V30 49 1 16 44
M  V30 50 1 17 45
M  V30 51 1 18 46
M  V30 52 1 22 47
M  V30 53 1 26 48
M  V30 54 1 27 49
M  V30 55 1 28 50
M  V30 56 1 29 51
M  V30 57 1 31 52
M  V30 58 1 31 53
M  V30 END BOND
M  V30 END CTAB
M  END
>  <Dataset>  (234) 
ChEMBL_Kinases

>  <Ligand_Instance>  (234) 
nan

>  <PDB_ID>  (234) 
nan

>  <Standardized_SMILES>  (234) 
NCC1CCn2c(c(C3=C(c4c[nH]c5ccccc45)C(=O)NC3=O)c3ccccc32)C1

>  <Name>  (234) 
nan

>  <Pocket>  (234) 
nan

>  <ATP_Site>  (234) 
nan

>  <Peripheral>  (234) 
nan

>  <Num_H_Atoms_ProtBoundConf>  (234) 
nan

>  <Num_Resolved_Atoms>  (234) 
nan

>  <Num_Not_Resolved_Atoms>  (234) 
nan

$$$$
CHEMBL4867103
     RDKit          3D

  0  0  0  0  0  0  0  0  0  0999 V3000
M  V30 BEGIN CTAB
M  V30 COUNTS 41 42 0 0 0
M  V30 BEGIN ATOM
M  V30 1 C 1.066923 -2.720955 4.633597 0
M  V30 2 C -0.210592 -2.252781 3.966014 0
M  V30 3 N -0.505174 -3.167492 2.910347 0
M  V30 4 C -0.063665 -0.829308 3.510887 0
M  V30 5 C -1.310070 -0.314555 2.838027 0
M  V30 6 N -1.623115 -1.121453 1.675747 0
M  V30 7 C -0.779772 -1.285682 0.544323 0
M  V30 8 N 0.413403 -0.667900 0.488244 0
M  V30 9 C 1.276932 -0.769594 -0.550278 0
M  V30 10 N 2.500957 -0.046639 -0.443559 0
M  V30 11 C 2.472884 1.309240 -0.947680 0
M  V30 12 C 1.291762 1.803631 -1.479455 0
M  V30 13 C 1.203611 3.109205 -1.981437 0
M  V30 14 C 2.374911 3.833616 -1.896587 0
M  V30 15 C 2.335816 5.180681 -2.397929 0
M  V30 16 N 2.293544 6.287991 -2.791988 0
M  V30 17 N 3.528703 3.364654 -1.382275 0
M  V30 18 C 3.610439 2.092065 -0.894267 0
M  V30 19 N 0.912447 -1.550478 -1.609926 0
M  V30 20 C -0.279345 -2.196625 -1.607004 0
M  V30 21 C -1.166567 -2.085674 -0.528489 0
M  V30 22 C -2.469245 -2.780225 -0.505483 0
M  V30 23 F -2.574735 -3.491354 -1.691968 0
M  V30 24 F -2.484467 -3.663163 0.560912 0
M  V30 25 F -3.553728 -1.927870 -0.483929 0
M  V30 26 H 1.017057 -3.839070 4.702633 0
M  V30 27 H 1.941444 -2.511331 3.998030 0
M  V30 28 H 1.179053 -2.339526 5.669540 0
M  V30 29 H -0.988506 -2.283073 4.766978 0
M  V30 30 H 0.290871 -3.500023 2.371187 0
M  V30 31 H -1.223687 -3.877589 3.139294 0
M  V30 32 H 0.790589 -0.731864 2.821360 0
M  V30 33 H 0.082001 -0.173110 4.416792 0
M  V30 34 H -2.170107 -0.250499 3.528136 0
M  V30 35 H -1.117649 0.724135 2.439954 0
M  V30 36 H -2.551129 -1.624805 1.674329 0
M  V30 37 H 3.389770 -0.405327 -0.043085 0
M  V30 38 H 0.383493 1.208328 -1.532850 0
M  V30 39 H 0.287857 3.506613 -2.398754 0
M  V30 40 H 4.528877 1.701703 -0.478646 0
M  V30 41 H -0.548954 -2.809949 -2.455657 0
M  V30 END ATOM
M  V30 BEGIN BOND
M  V30 1 1 1 2
M  V30 2 1 2 3
M  V30 3 1 2 4
M  V30 4 1 4 5
M  V30 5 1 5 6
M  V30 6 1 6 7
M  V30 7 2 7 8
M  V30 8 1 8 9
M  V30 9 1 9 10
M  V30 10 1 10 11
M  V30 11 2 11 12
M  V30 12 1 12 13
M  V30 13 2 13 14
M  V30 14 1 14 15
M  V30 15 3 15 16
M  V30 16 1 14 17
M  V30 17 2 17 18
M  V30 18 2 9 19
M  V30 19 1 19 20
M  V30 20 2 20 21
M  V30 21 1 21 22
M  V30 22 1 22 23
M  V30 23 1 22 24
M  V30 24 1 22 25
M  V30 25 1 21 7
M  V30 26 1 18 11
M  V30 27 1 1 26
M  V30 28 1 1 27
M  V30 29 1 1 28
M  V30 30 1 2 29
M  V30 31 1 3 30
M  V30 32 1 3 31
M  V30 33 1 4 32
M  V30 34 1 4 33
M  V30 35 1 5 34
M  V30 36 1 5 35
M  V30 37 1 6 36
M  V30 38 1 10 37
M  V30 39 1 12 38
M  V30 40 1 13 39
M  V30 41 1 18 40
M  V30 42 1 20 41
M  V30 END BOND
M  V30 END CTAB
M  END
>  <Dataset>  (235) 
ChEMBL_Kinases

>  <Ligand_Instance>  (235) 
nan

>  <PDB_ID>  (235) 
nan

>  <Standardized_SMILES>  (235) 
CC(N)CCNc1nc(Nc2ccc(C#N)nc2)ncc1C(F)(F)F

>  <Name>  (235) 
nan

>  <Pocket>  (235) 
nan

>  <ATP_Site>  (235) 
nan

>  <Peripheral>  (235) 
nan

>  <Num_H_Atoms_ProtBoundConf>  (235) 
nan

>  <Num_Resolved_Atoms>  (235) 
nan

>  <Num_Not_Resolved_Atoms>  (235) 
nan

$$$$
CHEMBL3979907
     RDKit          3D

  0  0  0  0  0  0  0  0  0  0999 V3000
M  V30 BEGIN CTAB
M  V30 COUNTS 131 134 0 0 0
M  V30 BEGIN ATOM
M  V30 1 C 7.011434 0.617471 5.821363 0
M  V30 2 C 6.840020 0.675517 4.354247 0
M  V30 3 O 7.664857 1.374915 3.683719 0
M  V30 4 N 5.800429 -0.012435 3.674463 0
M  V30 5 C 4.805537 -0.848906 4.335648 0
M  V30 6 C 4.314080 -1.793034 3.272279 0
M  V30 7 C 4.531601 -1.060794 1.972947 0
M  V30 8 C 5.547362 0.003316 2.255229 0 CFG=1
M  V30 9 C 5.047438 1.349879 1.819269 0
M  V30 10 O 4.952597 2.098502 2.845402 0
M  V30 11 N 4.740989 1.695953 0.497884 0
M  V30 12 C 4.239314 3.080647 0.266165 0 CFG=1
M  V30 13 C 5.214804 3.642656 -0.746576 0
M  V30 14 C 4.923941 5.050303 -1.160333 0
M  V30 15 C 4.947234 6.017162 -0.017732 0
M  V30 16 C 5.810743 5.475457 -2.311699 0
M  V30 17 C 2.908554 2.885258 -0.300260 0
M  V30 18 O 3.080449 1.679526 -0.384149 0
M  V30 19 N 1.681664 3.319300 -0.744519 0
M  V30 20 C 0.403785 3.174990 -1.305509 0 CFG=1
M  V30 21 C -0.274251 1.822490 -1.036029 0
M  V30 22 C 0.412719 0.689761 -1.669485 0
M  V30 23 C 1.476956 0.490410 -2.553928 0
M  V30 24 N 1.559195 -0.816044 -2.785488 0
M  V30 25 C 0.590085 -1.456906 -2.083998 0
M  V30 26 N -0.127304 -0.521342 -1.387801 0
M  V30 27 C -1.201128 -1.133752 -0.630579 0
M  V30 28 C -0.805155 -1.472253 0.775057 0
M  V30 29 C -1.927976 -2.159265 1.518500 0
M  V30 30 C -2.317588 -3.474327 0.860737 0
M  V30 31 C -1.167709 -4.414982 0.849254 0
M  V30 32 C -1.476086 -5.767262 0.182762 0
M  V30 33 O -0.355058 -6.589787 0.230184 0
M  V30 34 N -0.012304 -7.633129 -0.553949 0
M  V30 35 C 1.216721 -7.660062 -0.990782 0
M  V30 36 C 2.088776 -8.496323 -1.822153 0
M  V30 37 C 3.403451 -8.221543 -2.089755 0
M  V30 38 C 4.143704 -9.077379 -2.856121 0
M  V30 39 C 3.569388 -10.246265 -3.378917 0
M  V30 40 C 2.245744 -10.484277 -3.088252 0
M  V30 41 C 1.461778 -9.617333 -2.301461 0
M  V30 42 C 0.100704 -10.098127 -2.195030 0
M  V30 43 C -1.083249 -9.523197 -2.492974 0
M  V30 44 C -2.312912 -10.083797 -2.316689 0
M  V30 45 C -2.418430 -11.350092 -1.790531 0
M  V30 46 F -3.605244 -11.960183 -1.593453 0
M  V30 47 C -1.219777 -12.002750 -1.459449 0
M  V30 48 C -0.006589 -11.388728 -1.659028 0
M  V30 49 C -0.461770 4.320444 -1.097521 0
M  V30 50 O -0.187789 5.369556 -0.424757 0
M  V30 51 N -1.683729 4.155494 -1.734032 0
M  V30 52 C -2.609277 5.287531 -1.543502 0 CFG=1
M  V30 53 C -2.872755 5.816426 -2.961127 0
M  V30 54 O -3.739831 6.897561 -2.920799 0
M  V30 55 C -3.872487 4.660049 -1.071479 0
M  V30 56 O -3.485721 3.460252 -1.126087 0
M  V30 57 N -5.174903 5.031543 -0.649864 0
M  V30 58 C -6.089748 4.001273 -0.275595 0 CFG=2
M  V30 59 C -7.307747 4.110542 -1.124425 0
M  V30 60 N -8.535591 4.099296 -1.871268 0
M  V30 61 O -6.594345 5.057276 -1.533925 0
M  V30 62 C -6.546241 4.104745 1.174519 0 CFG=1
M  V30 63 C -7.279223 5.385455 1.462513 0
M  V30 64 O -7.437071 3.038689 1.438607 0
M  V30 65 P -6.804516 2.042329 2.623784 0
M  V30 66 O -7.264427 2.373460 4.015097 0
M  V30 67 O -7.280856 0.439598 2.302021 0
M  V30 68 O -5.108146 2.100170 2.556022 0
M  V30 69 H 6.066988 0.344753 6.336311 0
M  V30 70 H 7.767045 -0.128289 6.128540 0
M  V30 71 H 7.362814 1.633103 6.149241 0
M  V30 72 H 5.240786 -1.442308 5.160142 0
M  V30 73 H 3.967489 -0.256912 4.759696 0
M  V30 74 H 3.228799 -2.049707 3.415020 0
M  V30 75 H 4.886510 -2.736097 3.242766 0
M  V30 76 H 4.818740 -1.745135 1.160022 0
M  V30 77 H 3.541353 -0.641325 1.681760 0
M  V30 78 H 6.480255 -0.283128 1.735514 0
M  V30 79 H 4.875254 0.980722 -0.250454 0
M  V30 80 H 4.249310 3.583617 1.229448 0
M  V30 81 H 5.322017 2.942109 -1.572075 0
M  V30 82 H 6.218954 3.670002 -0.224678 0
M  V30 83 H 3.880868 5.049806 -1.586046 0
M  V30 84 H 5.684845 5.742050 0.767078 0
M  V30 85 H 3.924683 6.178661 0.352901 0
M  V30 86 H 5.298589 7.000409 -0.440193 0
M  V30 87 H 6.815723 5.808477 -1.992755 0
M  V30 88 H 5.974813 4.560605 -2.949123 0
M  V30 89 H 5.260289 6.240113 -2.902401 0
M  V30 90 H 1.860564 4.363835 -0.506933 0
M  V30 91 H 0.593335 3.049247 -2.439295 0
M  V30 92 H -1.326284 1.799620 -1.264315 0
M  V30 93 H -0.203785 1.669099 0.083688 0
M  V30 94 H 2.004659 1.371564 -2.873274 0
M  V30 95 H 0.605719 -2.524305 -2.231026 0
M  V30 96 H -1.991423 -0.327822 -0.536222 0
M  V30 97 H -1.702213 -1.964277 -1.170202 0
M  V30 98 H -0.675265 -0.481879 1.297646 0
M  V30 99 H 0.090201 -2.081895 0.810463 0
M  V30 100 H -2.815703 -1.508775 1.618006 0
M  V30 101 H -1.514831 -2.433764 2.522050 0
M  V30 102 H -2.790970 -3.274550 -0.100136 0
M  V30 103 H -3.134802 -3.901291 1.508274 0
M  V30 104 H -0.310096 -3.953880 0.285177 0
M  V30 105 H -0.787426 -4.586897 1.879803 0
M  V30 106 H -2.299439 -6.231144 0.756149 0
M  V30 107 H -1.871059 -5.572660 -0.832624 0
M  V30 108 H 1.791017 -6.788847 -0.628584 0
M  V30 109 H 3.823958 -7.307077 -1.675761 0
M  V30 110 H 5.165508 -8.769909 -3.003079 0
M  V30 111 H 4.204964 -10.880766 -3.973407 0
M  V30 112 H 1.898933 -11.415493 -3.542894 0
M  V30 113 H -1.015722 -8.529651 -2.921979 0
M  V30 114 H -3.222292 -9.574667 -2.574910 0
M  V30 115 H -1.340485 -12.990944 -1.049222 0
M  V30 116 H 0.847615 -12.005644 -1.360694 0
M  V30 117 H -1.981056 3.343390 -2.310140 0
M  V30 118 H -2.213828 6.059113 -0.893605 0
M  V30 119 H -1.913421 6.050367 -3.470359 0
M  V30 120 H -3.368615 5.023971 -3.555955 0
M  V30 121 H -4.414185 6.905872 -3.643884 0
M  V30 122 H -5.176761 6.076059 -0.710388 0
M  V30 123 H -5.596342 3.030283 -0.447341 0
M  V30 124 H -8.488572 3.412227 -2.674165 0
M  V30 125 H -9.198877 4.800591 -1.424647 0
M  V30 126 H -5.721217 3.987177 1.877250 0
M  V30 127 H -7.067722 5.714389 2.522615 0
M  V30 128 H -8.391278 5.246852 1.360431 0
M  V30 129 H -7.002498 6.229819 0.811704 0
M  V30 130 H -6.808964 0.069767 1.538359 0
M  V30 131 H -4.778448 2.035845 1.624032 0
M  V30 END ATOM
M  V30 BEGIN BOND
M  V30 1 1 1 2
M  V30 2 2 2 3
M  V30 3 1 2 4
M  V30 4 1 4 5
M  V30 5 1 5 6
M  V30 6 1 6 7
M  V30 7 1 7 8
M  V30 8 1 8 9
M  V30 9 2 9 10
M  V30 10 1 9 11
M  V30 11 1 11 12
M  V30 12 1 12 13
M  V30 13 1 13 14
M  V30 14 1 14 15
M  V30 15 1 14 16
M  V30 16 1 12 17
M  V30 17 2 17 18
M  V30 18 1 17 19
M  V30 19 1 19 20
M  V30 20 1 20 21
M  V30 21 1 21 22
M  V30 22 2 22 23
M  V30 23 1 23 24
M  V30 24 2 24 25
M  V30 25 1 25 26
M  V30 26 1 26 27
M  V30 27 1 27 28
M  V30 28 1 28 29
M  V30 29 1 29 30
M  V30 30 1 30 31
M  V30 31 1 31 32
M  V30 32 1 32 33
M  V30 33 1 33 34
M  V30 34 2 34 35
M  V30 35 1 35 36
M  V30 36 2 36 37
M  V30 37 1 37 38
M  V30 38 2 38 39
M  V30 39 1 39 40
M  V30 40 2 40 41
M  V30 41 1 41 42
M  V30 42 2 42 43
M  V30 43 1 43 44
M  V30 44 2 44 45
M  V30 45 1 45 46
M  V30 46 1 45 47
M  V30 47 2 47 48
M  V30 48 1 20 49
M  V30 49 2 49 50
M  V30 50 1 49 51
M  V30 51 1 51 52
M  V30 52 1 52 53
M  V30 53 1 53 54
M  V30 54 1 52 55
M  V30 55 2 55 56
M  V30 56 1 55 57
M  V30 57 1 57 58
M  V30 58 1 58 59
M  V30 59 1 59 60
M  V30 60 2 59 61
M  V30 61 1 58 62
M  V30 62 1 62 63
M  V30 63 1 62 64
M  V30 64 1 64 65
M  V30 65 2 65 66
M  V30 66 1 65 67
M  V30 67 1 65 68
M  V30 68 1 8 4
M  V30 69 1 26 22
M  V30 70 1 41 36
M  V30 71 1 48 42
M  V30 72 1 1 69
M  V30 73 1 1 70
M  V30 74 1 1 71
M  V30 75 1 5 72
M  V30 76 1 5 73
M  V30 77 1 6 74
M  V30 78 1 6 75
M  V30 79 1 7 76
M  V30 80 1 7 77
M  V30 81 1 8 78 CFG=3
M  V30 82 1 11 79
M  V30 83 1 12 80 CFG=1
M  V30 84 1 13 81
M  V30 85 1 13 82
M  V30 86 1 14 83
M  V30 87 1 15 84
M  V30 88 1 15 85
M  V30 89 1 15 86
M  V30 90 1 16 87
M  V30 91 1 16 88
M  V30 92 1 16 89
M  V30 93 1 19 90
M  V30 94 1 20 91 CFG=3
M  V30 95 1 21 92
M  V30 96 1 21 93
M  V30 97 1 23 94
M  V30 98 1 25 95
M  V30 99 1 27 96
M  V30 100 1 27 97
M  V30 101 1 28 98
M  V30 102 1 28 99
M  V30 103 1 29 100
M  V30 104 1 29 101
M  V30 105 1 30 102
M  V30 106 1 30 103
M  V30 107 1 31 104
M  V30 108 1 31 105
M  V30 109 1 32 106
M  V30 110 1 32 107
M  V30 111 1 35 108
M  V30 112 1 37 109
M  V30 113 1 38 110
M  V30 114 1 39 111
M  V30 115 1 40 112
M  V30 116 1 43 113
M  V30 117 1 44 114
M  V30 118 1 47 115
M  V30 119 1 48 116
M  V30 120 1 51 117
M  V30 121 1 52 118 CFG=1
M  V30 122 1 53 119
M  V30 123 1 53 120
M  V30 124 1 54 121
M  V30 125 1 57 122
M  V30 126 1 58 123 CFG=1
M  V30 127 1 60 124
M  V30 128 1 60 125
M  V30 129 1 62 126 CFG=1
M  V30 130 1 63 127
M  V30 131 1 63 128
M  V30 132 1 63 129
M  V30 133 1 67 130
M  V30 134 1 68 131
M  V30 END BOND
M  V30 END CTAB
M  END
>  <Dataset>  (236) 
ChEMBL_Kinases

>  <Ligand_Instance>  (236) 
nan

>  <PDB_ID>  (236) 
nan

>  <Standardized_SMILES>  (236) 
CC(=O)N1CCC[C@H]1C(=O)N[C@@H](CC(C)C)C(=O)N[C@@H](Cc1cncn1CCCCCCO/N=C/c1ccccc1-c1ccc(F)cc1)C(=O)N[C@@H](CO)C(=O)N[C@H](C(N)=O)[C@@H](C)OP(=O)(O)O

>  <Name>  (236) 
nan

>  <Pocket>  (236) 
nan

>  <ATP_Site>  (236) 
nan

>  <Peripheral>  (236) 
nan

>  <Num_H_Atoms_ProtBoundConf>  (236) 
nan

>  <Num_Resolved_Atoms>  (236) 
nan

>  <Num_Not_Resolved_Atoms>  (236) 
nan

$$$$
CHEMBL4867107
     RDKit          3D

  0  0  0  0  0  0  0  0  0  0999 V3000
M  V30 BEGIN CTAB
M  V30 COUNTS 58 62 0 0 0
M  V30 BEGIN ATOM
M  V30 1 C 2.263593 -0.858734 3.303552 0
M  V30 2 C 2.548464 0.434477 2.629277 0
M  V30 3 C 3.783995 1.022411 2.454055 0
M  V30 4 N 3.931957 2.195086 1.830271 0
M  V30 5 C 5.288624 2.618353 1.756175 0
M  V30 6 C 6.227007 1.920326 1.003453 0
M  V30 7 Cl 5.751449 0.488197 0.117520 0
M  V30 8 C 7.555467 2.324934 0.925873 0
M  V30 9 C 7.955111 3.455309 1.618273 0
M  V30 10 C 7.012728 4.147864 2.368329 0
M  V30 11 C 5.699874 3.739012 2.438408 0
M  V30 12 Cl 4.596009 4.688835 3.410757 0
M  V30 13 C 2.889053 2.883203 1.330654 0
M  V30 14 O 3.123385 3.984795 0.755627 0
M  V30 15 C 1.615274 2.332790 1.480943 0
M  V30 16 C 0.551242 3.064908 0.955953 0
M  V30 17 N -0.666531 2.515493 1.113359 0
M  V30 18 C -0.832518 1.321608 1.747007 0
M  V30 19 N -2.074123 0.664806 1.957917 0
M  V30 20 C -2.619522 -0.281041 1.046702 0
M  V30 21 C -3.828535 -0.912066 1.276739 0
M  V30 22 C -4.356483 -1.844254 0.378261 0
M  V30 23 C -3.682757 -2.167693 -0.777136 0
M  V30 24 N -4.184963 -3.109761 -1.711450 0
M  V30 25 C -5.449784 -3.805439 -1.697713 0
M  V30 26 C -5.265837 -5.295798 -1.511549 0
M  V30 27 N -4.025691 -5.743078 -2.128333 0
M  V30 28 C -2.924958 -5.791438 -1.220803 0
M  V30 29 C -3.740636 -4.943673 -3.300340 0
M  V30 30 C -3.456453 -3.544472 -2.882993 0
M  V30 31 C -2.476955 -1.554557 -1.031684 0
M  V30 32 C -1.981968 -0.637567 -0.123899 0
M  V30 33 N 0.212629 0.640505 2.242151 0
M  V30 34 C 1.462247 1.122992 2.124404 0
M  V30 35 H 3.255839 -1.290004 3.616560 0
M  V30 36 H 1.902633 -1.566731 2.503427 0
M  V30 37 H 1.566989 -0.757291 4.139014 0
M  V30 38 H 4.604011 0.432491 2.873210 0
M  V30 39 H 8.241183 1.754165 0.330994 0
M  V30 40 H 9.003205 3.778242 1.560661 0
M  V30 41 H 7.321181 5.032513 2.910311 0
M  V30 42 H 0.670966 4.010207 0.453997 0
M  V30 43 H -2.610951 0.885334 2.819224 0
M  V30 44 H -4.386814 -0.682845 2.174280 0
M  V30 45 H -5.303752 -2.289932 0.637044 0
M  V30 46 H -6.052990 -3.408790 -0.861559 0
M  V30 47 H -6.007613 -3.688915 -2.662383 0
M  V30 48 H -6.109056 -5.876150 -1.916395 0
M  V30 49 H -5.165020 -5.477955 -0.421974 0
M  V30 50 H -2.033478 -5.238709 -1.570634 0
M  V30 51 H -3.166300 -5.377227 -0.209084 0
M  V30 52 H -2.555452 -6.854210 -1.105446 0
M  V30 53 H -4.616820 -4.959186 -3.979143 0
M  V30 54 H -2.837055 -5.374124 -3.775814 0
M  V30 55 H -3.640385 -2.801534 -3.713253 0
M  V30 56 H -2.358166 -3.522392 -2.613966 0
M  V30 57 H -1.848131 -1.711740 -1.894116 0
M  V30 58 H -1.029808 -0.129402 -0.287449 0
M  V30 END ATOM
M  V30 BEGIN BOND
M  V30 1 1 1 2
M  V30 2 2 2 3
M  V30 3 1 3 4
M  V30 4 1 4 5
M  V30 5 2 5 6
M  V30 6 1 6 7
M  V30 7 1 6 8
M  V30 8 2 8 9
M  V30 9 1 9 10
M  V30 10 2 10 11
M  V30 11 1 11 12
M  V30 12 1 4 13
M  V30 13 2 13 14
M  V30 14 1 13 15
M  V30 15 2 15 16
M  V30 16 1 16 17
M  V30 17 2 17 18
M  V30 18 1 18 19
M  V30 19 1 19 20
M  V30 20 2 20 21
M  V30 21 1 21 22
M  V30 22 2 22 23
M  V30 23 1 23 24
M  V30 24 1 24 25
M  V30 25 1 25 26
M  V30 26 1 26 27
M  V30 27 1 27 28
M  V30 28 1 27 29
M  V30 29 1 29 30
M  V30 30 1 23 31
M  V30 31 2 31 32
M  V30 32 1 18 33
M  V30 33 2 33 34
M  V30 34 1 34 2
M  V30 35 1 11 5
M  V30 36 1 34 15
M  V30 37 1 32 20
M  V30 38 1 30 24
M  V30 39 1 1 35
M  V30 40 1 1 36
M  V30 41 1 1 37
M  V30 42 1 3 38
M  V30 43 1 8 39
M  V30 44 1 9 40
M  V30 45 1 10 41
M  V30 46 1 16 42
M  V30 47 1 19 43
M  V30 48 1 21 44
M  V30 49 1 22 45
M  V30 50 1 25 46
M  V30 51 1 25 47
M  V30 52 1 26 48
M  V30 53 1 26 49
M  V30 54 1 28 50
M  V30 55 1 28 51
M  V30 56 1 28 52
M  V30 57 1 29 53
M  V30 58 1 29 54
M  V30 59 1 30 55
M  V30 60 1 30 56
M  V30 61 1 31 57
M  V30 62 1 32 58
M  V30 END BOND
M  V30 END CTAB
M  END
>  <Dataset>  (237) 
ChEMBL_Kinases

>  <Ligand_Instance>  (237) 
nan

>  <PDB_ID>  (237) 
nan

>  <Standardized_SMILES>  (237) 
Cc1cn(-c2c(Cl)cccc2Cl)c(=O)c2cnc(Nc3ccc(N4CCN(C)CC4)cc3)nc12

>  <Name>  (237) 
nan

>  <Pocket>  (237) 
nan

>  <ATP_Site>  (237) 
nan

>  <Peripheral>  (237) 
nan

>  <Num_H_Atoms_ProtBoundConf>  (237) 
nan

>  <Num_Resolved_Atoms>  (237) 
nan

>  <Num_Not_Resolved_Atoms>  (237) 
nan

$$$$
CHEMBL96487
     RDKit          3D

  0  0  0  0  0  0  0  0  0  0999 V3000
M  V30 BEGIN CTAB
M  V30 COUNTS 53 57 0 0 0
M  V30 BEGIN ATOM
M  V30 1 O 1.629713 -5.201518 0.372042 0
M  V30 2 C 1.633027 -3.942189 0.215407 0
M  V30 3 N 2.669598 -3.257881 -0.476276 0
M  V30 4 C 2.658536 -1.836926 -0.644543 0
M  V30 5 C 1.499488 -1.158741 -0.048224 0
M  V30 6 C 1.428731 0.214136 -0.175252 0
M  V30 7 C 2.498413 0.933508 -0.890780 0
M  V30 8 C 3.562236 1.361058 -0.128712 0
M  V30 9 C 4.642937 2.049838 -0.656524 0
M  V30 10 C 4.576674 2.279400 -2.014893 0
M  V30 11 C 3.540485 1.878327 -2.835858 0
M  V30 12 C 2.505943 1.202059 -2.244087 0
M  V30 13 Cl 1.120335 0.631091 -3.164316 0
M  V30 14 C 0.374201 0.930576 0.355050 0
M  V30 15 C -0.668562 0.340175 1.038887 0
M  V30 16 N -1.755324 1.055742 1.585875 0
M  V30 17 C -2.843687 0.495314 2.339572 0
M  V30 18 C -4.105020 0.568728 1.506709 0
M  V30 19 N -4.024533 1.553951 0.465845 0
M  V30 20 C -3.315700 2.738447 0.847977 0
M  V30 21 C -1.964077 2.470898 1.480453 0
M  V30 22 C -0.573088 -1.008126 1.148373 0
M  V30 23 C 0.462057 -1.762011 0.634043 0
M  V30 24 N 0.550775 -3.179933 0.756198 0
M  V30 25 C -0.478938 -3.858793 1.443215 0
M  V30 26 C -0.492094 -4.125512 2.815221 0
M  V30 27 Cl 0.893602 -3.562369 3.742371 0
M  V30 28 C -1.544369 -4.797918 3.404195 0
M  V30 29 C -2.624915 -5.231164 2.650059 0
M  V30 30 C -2.668093 -4.996055 1.286398 0
M  V30 31 C -1.593192 -4.320216 0.743020 0
M  V30 32 Cl -1.634220 -4.011442 -1.003680 0
M  V30 33 H 3.463066 -3.772945 -0.877951 0
M  V30 34 H 3.552177 -1.468683 -0.058808 0
M  V30 35 H 2.745504 -1.598378 -1.718303 0
M  V30 36 H 3.591601 1.167096 0.944986 0
M  V30 37 H 5.469351 2.379519 -0.052002 0
M  V30 38 H 5.388770 2.812143 -2.489008 0
M  V30 39 H 3.534769 2.083485 -3.901504 0
M  V30 40 H 0.402447 2.000357 0.207327 0
M  V30 41 H -2.667629 -0.561840 2.646733 0
M  V30 42 H -3.034833 1.084644 3.281001 0
M  V30 43 H -4.992429 0.682594 2.159247 0
M  V30 44 H -4.226735 -0.428021 1.010275 0
M  V30 45 H -3.648292 1.235705 -0.433273 0
M  V30 46 H -3.132658 3.340538 -0.065466 0
M  V30 47 H -3.948476 3.385950 1.511975 0
M  V30 48 H -1.943731 2.872726 2.535478 0
M  V30 49 H -1.156676 3.009116 0.962450 0
M  V30 50 H -1.295601 -1.627656 1.646812 0
M  V30 51 H -1.525750 -4.990532 4.474421 0
M  V30 52 H -3.467552 -5.763703 3.090528 0
M  V30 53 H -3.482199 -5.308552 0.644921 0
M  V30 END ATOM
M  V30 BEGIN BOND
M  V30 1 2 1 2
M  V30 2 1 2 3
M  V30 3 1 3 4
M  V30 4 1 4 5
M  V30 5 2 5 6
M  V30 6 1 6 7
M  V30 7 2 7 8
M  V30 8 1 8 9
M  V30 9 2 9 10
M  V30 10 1 10 11
M  V30 11 2 11 12
M  V30 12 1 12 13
M  V30 13 1 6 14
M  V30 14 2 14 15
M  V30 15 1 15 16
M  V30 16 1 16 17
M  V30 17 1 17 18
M  V30 18 1 18 19
M  V30 19 1 19 20
M  V30 20 1 20 21
M  V30 21 1 15 22
M  V30 22 2 22 23
M  V30 23 1 23 24
M  V30 24 1 24 25
M  V30 25 2 25 26
M  V30 26 1 26 27
M  V30 27 1 26 28
M  V30 28 2 28 29
M  V30 29 1 29 30
M  V30 30 2 30 31
M  V30 31 1 31 32
M  V30 32 1 24 2
M  V30 33 1 31 25
M  V30 34 1 23 5
M  V30 35 1 12 7
M  V30 36 1 21 16
M  V30 37 1 3 33
M  V30 38 1 4 34
M  V30 39 1 4 35
M  V30 40 1 8 36
M  V30 41 1 9 37
M  V30 42 1 10 38
M  V30 43 1 11 39
M  V30 44 1 14 40
M  V30 45 1 17 41
M  V30 46 1 17 42
M  V30 47 1 18 43
M  V30 48 1 18 44
M  V30 49 1 19 45
M  V30 50 1 20 46
M  V30 51 1 20 47
M  V30 52 1 21 48
M  V30 53 1 21 49
M  V30 54 1 22 50
M  V30 55 1 28 51
M  V30 56 1 29 52
M  V30 57 1 30 53
M  V30 END BOND
M  V30 END CTAB
M  END
>  <Dataset>  (238) 
ChEMBL_Kinases

>  <Ligand_Instance>  (238) 
nan

>  <PDB_ID>  (238) 
nan

>  <Standardized_SMILES>  (238) 
O=C1NCc2c(-c3ccccc3Cl)cc(N3CCNCC3)cc2N1c1c(Cl)cccc1Cl

>  <Name>  (238) 
nan

>  <Pocket>  (238) 
nan

>  <ATP_Site>  (238) 
nan

>  <Peripheral>  (238) 
nan

>  <Num_H_Atoms_ProtBoundConf>  (238) 
nan

>  <Num_Resolved_Atoms>  (238) 
nan

>  <Num_Not_Resolved_Atoms>  (238) 
nan

$$$$
CHEMBL3979896
     RDKit          3D

  0  0  0  0  0  0  0  0  0  0999 V3000
M  V30 BEGIN CTAB
M  V30 COUNTS 46 49 0 0 0
M  V30 BEGIN ATOM
M  V30 1 C -2.212748 -3.245304 1.664528 0
M  V30 2 N -1.273224 -4.090375 0.956017 0
M  V30 3 C -0.013836 -3.940576 0.333605 0
M  V30 4 O 0.405459 -5.021375 -0.149530 0
M  V30 5 C 0.338039 -2.536583 0.491526 0
M  V30 6 C 0.358500 -1.825718 -0.685179 0
M  V30 7 C 0.676086 -0.468769 -0.721573 0
M  V30 8 C 0.966437 0.107130 0.497521 0
M  V30 9 C 1.307333 1.534258 0.515331 0
M  V30 10 N 1.629727 2.300261 1.574618 0
M  V30 11 C 1.879186 3.568568 1.169466 0
M  V30 12 C 2.242518 4.741050 1.801392 0
M  V30 13 C 2.415589 5.880450 1.042904 0
M  V30 14 C 2.792084 7.149899 1.605187 0
M  V30 15 N 2.996384 7.328389 2.993708 0
M  V30 16 O 2.995136 8.248109 1.027918 0
M  V30 17 C 2.237374 5.886965 -0.324992 0
M  V30 18 C 1.869476 4.697389 -0.959109 0
M  V30 19 C 1.691371 3.544186 -0.214350 0
M  V30 20 N 1.340132 2.294978 -0.616764 0
M  V30 21 C 0.952623 -0.594066 1.709070 0
M  V30 22 C 0.630570 -1.943605 1.694775 0
M  V30 23 C -1.766331 -5.419153 0.877236 0
M  V30 24 C -2.523184 -5.566190 -0.290468 0
M  V30 25 C -3.128618 -6.783353 -0.615034 0
M  V30 26 C -2.963294 -7.841624 0.244538 0
M  V30 27 Cl -3.694905 -9.387574 -0.106295 0
M  V30 28 C -2.208939 -7.696807 1.409635 0
M  V30 29 C -1.618743 -6.500291 1.719931 0
M  V30 30 H -1.881473 -2.199647 1.719729 0
M  V30 31 H -3.219267 -3.258640 1.210263 0
M  V30 32 H -2.280623 -3.655882 2.708065 0
M  V30 33 H 0.129353 -2.270332 -1.663065 0
M  V30 34 H 0.685088 0.060918 -1.645872 0
M  V30 35 H 2.386440 4.758179 2.858690 0
M  V30 36 H 3.169514 7.453082 3.992523 0
M  V30 37 H 4.032429 7.212042 3.205811 0
M  V30 38 H 2.387294 6.816343 -0.883905 0
M  V30 39 H 1.728481 4.705662 -2.043487 0
M  V30 40 H 1.149604 2.039704 -1.594734 0
M  V30 41 H 1.186652 -0.103346 2.643643 0
M  V30 42 H 0.601473 -2.542683 2.593143 0
M  V30 43 H -2.728851 -4.801011 -1.052749 0
M  V30 44 H -3.719951 -6.934505 -1.508583 0
M  V30 45 H -2.043212 -8.500141 2.126967 0
M  V30 46 H -1.014859 -6.246482 2.575850 0
M  V30 END ATOM
M  V30 BEGIN BOND
M  V30 1 1 1 2
M  V30 2 1 2 3
M  V30 3 2 3 4
M  V30 4 1 3 5
M  V30 5 2 5 6
M  V30 6 1 6 7
M  V30 7 2 7 8
M  V30 8 1 8 9
M  V30 9 2 9 10
M  V30 10 1 10 11
M  V30 11 2 11 12
M  V30 12 1 12 13
M  V30 13 1 13 14
M  V30 14 1 14 15
M  V30 15 2 14 16
M  V30 16 2 13 17
M  V30 17 1 17 18
M  V30 18 2 18 19
M  V30 19 1 19 20
M  V30 20 1 8 21
M  V30 21 2 21 22
M  V30 22 1 2 23
M  V30 23 2 23 24
M  V30 24 1 24 25
M  V30 25 2 25 26
M  V30 26 1 26 27
M  V30 27 1 26 28
M  V30 28 2 28 29
M  V30 29 1 22 5
M  V30 30 1 29 23
M  V30 31 1 20 9
M  V30 32 1 19 11
M  V30 33 1 1 30
M  V30 34 1 1 31
M  V30 35 1 1 32
M  V30 36 1 6 33
M  V30 37 1 7 34
M  V30 38 1 12 35
M  V30 39 1 15 36
M  V30 40 1 15 37
M  V30 41 1 17 38
M  V30 42 1 18 39
M  V30 43 1 20 40
M  V30 44 1 21 41
M  V30 45 1 22 42
M  V30 46 1 24 43
M  V30 47 1 25 44
M  V30 48 1 28 45
M  V30 49 1 29 46
M  V30 END BOND
M  V30 END CTAB
M  END
>  <Dataset>  (239) 
ChEMBL_Kinases

>  <Ligand_Instance>  (239) 
nan

>  <PDB_ID>  (239) 
nan

>  <Standardized_SMILES>  (239) 
CN(C(=O)c1ccc(-c2nc3cc(C(N)=O)ccc3[nH]2)cc1)c1ccc(Cl)cc1

>  <Name>  (239) 
nan

>  <Pocket>  (239) 
nan

>  <ATP_Site>  (239) 
nan

>  <Peripheral>  (239) 
nan

>  <Num_H_Atoms_ProtBoundConf>  (239) 
nan

>  <Num_Resolved_Atoms>  (239) 
nan

>  <Num_Not_Resolved_Atoms>  (239) 
nan

$$$$
CHEMBL397986
     RDKit          3D

  0  0  0  0  0  0  0  0  0  0999 V3000
M  V30 BEGIN CTAB
M  V30 COUNTS 48 51 0 0 0
M  V30 BEGIN ATOM
M  V30 1 C 1.331753 -5.014200 -0.912259 0
M  V30 2 C 2.654244 -4.291957 -0.977899 0
M  V30 3 C 3.181643 -3.915051 0.339066 0
M  V30 4 N 4.182576 -4.532625 0.993978 0
M  V30 5 C 4.401105 -3.921570 2.171739 0
M  V30 6 N 3.531789 -2.902934 2.272192 0
M  V30 7 C 2.752408 -2.860544 1.153990 0
M  V30 8 C 1.672512 -1.891965 0.864838 0
M  V30 9 N 2.060171 -0.876594 -0.096198 0
M  V30 10 C 1.224875 0.204684 -0.566536 0
M  V30 11 C 1.739136 1.103813 -1.493397 0
M  V30 12 C 0.940426 2.136121 -1.939242 0
M  V30 13 Cl 1.677934 3.202205 -3.094594 0
M  V30 14 C -0.360951 2.266369 -1.461051 0
M  V30 15 N -1.084256 3.291238 -1.934352 0
M  V30 16 C -2.360338 3.453098 -1.491606 0
M  V30 17 C -2.854289 2.539415 -0.562449 0
M  V30 18 C -4.220604 2.784483 -0.144413 0
M  V30 19 N -5.321793 2.961923 0.188877 0
M  V30 20 C -2.103396 1.484440 -0.078193 0
M  V30 21 N -2.729867 0.616991 0.875399 0
M  V30 22 C -2.666955 0.805148 2.260093 0
M  V30 23 C -3.321674 -0.142053 3.053558 0
M  V30 24 C -3.277704 0.016562 4.417799 0
M  V30 25 C -2.610019 1.076143 5.001391 0
M  V30 26 F -2.659151 1.090471 6.352898 0
M  V30 27 C -1.981230 1.981725 4.177574 0
M  V30 28 Cl -1.153338 3.301504 5.007024 0
M  V30 29 C -2.003264 1.855848 2.805101 0
M  V30 30 C -0.814856 1.356165 -0.552556 0
M  V30 31 C -0.065144 0.298108 -0.064943 0
M  V30 32 H 0.854235 -4.937866 -1.908426 0
M  V30 33 H 1.525022 -6.100695 -0.752750 0
M  V30 34 H 0.686185 -4.690597 -0.077678 0
M  V30 35 H 2.560470 -3.423618 -1.678490 0
M  V30 36 H 3.371702 -4.970630 -1.484364 0
M  V30 37 H 4.762232 -5.356805 0.725859 0
M  V30 38 H 5.077630 -4.049281 3.016035 0
M  V30 39 H 1.440876 -1.355014 1.814531 0
M  V30 40 H 0.715276 -2.359017 0.565255 0
M  V30 41 H 3.039359 -0.959112 -0.466525 0
M  V30 42 H 2.769304 0.940693 -1.825815 0
M  V30 43 H -2.960810 4.282503 -1.867601 0
M  V30 44 H -3.233993 -0.165857 0.406193 0
M  V30 45 H -3.854792 -0.987754 2.603931 0
M  V30 46 H -3.806122 -0.752043 5.004707 0
M  V30 47 H -1.481835 2.613567 2.212970 0
M  V30 48 H -0.482455 -0.372645 0.641061 0
M  V30 END ATOM
M  V30 BEGIN BOND
M  V30 1 1 1 2
M  V30 2 1 2 3
M  V30 3 1 3 4
M  V30 4 1 4 5
M  V30 5 2 5 6
M  V30 6 1 6 7
M  V30 7 1 7 8
M  V30 8 1 8 9
M  V30 9 1 9 10
M  V30 10 2 10 11
M  V30 11 1 11 12
M  V30 12 1 12 13
M  V30 13 2 12 14
M  V30 14 1 14 15
M  V30 15 2 15 16
M  V30 16 1 16 17
M  V30 17 1 17 18
M  V30 18 3 18 19
M  V30 19 2 17 20
M  V30 20 1 20 21
M  V30 21 1 21 22
M  V30 22 2 22 23
M  V30 23 1 23 24
M  V30 24 2 24 25
M  V30 25 1 25 26
M  V30 26 1 25 27
M  V30 27 1 27 28
M  V30 28 2 27 29
M  V30 29 1 20 30
M  V30 30 2 30 31
M  V30 31 2 7 3
M  V30 32 1 31 10
M  V30 33 1 30 14
M  V30 34 1 29 22
M  V30 35 1 1 32
M  V30 36 1 1 33
M  V30 37 1 1 34
M  V30 38 1 2 35
M  V30 39 1 2 36
M  V30 40 1 4 37
M  V30 41 1 5 38
M  V30 42 1 8 39
M  V30 43 1 8 40
M  V30 44 1 9 41
M  V30 45 1 11 42
M  V30 46 1 16 43
M  V30 47 1 21 44
M  V30 48 1 23 45
M  V30 49 1 24 46
M  V30 50 1 29 47
M  V30 51 1 31 48
M  V30 END BOND
M  V30 END CTAB
M  END
>  <Dataset>  (240) 
ChEMBL_Kinases

>  <Ligand_Instance>  (240) 
nan

>  <PDB_ID>  (240) 
nan

>  <Standardized_SMILES>  (240) 
CCc1[nH]cnc1CNc1cc(Cl)c2ncc(C#N)c(Nc3ccc(F)c(Cl)c3)c2c1

>  <Name>  (240) 
nan

>  <Pocket>  (240) 
nan

>  <ATP_Site>  (240) 
nan

>  <Peripheral>  (240) 
nan

>  <Num_H_Atoms_ProtBoundConf>  (240) 
nan

>  <Num_Resolved_Atoms>  (240) 
nan

>  <Num_Not_Resolved_Atoms>  (240) 
nan

$$$$
CHEMBL3982788
     RDKit          3D

  0  0  0  0  0  0  0  0  0  0999 V3000
M  V30 BEGIN CTAB
M  V30 COUNTS 48 51 0 0 0
M  V30 BEGIN ATOM
M  V30 1 C 5.969861 -3.244366 1.820256 0
M  V30 2 N 4.801091 -2.420251 1.574661 0
M  V30 3 C 3.515906 -2.982801 1.200122 0
M  V30 4 C 4.952792 -1.012172 1.714309 0
M  V30 5 C 6.181710 -0.497493 2.070780 0
M  V30 6 C 6.385526 0.853697 2.219947 0
M  V30 7 C 5.334977 1.694499 2.006326 0
M  V30 8 C 4.078944 1.256066 1.648223 0
M  V30 9 O 2.987958 2.050051 1.420745 0
M  V30 10 C 1.722786 1.628077 1.061552 0
M  V30 11 C 0.830944 1.349355 2.079829 0
M  V30 12 C -0.462960 0.919480 1.826696 0
M  V30 13 C -0.863449 0.768040 0.500668 0
M  V30 14 C -2.222763 0.314984 0.136501 0
M  V30 15 N -3.169862 0.016874 1.073747 0
M  V30 16 C -4.300207 -0.364873 0.431342 0
M  V30 17 C -5.551262 -0.770748 0.849161 0
M  V30 18 C -6.474797 -1.089288 -0.126003 0
M  V30 19 C -7.793726 -1.516980 0.327859 0
M  V30 20 N -8.845244 -1.876436 -0.560410 0
M  V30 21 O -8.128426 -1.609343 1.537092 0
M  V30 22 C -6.273381 -1.043062 -1.490282 0
M  V30 23 C -4.996669 -0.628355 -1.882079 0
M  V30 24 C -4.043599 -0.300338 -0.923960 0
M  V30 25 N -2.764124 0.118648 -1.087306 0
M  V30 26 C 0.035083 1.049085 -0.509494 0
M  V30 27 C 1.344635 1.483990 -0.264743 0
M  V30 28 C 3.931784 -0.114743 1.512406 0
M  V30 29 H 6.457332 -3.014580 2.790600 0
M  V30 30 H 6.701517 -3.092662 1.002635 0
M  V30 31 H 5.725477 -4.324359 1.849590 0
M  V30 32 H 2.657920 -2.484428 1.672474 0
M  V30 33 H 3.395427 -3.027948 0.101987 0
M  V30 34 H 3.516551 -4.023084 1.615659 0
M  V30 35 H 7.063881 -1.124369 2.255791 0
M  V30 36 H 7.355438 1.246921 2.500362 0
M  V30 37 H 5.468116 2.771569 2.117595 0
M  V30 38 H 1.025809 1.429290 3.149066 0
M  V30 39 H -1.204353 0.686370 2.577659 0
M  V30 40 H -5.794815 -0.835495 1.898400 0
M  V30 41 H -9.071035 -2.872719 -0.818636 0
M  V30 42 H -9.363133 -1.041724 -0.923604 0
M  V30 43 H -7.049740 -1.308973 -2.183385 0
M  V30 44 H -4.766878 -0.568246 -2.938397 0
M  V30 45 H -2.255477 0.272908 -1.987157 0
M  V30 46 H -0.305064 0.922056 -1.527492 0
M  V30 47 H 2.039969 1.701297 -1.058602 0
M  V30 48 H 2.963554 -0.510637 1.232237 0
M  V30 END ATOM
M  V30 BEGIN BOND
M  V30 1 1 1 2
M  V30 2 1 2 3
M  V30 3 1 2 4
M  V30 4 2 4 5
M  V30 5 1 5 6
M  V30 6 2 6 7
M  V30 7 1 7 8
M  V30 8 1 8 9
M  V30 9 1 9 10
M  V30 10 2 10 11
M  V30 11 1 11 12
M  V30 12 2 12 13
M  V30 13 1 13 14
M  V30 14 2 14 15
M  V30 15 1 15 16
M  V30 16 2 16 17
M  V30 17 1 17 18
M  V30 18 1 18 19
M  V30 19 1 19 20
M  V30 20 2 19 21
M  V30 21 2 18 22
M  V30 22 1 22 23
M  V30 23 2 23 24
M  V30 24 1 24 25
M  V30 25 1 13 26
M  V30 26 2 26 27
M  V30 27 2 8 28
M  V30 28 1 28 4
M  V30 29 1 27 10
M  V30 30 1 25 14
M  V30 31 1 24 16
M  V30 32 1 1 29
M  V30 33 1 1 30
M  V30 34 1 1 31
M  V30 35 1 3 32
M  V30 36 1 3 33
M  V30 37 1 3 34
M  V30 38 1 5 35
M  V30 39 1 6 36
M  V30 40 1 7 37
M  V30 41 1 11 38
M  V30 42 1 12 39
M  V30 43 1 17 40
M  V30 44 1 20 41
M  V30 45 1 20 42
M  V30 46 1 22 43
M  V30 47 1 23 44
M  V30 48 1 25 45
M  V30 49 1 26 46
M  V30 50 1 27 47
M  V30 51 1 28 48
M  V30 END BOND
M  V30 END CTAB
M  END
>  <Dataset>  (241) 
ChEMBL_Kinases

>  <Ligand_Instance>  (241) 
nan

>  <PDB_ID>  (241) 
nan

>  <Standardized_SMILES>  (241) 
CN(C)c1cccc(Oc2ccc(-c3nc4cc(C(N)=O)ccc4[nH]3)cc2)c1

>  <Name>  (241) 
nan

>  <Pocket>  (241) 
nan

>  <ATP_Site>  (241) 
nan

>  <Peripheral>  (241) 
nan

>  <Num_H_Atoms_ProtBoundConf>  (241) 
nan

>  <Num_Resolved_Atoms>  (241) 
nan

>  <Num_Not_Resolved_Atoms>  (241) 
nan

$$$$
CHEMBL3979719
     RDKit          3D

  0  0  0  0  0  0  0  0  0  0999 V3000
M  V30 BEGIN CTAB
M  V30 COUNTS 39 43 0 0 0
M  V30 BEGIN ATOM
M  V30 1 O -1.188343 -4.435642 3.368789 0
M  V30 2 C -0.342473 -3.948223 2.554354 0
M  V30 3 N 0.678374 -4.843914 2.177998 0
M  V30 4 C 0.768865 -6.203620 2.667954 0
M  V30 5 C 2.226644 -6.691204 2.956050 0
M  V30 6 C 1.441803 -7.240601 1.828180 0
M  V30 7 C -0.434091 -2.576577 2.060334 0
M  V30 8 C 0.451898 -1.994686 1.178211 0
M  V30 9 C 0.297488 -0.696412 0.759834 0
M  V30 10 C -0.722971 0.091867 1.179691 0
M  V30 11 C -1.065713 1.391354 0.897769 0
M  V30 12 C -0.464419 2.396227 0.049784 0
M  V30 13 N -0.989871 3.634438 -0.074234 0
M  V30 14 C -0.289326 4.409524 -0.900472 0
M  V30 15 C -0.478174 5.723746 -1.300328 0
M  V30 16 C 0.462329 6.216137 -2.185499 0
M  V30 17 C 1.524427 5.479913 -2.656903 0
M  V30 18 C 1.675837 4.171747 -2.232300 0
M  V30 19 C 0.761559 3.652490 -1.355217 0
M  V30 20 N 0.596653 2.476789 -0.754737 0
M  V30 21 N -2.191678 1.574686 1.641613 0
M  V30 22 N -2.493209 0.482344 2.307373 0
M  V30 23 C -1.604888 -0.496890 2.061659 0
M  V30 24 C -1.481516 -1.796239 2.503047 0
M  V30 25 H 1.417555 -4.529840 1.512021 0
M  V30 26 H -0.004074 -6.567011 3.378616 0
M  V30 27 H 2.350054 -7.197356 3.915102 0
M  V30 28 H 3.028181 -5.947434 2.749448 0
M  V30 29 H 1.779537 -6.911805 0.807783 0
M  V30 30 H 1.133303 -8.292285 1.880410 0
M  V30 31 H 1.271365 -2.608438 0.833179 0
M  V30 32 H 1.029745 -0.316920 0.072233 0
M  V30 33 H -1.316524 6.280077 -0.918100 0
M  V30 34 H 0.324635 7.254386 -2.509752 0
M  V30 35 H 2.247968 5.889318 -3.350388 0
M  V30 36 H 2.487223 3.529516 -2.559811 0
M  V30 37 H 1.260037 1.705189 -0.921750 0
M  V30 38 H -3.333145 0.456182 2.928856 0
M  V30 39 H -2.228101 -2.161640 3.195314 0
M  V30 END ATOM
M  V30 BEGIN BOND
M  V30 1 2 1 2
M  V30 2 1 2 3
M  V30 3 1 3 4
M  V30 4 1 4 5
M  V30 5 1 5 6
M  V30 6 1 2 7
M  V30 7 2 7 8
M  V30 8 1 8 9
M  V30 9 2 9 10
M  V30 10 1 10 11
M  V30 11 1 11 12
M  V30 12 2 12 13
M  V30 13 1 13 14
M  V30 14 2 14 15
M  V30 15 1 15 16
M  V30 16 2 16 17
M  V30 17 1 17 18
M  V30 18 2 18 19
M  V30 19 1 19 20
M  V30 20 2 11 21
M  V30 21 1 21 22
M  V30 22 1 22 23
M  V30 23 2 23 24
M  V30 24 1 6 4
M  V30 25 1 24 7
M  V30 26 1 23 10
M  V30 27 1 20 12
M  V30 28 1 19 14
M  V30 29 1 3 25
M  V30 30 1 4 26
M  V30 31 1 5 27
M  V30 32 1 5 28
M  V30 33 1 6 29
M  V30 34 1 6 30
M  V30 35 1 8 31
M  V30 36 1 9 32
M  V30 37 1 15 33
M  V30 38 1 16 34
M  V30 39 1 17 35
M  V30 40 1 18 36
M  V30 41 1 20 37
M  V30 42 1 22 38
M  V30 43 1 24 39
M  V30 END BOND
M  V30 END CTAB
M  END
>  <Dataset>  (242) 
ChEMBL_Kinases

>  <Ligand_Instance>  (242) 
nan

>  <PDB_ID>  (242) 
nan

>  <Standardized_SMILES>  (242) 
O=C(NC1CC1)c1ccc2c(-c3nc4ccccc4[nH]3)n[nH]c2c1

>  <Name>  (242) 
nan

>  <Pocket>  (242) 
nan

>  <ATP_Site>  (242) 
nan

>  <Peripheral>  (242) 
nan

>  <Num_H_Atoms_ProtBoundConf>  (242) 
nan

>  <Num_Resolved_Atoms>  (242) 
nan

>  <Num_Not_Resolved_Atoms>  (242) 
nan

$$$$
CHEMBL4867144
     RDKit          3D

  0  0  0  0  0  0  0  0  0  0999 V3000
M  V30 BEGIN CTAB
M  V30 COUNTS 48 50 0 0 0
M  V30 BEGIN ATOM
M  V30 1 C 1.051769 -2.739491 -0.776828 0
M  V30 2 O 1.864878 -1.606635 -0.834358 0
M  V30 3 C 2.702651 -1.645127 -1.944632 0
M  V30 4 C 3.578451 -0.430547 -1.986158 0 CFG=1
M  V30 5 C 4.459214 -0.572134 -3.242716 0
M  V30 6 N 2.863622 0.819509 -2.056363 0
M  V30 7 C 2.726382 1.596260 -3.144645 0
M  V30 8 N 1.994572 2.652566 -2.752399 0
M  V30 9 N 1.715253 2.500374 -1.486731 0
M  V30 10 C 2.246168 1.345023 -0.991327 0
M  V30 11 C 2.027226 1.022982 0.402239 0
M  V30 12 C 2.920555 0.574621 1.336321 0
M  V30 13 C 2.712859 0.285321 2.666595 0
M  V30 14 C 1.392321 0.489481 3.092570 0
M  V30 15 C 0.479542 0.935200 2.188343 0
M  V30 16 N -0.872147 1.164066 2.646772 0
M  V30 17 C -1.613237 -0.029635 2.560005 0
M  V30 18 O -1.064742 -1.114819 2.120975 0
M  V30 19 C -2.780811 -0.913047 2.679012 0
M  V30 20 C -3.590253 0.215957 3.189752 0
M  V30 21 N -4.920752 0.018834 3.525601 0
M  V30 22 C -6.076002 0.695901 4.028415 0
M  V30 23 N -5.030233 -1.277919 3.238059 0
M  V30 24 C -3.868116 -1.734259 2.790214 0
M  V30 25 O -3.111671 -2.841551 2.297349 0
M  V30 26 C -3.731353 -4.080853 2.164310 0
M  V30 27 N 0.767767 1.191053 0.910471 0
M  V30 28 H 1.728758 -3.635515 -0.707730 0
M  V30 29 H 0.415196 -2.738465 0.121989 0
M  V30 30 H 0.440466 -2.877743 -1.671942 0
M  V30 31 H 3.327407 -2.559250 -1.811799 0
M  V30 32 H 2.149352 -1.810818 -2.890777 0
M  V30 33 H 4.305068 -0.483428 -1.148397 0
M  V30 34 H 3.767937 -0.811942 -4.073821 0
M  V30 35 H 5.009841 0.360936 -3.404227 0
M  V30 36 H 5.081500 -1.470726 -3.080935 0
M  V30 37 H 3.152933 1.352185 -4.123944 0
M  V30 38 H 3.935797 0.430224 0.987868 0
M  V30 39 H 3.521536 -0.064859 3.290413 0
M  V30 40 H 1.200364 0.265890 4.142466 0
M  V30 41 H -1.633341 1.756478 3.023419 0
M  V30 42 H -3.584061 1.337744 3.462450 0
M  V30 43 H -6.975817 0.140310 3.782747 0
M  V30 44 H -5.998190 0.791679 5.147692 0
M  V30 45 H -6.196778 1.707206 3.562374 0
M  V30 46 H -4.753133 -3.955446 1.707511 0
M  V30 47 H -3.795529 -4.672688 3.106504 0
M  V30 48 H -3.199196 -4.750119 1.452020 0
M  V30 END ATOM
M  V30 BEGIN BOND
M  V30 1 1 1 2
M  V30 2 1 2 3
M  V30 3 1 3 4
M  V30 4 1 4 5
M  V30 5 1 4 6
M  V30 6 1 6 7
M  V30 7 2 7 8
M  V30 8 1 8 9
M  V30 9 2 9 10
M  V30 10 1 10 11
M  V30 11 2 11 12
M  V30 12 1 12 13
M  V30 13 2 13 14
M  V30 14 1 14 15
M  V30 15 1 15 16
M  V30 16 1 16 17
M  V30 17 2 17 18
M  V30 18 1 17 19
M  V30 19 2 19 20
M  V30 20 1 20 21
M  V30 21 1 21 22
M  V30 22 1 21 23
M  V30 23 2 23 24
M  V30 24 1 24 25
M  V30 25 1 25 26
M  V30 26 2 15 27
M  V30 27 1 10 6
M  V30 28 1 27 11
M  V30 29 1 24 19
M  V30 30 1 1 28
M  V30 31 1 1 29
M  V30 32 1 1 30
M  V30 33 1 3 31
M  V30 34 1 3 32
M  V30 35 1 4 33 CFG=1
M  V30 36 1 5 34
M  V30 37 1 5 35
M  V30 38 1 5 36
M  V30 39 1 7 37
M  V30 40 1 12 38
M  V30 41 1 13 39
M  V30 42 1 14 40
M  V30 43 1 16 41
M  V30 44 1 20 42
M  V30 45 1 22 43
M  V30 46 1 22 44
M  V30 47 1 22 45
M  V30 48 1 26 46
M  V30 49 1 26 47
M  V30 50 1 26 48
M  V30 END BOND
M  V30 END CTAB
M  END
>  <Dataset>  (243) 
ChEMBL_Kinases

>  <Ligand_Instance>  (243) 
nan

>  <PDB_ID>  (243) 
nan

>  <Standardized_SMILES>  (243) 
COC[C@@H](C)n1cnnc1-c1cccc(NC(=O)c2cn(C)nc2OC)n1

>  <Name>  (243) 
nan

>  <Pocket>  (243) 
nan

>  <ATP_Site>  (243) 
nan

>  <Peripheral>  (243) 
nan

>  <Num_H_Atoms_ProtBoundConf>  (243) 
nan

>  <Num_Resolved_Atoms>  (243) 
nan

>  <Num_Not_Resolved_Atoms>  (243) 
nan

$$$$
CHEMBL3979676
     RDKit          3D

  0  0  0  0  0  0  0  0  0  0999 V3000
M  V30 BEGIN CTAB
M  V30 COUNTS 30 32 0 0 0
M  V30 BEGIN ATOM
M  V30 1 C -2.580216 1.071239 3.384439 0
M  V30 2 O -1.707193 0.167888 4.036795 0
M  V30 3 C -0.813846 -0.571691 3.276350 0
M  V30 4 C -0.019615 -1.414044 4.028195 0
M  V30 5 C 0.909953 -2.200651 3.365749 0
M  V30 6 C 1.032183 -2.140489 2.012477 0
M  V30 7 C 0.256622 -1.311331 1.231695 0
M  V30 8 C 0.224726 -1.075244 -0.201908 0
M  V30 9 C -1.029524 -1.275845 -0.796103 0
M  V30 10 C -1.226923 -1.128175 -2.147104 0
M  V30 11 N -0.206681 -0.780359 -2.957558 0
M  V30 12 C 1.007595 -0.579667 -2.421727 0
M  V30 13 N 2.228970 -0.223280 -2.910011 0
M  V30 14 C 3.152520 -0.145725 -1.934060 0
M  V30 15 C 2.531541 -0.463448 -0.730149 0
M  V30 16 C 3.214224 -0.468107 0.526658 0
M  V30 17 N 3.778625 -0.456659 1.537452 0
M  V30 18 C 1.225329 -0.721966 -1.074832 0
M  V30 19 C -0.675599 -0.523987 1.905344 0
M  V30 20 H -3.044575 0.521981 2.538691 0
M  V30 21 H -2.032773 1.945762 2.949709 0
M  V30 22 H -3.361626 1.456980 4.091300 0
M  V30 23 H -0.076330 -1.500748 5.111018 0
M  V30 24 H 1.588756 -2.898871 3.840966 0
M  V30 25 H 1.724197 -2.726537 1.421739 0
M  V30 26 H -1.952861 -1.558478 -0.286564 0
M  V30 27 H -2.160553 -1.267563 -2.660550 0
M  V30 28 H 2.377085 -0.040396 -3.947580 0
M  V30 29 H 4.196601 0.116964 -2.056383 0
M  V30 30 H -1.357737 0.175307 1.448856 0
M  V30 END ATOM
M  V30 BEGIN BOND
M  V30 1 1 1 2
M  V30 2 1 2 3
M  V30 3 2 3 4
M  V30 4 1 4 5
M  V30 5 2 5 6
M  V30 6 1 6 7
M  V30 7 1 7 8
M  V30 8 2 8 9
M  V30 9 1 9 10
M  V30 10 2 10 11
M  V30 11 1 11 12
M  V30 12 1 12 13
M  V30 13 1 13 14
M  V30 14 2 14 15
M  V30 15 1 15 16
M  V30 16 3 16 17
M  V30 17 1 15 18
M  V30 18 2 7 19
M  V30 19 1 19 3
M  V30 20 1 18 8
M  V30 21 2 18 12
M  V30 22 1 1 20
M  V30 23 1 1 21
M  V30 24 1 1 22
M  V30 25 1 4 23
M  V30 26 1 5 24
M  V30 27 1 6 25
M  V30 28 1 9 26
M  V30 29 1 10 27
M  V30 30 1 13 28
M  V30 31 1 14 29
M  V30 32 1 19 30
M  V30 END BOND
M  V30 END CTAB
M  END
>  <Dataset>  (244) 
ChEMBL_Kinases

>  <Ligand_Instance>  (244) 
nan

>  <PDB_ID>  (244) 
nan

>  <Standardized_SMILES>  (244) 
COc1cccc(-c2ccnc3[nH]cc(C#N)c23)c1

>  <Name>  (244) 
nan

>  <Pocket>  (244) 
nan

>  <ATP_Site>  (244) 
nan

>  <Peripheral>  (244) 
nan

>  <Num_H_Atoms_ProtBoundConf>  (244) 
nan

>  <Num_Resolved_Atoms>  (244) 
nan

>  <Num_Not_Resolved_Atoms>  (244) 
nan

$$$$
CHEMBL4867159
     RDKit          3D

  0  0  0  0  0  0  0  0  0  0999 V3000
M  V30 BEGIN CTAB
M  V30 COUNTS 40 42 0 0 0
M  V30 BEGIN ATOM
M  V30 1 C -1.215237 -5.063640 0.767053 0
M  V30 2 C -1.412791 -4.258209 -0.496287 0
M  V30 3 C -0.648385 -2.941872 -0.403018 0 CFG=2
M  V30 4 C 0.803168 -3.332827 -0.223915 0
M  V30 5 N -1.107086 -2.132177 0.736314 0
M  V30 6 C -0.513642 -0.858253 0.929642 0
M  V30 7 C 0.450916 -0.379036 0.087011 0
M  V30 8 C 1.036852 0.857243 0.255652 0
M  V30 9 C 2.007572 1.343484 -0.589350 0
M  V30 10 C 2.613064 2.569851 -0.451928 0
M  V30 11 C 3.624231 2.989345 -1.394813 0
M  V30 12 O 3.940487 2.220712 -2.337582 0
M  V30 13 O 4.255283 4.218874 -1.286490 0
M  V30 14 C 2.223375 3.369244 0.603283 0
M  V30 15 C 1.251509 2.912475 1.470918 0
M  V30 16 C 0.670514 1.678970 1.298191 0
M  V30 17 C -0.292529 1.232334 2.162239 0
M  V30 18 C -0.687792 2.020774 3.216335 0
M  V30 19 N -1.645562 1.598911 4.091726 0
M  V30 20 C -2.223020 0.373957 3.920883 0
M  V30 21 C -1.813645 -0.388122 2.868391 0
M  V30 22 C -0.854006 -0.009136 1.959831 0
M  V30 23 H -0.878150 -6.077960 0.518640 0
M  V30 24 H -2.174878 -5.169782 1.336177 0
M  V30 25 H -0.538802 -4.528750 1.464749 0
M  V30 26 H -2.494620 -4.014998 -0.587396 0
M  V30 27 H -1.003684 -4.805224 -1.339999 0
M  V30 28 H -0.748474 -2.435204 -1.363007 0
M  V30 29 H 1.194188 -2.797789 0.673360 0
M  V30 30 H 0.921016 -4.415279 0.035326 0
M  V30 31 H 1.418331 -3.199014 -1.131760 0
M  V30 32 H -1.830816 -2.569556 1.302290 0
M  V30 33 H 0.813642 -0.915472 -0.749634 0
M  V30 34 H 2.309041 0.715418 -1.412621 0
M  V30 35 H 4.655660 4.689853 -2.089726 0
M  V30 36 H 2.709703 4.339436 0.703010 0
M  V30 37 H 1.022800 3.610628 2.255078 0
M  V30 38 H -0.329569 2.981339 3.466764 0
M  V30 39 H -2.987644 0.059855 4.636063 0
M  V30 40 H -2.317542 -1.338851 2.804428 0
M  V30 END ATOM
M  V30 BEGIN BOND
M  V30 1 1 1 2
M  V30 2 1 2 3
M  V30 3 1 3 4
M  V30 4 1 3 5
M  V30 5 1 5 6
M  V30 6 2 6 7
M  V30 7 1 7 8
M  V30 8 2 8 9
M  V30 9 1 9 10
M  V30 10 1 10 11
M  V30 11 2 11 12
M  V30 12 1 11 13
M  V30 13 2 10 14
M  V30 14 1 14 15
M  V30 15 2 15 16
M  V30 16 1 16 17
M  V30 17 2 17 18
M  V30 18 1 18 19
M  V30 19 2 19 20
M  V30 20 1 20 21
M  V30 21 2 21 22
M  V30 22 1 22 6
M  V30 23 1 16 8
M  V30 24 1 22 17
M  V30 25 1 1 23
M  V30 26 1 1 24
M  V30 27 1 1 25
M  V30 28 1 2 26
M  V30 29 1 2 27
M  V30 30 1 3 28 CFG=3
M  V30 31 1 4 29
M  V30 32 1 4 30
M  V30 33 1 4 31
M  V30 34 1 5 32
M  V30 35 1 7 33
M  V30 36 1 9 34
M  V30 37 1 13 35
M  V30 38 1 14 36
M  V30 39 1 15 37
M  V30 40 1 18 38
M  V30 41 1 20 39
M  V30 42 1 21 40
M  V30 END BOND
M  V30 END CTAB
M  END
>  <Dataset>  (245) 
ChEMBL_Kinases

>  <Ligand_Instance>  (245) 
nan

>  <PDB_ID>  (245) 
nan

>  <Standardized_SMILES>  (245) 
CC[C@H](C)Nc1cc2cc(C(=O)O)ccc2c2cnccc12

>  <Name>  (245) 
nan

>  <Pocket>  (245) 
nan

>  <ATP_Site>  (245) 
nan

>  <Peripheral>  (245) 
nan

>  <Num_H_Atoms_ProtBoundConf>  (245) 
nan

>  <Num_Resolved_Atoms>  (245) 
nan

>  <Num_Not_Resolved_Atoms>  (245) 
nan

$$$$
CHEMBL3979587
     RDKit          3D

  0  0  0  0  0  0  0  0  0  0999 V3000
M  V30 BEGIN CTAB
M  V30 COUNTS 53 57 0 0 0
M  V30 BEGIN ATOM
M  V30 1 C 6.235971 -1.213802 6.909155 0
M  V30 2 O 6.277879 -1.384174 5.504283 0
M  V30 3 C 5.194906 -1.268413 4.666072 0
M  V30 4 O 4.154736 -0.987575 5.336265 0
M  V30 5 N 5.277188 -1.447325 3.250786 0
M  V30 6 C 4.027864 -1.278974 2.583852 0
M  V30 7 N 3.431170 -0.179581 2.046949 0
M  V30 8 C 2.242566 -0.532446 1.523756 0
M  V30 9 C 1.246708 0.198214 0.864405 0
M  V30 10 C 0.130240 -0.493376 0.449784 0
M  V30 11 C -0.956284 0.266988 -0.257344 0
M  V30 12 O -0.428316 1.158004 -1.179102 0
M  V30 13 C -1.782129 0.950254 0.769916 0
M  V30 14 C -1.380775 1.952834 1.660861 0
M  V30 15 C -2.304165 2.462901 2.577692 0
M  V30 16 C -3.607154 2.013126 2.639581 0
M  V30 17 C -3.961203 1.030650 1.750087 0
M  V30 18 C -3.084583 0.505416 0.836052 0
M  V30 19 C -3.163096 -0.498895 -0.218750 0
M  V30 20 O -4.265020 -1.112318 -0.412318 0
M  V30 21 N -1.911961 -0.622788 -0.885206 0
M  V30 22 C -1.611772 -1.466852 -2.006974 0
M  V30 23 C -1.779152 -0.863027 -3.351490 0
M  V30 24 C -3.159519 -0.445484 -3.734653 0
M  V30 25 C -3.716345 -1.683903 -4.404600 0
M  V30 26 C -2.563371 -2.624784 -4.457942 0
M  V30 27 O -1.435526 -1.861782 -4.298041 0
M  V30 28 C 0.007901 -1.847647 0.679062 0
M  V30 29 C 0.985547 -2.592760 1.332350 0
M  V30 30 C 2.106999 -1.900807 1.749381 0
M  V30 31 N 3.227139 -2.325450 2.405209 0
M  V30 32 H 6.487963 -0.183299 7.226445 0
M  V30 33 H 6.784100 -2.007620 7.456393 0
M  V30 34 H 5.167640 -1.345163 7.210110 0
M  V30 35 H 6.211114 -1.680871 2.809494 0
M  V30 36 H 1.420831 1.234983 0.729573 0
M  V30 37 H -0.921785 2.011908 -1.151863 0
M  V30 38 H -0.408357 2.408095 1.740202 0
M  V30 39 H -2.039468 3.241564 3.288930 0
M  V30 40 H -4.356331 2.359271 3.312214 0
M  V30 41 H -4.989358 0.642058 1.762391 0
M  V30 42 H -2.177152 -2.424765 -1.983430 0
M  V30 43 H -0.528001 -1.770006 -1.912452 0
M  V30 44 H -1.017575 -0.059642 -3.536975 0
M  V30 45 H -3.806996 -0.188801 -2.894926 0
M  V30 46 H -3.160157 0.343987 -4.527358 0
M  V30 47 H -4.141251 -1.465477 -5.425394 0
M  V30 48 H -4.585633 -2.086757 -3.832240 0
M  V30 49 H -2.713188 -3.400291 -3.674888 0
M  V30 50 H -2.494967 -3.162888 -5.433774 0
M  V30 51 H -0.858962 -2.411387 0.364958 0
M  V30 52 H 0.912652 -3.642445 1.520928 0
M  V30 53 H 3.364503 -3.332661 2.690188 0
M  V30 END ATOM
M  V30 BEGIN BOND
M  V30 1 1 1 2
M  V30 2 1 2 3
M  V30 3 2 3 4
M  V30 4 1 3 5
M  V30 5 1 5 6
M  V30 6 2 6 7
M  V30 7 1 7 8
M  V30 8 2 8 9
M  V30 9 1 9 10
M  V30 10 1 10 11
M  V30 11 1 11 12
M  V30 12 1 11 13
M  V30 13 2 13 14
M  V30 14 1 14 15
M  V30 15 2 15 16
M  V30 16 1 16 17
M  V30 17 2 17 18
M  V30 18 1 18 19
M  V30 19 2 19 20
M  V30 20 1 19 21
M  V30 21 1 21 22
M  V30 22 1 22 23
M  V30 23 1 23 24
M  V30 24 1 24 25
M  V30 25 1 25 26
M  V30 26 1 26 27
M  V30 27 2 10 28
M  V30 28 1 28 29
M  V30 29 2 29 30
M  V30 30 1 30 31
M  V30 31 1 31 6
M  V30 32 1 30 8
M  V30 33 1 21 11
M  V30 34 1 27 23
M  V30 35 1 18 13
M  V30 36 1 1 32
M  V30 37 1 1 33
M  V30 38 1 1 34
M  V30 39 1 5 35
M  V30 40 1 9 36
M  V30 41 1 12 37
M  V30 42 1 14 38
M  V30 43 1 15 39
M  V30 44 1 16 40
M  V30 45 1 17 41
M  V30 46 1 22 42
M  V30 47 1 22 43
M  V30 48 1 23 44
M  V30 49 1 24 45
M  V30 50 1 24 46
M  V30 51 1 25 47
M  V30 52 1 25 48
M  V30 53 1 26 49
M  V30 54 1 26 50
M  V30 55 1 28 51
M  V30 56 1 29 52
M  V30 57 1 31 53
M  V30 END BOND
M  V30 END CTAB
M  END
>  <Dataset>  (246) 
ChEMBL_Kinases

>  <Ligand_Instance>  (246) 
nan

>  <PDB_ID>  (246) 
nan

>  <Standardized_SMILES>  (246) 
COC(=O)Nc1nc2cc(C3(O)c4ccccc4C(=O)N3CC3CCCO3)ccc2[nH]1

>  <Name>  (246) 
nan

>  <Pocket>  (246) 
nan

>  <ATP_Site>  (246) 
nan

>  <Peripheral>  (246) 
nan

>  <Num_H_Atoms_ProtBoundConf>  (246) 
nan

>  <Num_Resolved_Atoms>  (246) 
nan

>  <Num_Not_Resolved_Atoms>  (246) 
nan

$$$$
CHEMBL90825
     RDKit          3D

  0  0  0  0  0  0  0  0  0  0999 V3000
M  V30 BEGIN CTAB
M  V30 COUNTS 58 61 0 0 0
M  V30 BEGIN ATOM
M  V30 1 C -0.850903 -2.850065 2.381273 0
M  V30 2 C 0.050727 -2.484096 3.480984 0
M  V30 3 C 1.524820 -2.566467 3.302332 0
M  V30 4 C 2.179754 -1.781171 2.254927 0
M  V30 5 N 2.031690 -2.027857 0.880099 0
M  V30 6 C 2.549477 -0.874657 0.101706 0
M  V30 7 C 1.731947 0.324909 0.203127 0
M  V30 8 C 1.825242 1.393851 1.111961 0
M  V30 9 C 0.918705 2.403582 1.002412 0
M  V30 10 C -0.102560 2.517905 0.097319 0
M  V30 11 C -1.089843 3.573468 -0.048769 0
M  V30 12 C -0.622286 4.807462 -0.440382 0
M  V30 13 C -1.571812 5.810366 -0.604272 0
M  V30 14 C -2.915931 5.592345 -0.388192 0
M  V30 15 C -3.318625 4.336331 0.003009 0
M  V30 16 C -2.426253 3.290307 0.185587 0
M  V30 17 C -2.875509 1.959143 0.601196 0
M  V30 18 N -2.220538 0.829190 0.889217 0
M  V30 19 N -3.108740 -0.108224 1.201155 0
M  V30 20 N -4.330120 0.387014 1.123206 0
M  V30 21 N -4.187644 1.646387 0.757717 0
M  V30 22 C -0.168878 1.449421 -0.786638 0
M  V30 23 C 0.712619 0.365472 -0.759579 0
M  V30 24 C 1.596643 -3.132237 0.070883 0
M  V30 25 N 1.289054 -4.364188 0.489194 0
M  V30 26 C 0.890774 -5.389118 -0.234567 0
M  V30 27 C 0.559912 -6.730679 0.288985 0
M  V30 28 C 0.770837 -5.187864 -1.587299 0
M  V30 29 C 1.069306 -3.937294 -2.110026 0
M  V30 30 C 1.021841 -3.462063 -3.525583 0
M  V30 31 N 1.462529 -2.992260 -1.250779 0
M  V30 32 H -0.794057 -3.961705 2.214237 0
M  V30 33 H -1.903987 -2.597027 2.705857 0
M  V30 34 H -0.666492 -2.253596 1.496605 0
M  V30 35 H -0.229017 -1.500182 3.972841 0
M  V30 36 H -0.178682 -3.217692 4.330962 0
M  V30 37 H 1.951436 -2.205851 4.297037 0
M  V30 38 H 1.795678 -3.650178 3.318703 0
M  V30 39 H 3.291993 -1.675918 2.540220 0
M  V30 40 H 1.835045 -0.702384 2.464758 0
M  V30 41 H 2.679106 -1.153470 -0.956302 0
M  V30 42 H 3.574432 -0.623149 0.462385 0
M  V30 43 H 2.617673 1.362979 1.833584 0
M  V30 44 H 0.991830 3.223175 1.706333 0
M  V30 45 H 0.413020 5.039018 -0.623989 0
M  V30 46 H -1.348202 6.831073 -0.911847 0
M  V30 47 H -3.692729 6.359541 -0.508887 0
M  V30 48 H -4.376323 4.129579 0.182889 0
M  V30 49 H -4.989018 -0.375499 1.374140 0
M  V30 50 H -0.964474 1.470694 -1.549118 0
M  V30 51 H 0.529290 -0.381112 -1.509696 0
M  V30 52 H 0.873867 -6.811793 1.336606 0
M  V30 53 H 1.084562 -7.490191 -0.305169 0
M  V30 54 H -0.542481 -6.848870 0.271993 0
M  V30 55 H 0.463789 -5.898666 -2.337981 0
M  V30 56 H 0.128952 -2.802155 -3.636123 0
M  V30 57 H 1.895471 -2.808313 -3.739135 0
M  V30 58 H 0.907692 -4.295073 -4.233838 0
M  V30 END ATOM
M  V30 BEGIN BOND
M  V30 1 1 1 2
M  V30 2 1 2 3
M  V30 3 1 3 4
M  V30 4 1 4 5
M  V30 5 1 5 6
M  V30 6 1 6 7
M  V30 7 2 7 8
M  V30 8 1 8 9
M  V30 9 2 9 10
M  V30 10 1 10 11
M  V30 11 2 11 12
M  V30 12 1 12 13
M  V30 13 2 13 14
M  V30 14 1 14 15
M  V30 15 2 15 16
M  V30 16 1 16 17
M  V30 17 1 17 18
M  V30 18 2 18 19
M  V30 19 1 19 20
M  V30 20 1 20 21
M  V30 21 1 10 22
M  V30 22 2 22 23
M  V30 23 1 5 24
M  V30 24 2 24 25
M  V30 25 1 25 26
M  V30 26 1 26 27
M  V30 27 2 26 28
M  V30 28 1 28 29
M  V30 29 1 29 30
M  V30 30 2 29 31
M  V30 31 1 23 7
M  V30 32 1 31 24
M  V30 33 1 16 11
M  V30 34 2 21 17
M  V30 35 1 1 32
M  V30 36 1 1 33
M  V30 37 1 1 34
M  V30 38 1 2 35
M  V30 39 1 2 36
M  V30 40 1 3 37
M  V30 41 1 3 38
M  V30 42 1 4 39
M  V30 43 1 4 40
M  V30 44 1 6 41
M  V30 45 1 6 42
M  V30 46 1 8 43
M  V30 47 1 9 44
M  V30 48 1 12 45
M  V30 49 1 13 46
M  V30 50 1 14 47
M  V30 51 1 15 48
M  V30 52 1 20 49
M  V30 53 1 22 50
M  V30 54 1 23 51
M  V30 55 1 27 52
M  V30 56 1 27 53
M  V30 57 1 27 54
M  V30 58 1 28 55
M  V30 59 1 30 56
M  V30 60 1 30 57
M  V30 61 1 30 58
M  V30 END BOND
M  V30 END CTAB
M  END
>  <Dataset>  (247) 
ChEMBL_Kinases

>  <Ligand_Instance>  (247) 
nan

>  <PDB_ID>  (247) 
nan

>  <Standardized_SMILES>  (247) 
CCCCN(Cc1ccc(-c2ccccc2-c2nn[nH]n2)cc1)c1nc(C)cc(C)n1

>  <Name>  (247) 
nan

>  <Pocket>  (247) 
nan

>  <ATP_Site>  (247) 
nan

>  <Peripheral>  (247) 
nan

>  <Num_H_Atoms_ProtBoundConf>  (247) 
nan

>  <Num_Resolved_Atoms>  (247) 
nan

>  <Num_Not_Resolved_Atoms>  (247) 
nan

$$$$
CHEMBL4867173
     RDKit          3D

  0  0  0  0  0  0  0  0  0  0999 V3000
M  V30 BEGIN CTAB
M  V30 COUNTS 38 39 0 0 0
M  V30 BEGIN ATOM
M  V30 1 N 0.049271 -5.593161 5.481319 0
M  V30 2 C 0.420226 -4.969145 4.568880 0
M  V30 3 C 0.871402 -4.189422 3.445892 0
M  V30 4 C 1.483320 -4.808192 2.349438 0
M  V30 5 C 1.883587 -3.993833 1.307576 0
M  V30 6 C 1.680504 -2.623846 1.361318 0
M  V30 7 N 2.054757 -1.714133 0.302837 0
M  V30 8 C 1.850741 -0.303819 0.484120 0
M  V30 9 N 2.893063 0.508375 0.825029 0
M  V30 10 C 2.645119 1.831661 0.996170 0
M  V30 11 C 1.378427 2.324028 0.828753 0
M  V30 12 C 1.042807 3.758628 0.997077 0
M  V30 13 F 0.541468 4.329377 -0.133175 0
M  V30 14 F 2.208293 4.400402 1.394739 0
M  V30 15 F 0.146245 3.976438 2.044092 0
M  V30 16 C 0.339480 1.442892 0.477190 0
M  V30 17 N -1.031465 1.825165 0.296975 0
M  V30 18 C -2.250366 1.203871 -0.040732 0
M  V30 19 C -2.445845 0.638114 -1.381413 0
M  V30 20 C -1.572362 -0.445686 -1.864877 0
M  V30 21 N -1.594562 -1.643867 -1.095339 0
M  V30 22 N 0.604130 0.140076 0.312493 0
M  V30 23 C 1.060862 -2.093263 2.497895 0
M  V30 24 N 0.669227 -2.881104 3.515299 0
M  V30 25 H 1.637223 -5.876216 2.314998 0
M  V30 26 H 2.373072 -4.403404 0.411321 0
M  V30 27 H 2.464429 -2.185281 -0.548092 0
M  V30 28 H 3.364779 2.572673 1.260956 0
M  V30 29 H -1.102679 2.878041 0.474674 0
M  V30 30 H -2.557627 0.420817 0.735954 0
M  V30 31 H -3.086531 1.957101 0.094966 0
M  V30 32 H -2.476405 1.426066 -2.166318 0
M  V30 33 H -3.505916 0.226044 -1.397995 0
M  V30 34 H -0.539999 -0.118777 -2.182115 0
M  V30 35 H -2.015364 -0.754589 -2.871928 0
M  V30 36 H -1.231963 -2.492982 -1.526444 0
M  V30 37 H -1.651896 -1.571939 -0.083942 0
M  V30 38 H 0.875269 -1.018244 2.594589 0
M  V30 END ATOM
M  V30 BEGIN BOND
M  V30 1 3 1 2
M  V30 2 1 2 3
M  V30 3 2 3 4
M  V30 4 1 4 5
M  V30 5 2 5 6
M  V30 6 1 6 7
M  V30 7 1 7 8
M  V30 8 2 8 9
M  V30 9 1 9 10
M  V30 10 2 10 11
M  V30 11 1 11 12
M  V30 12 1 12 13
M  V30 13 1 12 14
M  V30 14 1 12 15
M  V30 15 1 11 16
M  V30 16 1 16 17
M  V30 17 1 17 18
M  V30 18 1 18 19
M  V30 19 1 19 20
M  V30 20 1 20 21
M  V30 21 2 16 22
M  V30 22 1 6 23
M  V30 23 2 23 24
M  V30 24 1 24 3
M  V30 25 1 22 8
M  V30 26 1 4 25
M  V30 27 1 5 26
M  V30 28 1 7 27
M  V30 29 1 10 28
M  V30 30 1 17 29
M  V30 31 1 18 30
M  V30 32 1 18 31
M  V30 33 1 19 32
M  V30 34 1 19 33
M  V30 35 1 20 34
M  V30 36 1 20 35
M  V30 37 1 21 36
M  V30 38 1 21 37
M  V30 39 1 23 38
M  V30 END BOND
M  V30 END CTAB
M  END
>  <Dataset>  (248) 
ChEMBL_Kinases

>  <Ligand_Instance>  (248) 
nan

>  <PDB_ID>  (248) 
nan

>  <Standardized_SMILES>  (248) 
N#Cc1ccc(Nc2ncc(C(F)(F)F)c(NCCCN)n2)cn1

>  <Name>  (248) 
nan

>  <Pocket>  (248) 
nan

>  <ATP_Site>  (248) 
nan

>  <Peripheral>  (248) 
nan

>  <Num_H_Atoms_ProtBoundConf>  (248) 
nan

>  <Num_Resolved_Atoms>  (248) 
nan

>  <Num_Not_Resolved_Atoms>  (248) 
nan

$$$$
CHEMBL4867186
     RDKit          3D

  0  0  0  0  0  0  0  0  0  0999 V3000
M  V30 BEGIN CTAB
M  V30 COUNTS 53 56 0 0 0
M  V30 BEGIN ATOM
M  V30 1 N -0.756803 1.863712 -0.521574 0
M  V30 2 C -0.824854 0.461783 -0.227421 0
M  V30 3 C 0.511473 -0.012838 0.166871 0
M  V30 4 O 0.814013 -1.209572 0.496165 0
M  V30 5 N 1.644432 0.845026 0.223456 0
M  V30 6 C 2.960457 0.389717 0.609092 0 CFG=1
M  V30 7 C 3.976996 0.626254 -0.447413 0
M  V30 8 O 5.219540 0.410995 -0.577474 0
M  V30 9 N 3.516625 1.252262 -1.656964 0
M  V30 10 O 4.475413 1.450142 -2.595382 0
M  V30 11 C 3.326977 1.041691 1.903645 0
M  V30 12 C 2.334441 1.050113 2.868516 0
M  V30 13 C 2.509258 1.609474 4.111933 0
M  V30 14 C 3.738551 2.184123 4.391341 0
M  V30 15 C 4.749215 2.190132 3.445603 0
M  V30 16 C 4.522733 1.617114 2.216890 0
M  V30 17 C -1.804920 0.257413 0.911450 0
M  V30 18 C -3.085433 -0.281606 0.259272 0
M  V30 19 N -2.779372 -1.645971 -0.139128 0
M  V30 20 C -3.485552 -2.704609 0.480701 0
M  V30 21 N -4.390165 -2.401984 1.430017 0
M  V30 22 C -5.106979 -3.333447 2.076561 0
M  V30 23 N -4.955942 -4.628068 1.805761 0
M  V30 24 C -4.082566 -5.022990 0.879852 0
M  V30 25 N -3.725511 -6.221844 0.406522 0
M  V30 26 C -2.784719 -6.060322 -0.538736 0
M  V30 27 C -2.554942 -4.705461 -0.649975 0
M  V30 28 C -3.357396 -4.053445 0.228219 0
M  V30 29 C -1.750848 -1.698369 -1.152831 0
M  V30 30 C -1.252919 -0.279930 -1.464299 0
M  V30 31 H -1.683053 2.225145 -0.806439 0
M  V30 32 H -0.454339 2.380910 0.355680 0
M  V30 33 H 1.556589 1.857725 -0.018741 0
M  V30 34 H 2.939749 -0.712089 0.847407 0
M  V30 35 H 2.519529 1.552813 -1.846885 0
M  V30 36 H 4.872254 0.545663 -2.798199 0
M  V30 37 H 1.353911 0.618130 2.712128 0
M  V30 38 H 1.771399 1.643718 4.899744 0
M  V30 39 H 4.024478 2.660307 5.319508 0
M  V30 40 H 5.721595 2.610641 3.580827 0
M  V30 41 H 5.273687 1.591889 1.439354 0
M  V30 42 H -1.999881 1.190922 1.459223 0
M  V30 43 H -1.391896 -0.509977 1.596354 0
M  V30 44 H -3.276642 0.370461 -0.614688 0
M  V30 45 H -3.918412 -0.256641 0.993407 0
M  V30 46 H -5.826127 -3.007345 2.838992 0
M  V30 47 H -4.076740 -7.172036 0.678507 0
M  V30 48 H -2.295606 -6.839189 -1.108641 0
M  V30 49 H -1.858563 -4.287225 -1.323527 0
M  V30 50 H -2.187532 -2.074172 -2.083179 0
M  V30 51 H -0.842326 -2.228696 -0.801826 0
M  V30 52 H -1.923875 0.272778 -2.123496 0
M  V30 53 H -0.313336 -0.437211 -2.068577 0
M  V30 END ATOM
M  V30 BEGIN BOND
M  V30 1 1 1 2
M  V30 2 1 2 3
M  V30 3 2 3 4
M  V30 4 1 3 5
M  V30 5 1 5 6
M  V30 6 1 6 7
M  V30 7 2 7 8
M  V30 8 1 7 9
M  V30 9 1 9 10
M  V30 10 1 6 11
M  V30 11 2 11 12
M  V30 12 1 12 13
M  V30 13 2 13 14
M  V30 14 1 14 15
M  V30 15 2 15 16
M  V30 16 1 2 17
M  V30 17 1 17 18
M  V30 18 1 18 19
M  V30 19 1 19 20
M  V30 20 2 20 21
M  V30 21 1 21 22
M  V30 22 2 22 23
M  V30 23 1 23 24
M  V30 24 1 24 25
M  V30 25 1 25 26
M  V30 26 2 26 27
M  V30 27 1 27 28
M  V30 28 1 19 29
M  V30 29 1 29 30
M  V30 30 1 30 2
M  V30 31 1 16 11
M  V30 32 1 28 20
M  V30 33 2 28 24
M  V30 34 1 1 31
M  V30 35 1 1 32
M  V30 36 1 5 33
M  V30 37 1 6 34 CFG=1
M  V30 38 1 9 35
M  V30 39 1 10 36
M  V30 40 1 12 37
M  V30 41 1 13 38
M  V30 42 1 14 39
M  V30 43 1 15 40
M  V30 44 1 16 41
M  V30 45 1 17 42
M  V30 46 1 17 43
M  V30 47 1 18 44
M  V30 48 1 18 45
M  V30 49 1 22 46
M  V30 50 1 25 47
M  V30 51 1 26 48
M  V30 52 1 27 49
M  V30 53 1 29 50
M  V30 54 1 29 51
M  V30 55 1 30 52
M  V30 56 1 30 53
M  V30 END BOND
M  V30 END CTAB
M  END
>  <Dataset>  (249) 
ChEMBL_Kinases

>  <Ligand_Instance>  (249) 
nan

>  <PDB_ID>  (249) 
nan

>  <Standardized_SMILES>  (249) 
NC1(C(=O)N[C@@H](C(=O)NO)c2ccccc2)CCN(c2ncnc3[nH]ccc23)CC1

>  <Name>  (249) 
nan

>  <Pocket>  (249) 
nan

>  <ATP_Site>  (249) 
nan

>  <Peripheral>  (249) 
nan

>  <Num_H_Atoms_ProtBoundConf>  (249) 
nan

>  <Num_Resolved_Atoms>  (249) 
nan

>  <Num_Not_Resolved_Atoms>  (249) 
nan

$$$$
CHEMBL3979540
     RDKit          3D

  0  0  0  0  0  0  0  0  0  0999 V3000
M  V30 BEGIN CTAB
M  V30 COUNTS 58 62 0 0 0
M  V30 BEGIN ATOM
M  V30 1 O 2.731962 -0.212560 4.681594 0
M  V30 2 C 2.330281 -0.686330 3.572521 0
M  V30 3 N 3.258561 -1.455354 2.975410 0
M  V30 4 N 2.751794 -1.903586 1.829626 0
M  V30 5 C 1.490764 -1.386271 1.746639 0
M  V30 6 C 0.361814 -1.465922 0.752078 0 CFG=2
M  V30 7 C 0.925242 -2.370995 -0.353409 0
M  V30 8 C 2.142784 -1.722196 -0.903803 0
M  V30 9 C 2.683142 -2.516960 -1.914728 0
M  V30 10 C 3.840198 -2.134836 -2.603763 0
M  V30 11 C 4.458871 -0.948404 -2.276754 0
M  V30 12 C 3.867425 -0.217412 -1.268617 0
M  V30 13 N 4.421955 1.027082 -0.847302 0
M  V30 14 C 4.009154 1.953117 0.150805 0
M  V30 15 C 3.142230 2.999028 -0.096948 0
M  V30 16 C 2.979724 3.676627 1.112255 0
M  V30 17 N 3.737131 3.034247 2.036410 0
M  V30 18 N 4.346286 2.008422 1.451955 0
M  V30 19 N 2.757342 -0.567546 -0.595887 0
M  V30 20 C 0.030074 -0.154521 0.130604 0
M  V30 21 C -1.492843 -0.189253 -0.189684 0
M  V30 22 C -2.152627 0.045470 1.116767 0 CFG=1
M  V30 23 S -3.887390 0.299697 1.000790 0
M  V30 24 O -4.362366 0.558110 2.428179 0
M  V30 25 O -4.184431 1.540848 0.172792 0
M  V30 26 C -4.796836 -1.047804 0.394622 0
M  V30 27 C -5.560927 -1.810112 1.294570 0
M  V30 28 C -6.301747 -2.933015 1.013184 0
M  V30 29 C -6.307733 -3.374921 -0.290459 0
M  V30 30 C -5.590181 -2.690992 -1.237064 0
M  V30 31 Cl -5.583641 -3.234620 -2.897421 0
M  V30 32 C -4.878509 -1.577657 -0.867554 0
M  V30 33 Cl -4.049663 -0.709581 -2.126676 0
M  V30 34 C -1.799594 -1.119237 2.017369 0
M  V30 35 C -0.851718 -2.077966 1.377369 0
M  V30 36 O 1.267413 -0.663623 2.801813 0
M  V30 37 H 4.242434 -1.805332 3.131100 0
M  V30 38 H 0.184031 -2.468086 -1.176000 0
M  V30 39 H 1.144603 -3.335962 0.152226 0
M  V30 40 H 2.305528 -3.483140 -2.285702 0
M  V30 41 H 4.291211 -2.717406 -3.390332 0
M  V30 42 H 5.367636 -0.555616 -2.752318 0
M  V30 43 H 5.283264 1.377939 -1.313222 0
M  V30 44 H 2.679675 3.250062 -1.029715 0
M  V30 45 H 2.364331 4.556982 1.295991 0
M  V30 46 H 3.863282 3.258408 3.053835 0
M  V30 47 H 0.469212 -0.023042 -0.901721 0
M  V30 48 H 0.202685 0.727053 0.776870 0
M  V30 49 H -1.705161 0.555590 -0.957706 0
M  V30 50 H -1.682399 -1.218367 -0.529760 0
M  V30 51 H -1.729008 1.009491 1.557943 0
M  V30 52 H -5.598770 -1.514671 2.341694 0
M  V30 53 H -6.860327 -3.459334 1.764188 0
M  V30 54 H -6.861651 -4.246223 -0.592019 0
M  V30 55 H -1.357423 -0.719392 2.964915 0
M  V30 56 H -2.719953 -1.660793 2.258500 0
M  V30 57 H -1.391863 -2.798326 0.712812 0
M  V30 58 H -0.480671 -2.738656 2.218401 0
M  V30 END ATOM
M  V30 BEGIN BOND
M  V30 1 2 1 2
M  V30 2 1 2 3
M  V30 3 1 3 4
M  V30 4 2 4 5
M  V30 5 1 5 6
M  V30 6 1 6 7 CFG=3
M  V30 7 1 7 8
M  V30 8 2 8 9
M  V30 9 1 9 10
M  V30 10 2 10 11
M  V30 11 1 11 12
M  V30 12 1 12 13
M  V30 13 1 13 14
M  V30 14 1 14 15
M  V30 15 2 15 16
M  V30 16 1 16 17
M  V30 17 1 17 18
M  V30 18 2 12 19
M  V30 19 1 6 20
M  V30 20 1 20 21
M  V30 21 1 21 22
M  V30 22 1 22 23
M  V30 23 2 23 24
M  V30 24 2 23 25
M  V30 25 1 23 26
M  V30 26 2 26 27
M  V30 27 1 27 28
M  V30 28 2 28 29
M  V30 29 1 29 30
M  V30 30 1 30 31
M  V30 31 2 30 32
M  V30 32 1 32 33
M  V30 33 1 22 34
M  V30 34 1 34 35
M  V30 35 1 5 36
M  V30 36 1 36 2
M  V30 37 1 35 6
M  V30 38 1 19 8
M  V30 39 1 32 26
M  V30 40 2 18 14
M  V30 41 1 3 37
M  V30 42 1 7 38
M  V30 43 1 7 39
M  V30 44 1 9 40
M  V30 45 1 10 41
M  V30 46 1 11 42
M  V30 47 1 13 43
M  V30 48 1 15 44
M  V30 49 1 16 45
M  V30 50 1 17 46
M  V30 51 1 20 47
M  V30 52 1 20 48
M  V30 53 1 21 49
M  V30 54 1 21 50
M  V30 55 1 22 51 CFG=1
M  V30 56 1 27 52
M  V30 57 1 28 53
M  V30 58 1 29 54
M  V30 59 1 34 55
M  V30 60 1 34 56
M  V30 61 1 35 57
M  V30 62 1 35 58
M  V30 END BOND
M  V30 END CTAB
M  END
>  <Dataset>  (250) 
ChEMBL_Kinases

>  <Ligand_Instance>  (250) 
nan

>  <PDB_ID>  (250) 
nan

>  <Standardized_SMILES>  (250) 
O=c1[nH]nc([C@]2(Cc3cccc(Nc4cc[nH]n4)n3)CC[C@@H](S(=O)(=O)c3cccc(Cl)c3Cl)CC2)o1

>  <Name>  (250) 
nan

>  <Pocket>  (250) 
nan

>  <ATP_Site>  (250) 
nan

>  <Peripheral>  (250) 
nan

>  <Num_H_Atoms_ProtBoundConf>  (250) 
nan

>  <Num_Resolved_Atoms>  (250) 
nan

>  <Num_Not_Resolved_Atoms>  (250) 
nan

$$$$
CHEMBL3979533
     RDKit          3D

  0  0  0  0  0  0  0  0  0  0999 V3000
M  V30 BEGIN CTAB
M  V30 COUNTS 56 60 0 0 0
M  V30 BEGIN ATOM
M  V30 1 C 3.704530 -4.061518 6.741853 0
M  V30 2 O 4.362716 -3.364255 5.682359 0
M  V30 3 C 3.645974 -2.678414 4.696053 0
M  V30 4 O 2.385332 -2.666725 4.730694 0
M  V30 5 N 4.452010 -2.035364 3.710705 0
M  V30 6 C 3.771872 -1.322407 2.683805 0
M  V30 7 N 2.431337 -1.212759 2.582306 0
M  V30 8 C 2.108561 -0.473391 1.498252 0
M  V30 9 C 0.945181 -0.027889 0.888926 0
M  V30 10 C 1.029093 0.741866 -0.259542 0
M  V30 11 C -0.213067 1.181224 -0.841899 0
M  V30 12 O 0.044234 1.491128 -2.181950 0
M  V30 13 C -0.805064 2.412563 -0.264577 0
M  V30 14 C -0.083234 3.581336 -0.062117 0
M  V30 15 C -0.751759 4.659237 0.492226 0
M  V30 16 C -2.084524 4.622528 0.846772 0
M  V30 17 C -2.766660 3.432297 0.625852 0
M  V30 18 C -2.147207 2.328938 0.076185 0
M  V30 19 C -2.500867 0.954015 -0.305358 0
M  V30 20 O -3.691692 0.601636 -0.099134 0
M  V30 21 N -1.344262 0.299566 -0.853031 0
M  V30 22 C -1.350831 -1.020504 -1.323735 0
M  V30 23 C -0.226940 -1.604062 -1.862713 0
M  V30 24 C -0.146963 -2.911182 -2.350082 0
M  V30 25 C -1.322654 -3.671721 -2.273203 0
M  V30 26 C -2.511964 -3.152381 -1.738133 0
M  V30 27 O -3.458642 -4.088674 -1.789612 0
M  V30 28 C -4.788420 -4.189568 -1.480156 0
M  V30 29 F -5.131490 -5.550895 -1.737752 0
M  V30 30 F -5.164161 -3.941936 -0.198897 0
M  V30 31 C -5.618646 -3.386339 -2.500862 0
M  V30 32 F -6.960341 -3.505568 -2.166715 0
M  V30 33 F -5.323543 -2.062188 -2.505274 0
M  V30 34 C -2.445863 -1.854255 -1.296229 0
M  V30 35 C 2.281290 1.077078 -0.815151 0
M  V30 36 C 3.440024 0.627833 -0.199928 0
M  V30 37 C 3.335359 -0.147820 0.958189 0
M  V30 38 N 4.369576 -0.649039 1.655707 0
M  V30 39 H 4.316306 -4.893573 7.107534 0
M  V30 40 H 2.747863 -4.506257 6.343728 0
M  V30 41 H 3.369945 -3.358084 7.534592 0
M  V30 42 H 5.484759 -2.073888 3.725053 0
M  V30 43 H 0.010573 -0.305194 1.344015 0
M  V30 44 H -0.664131 2.032629 -2.587045 0
M  V30 45 H 0.962004 3.729191 -0.299371 0
M  V30 46 H -0.225790 5.606309 0.672409 0
M  V30 47 H -2.584083 5.479119 1.278630 0
M  V30 48 H -3.818155 3.326142 0.878970 0
M  V30 49 H 0.689757 -1.029905 -1.932316 0
M  V30 50 H 0.787541 -3.274455 -2.754508 0
M  V30 51 H -1.149600 -4.682759 -2.682997 0
M  V30 52 H -5.391687 -3.790929 -3.510389 0
M  V30 53 H -3.378267 -1.515102 -0.880804 0
M  V30 54 H 2.244963 1.685484 -1.718403 0
M  V30 55 H 4.371916 0.899664 -0.647039 0
M  V30 56 H 5.381296 -0.566650 1.486951 0
M  V30 END ATOM
M  V30 BEGIN BOND
M  V30 1 1 1 2
M  V30 2 1 2 3
M  V30 3 2 3 4
M  V30 4 1 3 5
M  V30 5 1 5 6
M  V30 6 2 6 7
M  V30 7 1 7 8
M  V30 8 2 8 9
M  V30 9 1 9 10
M  V30 10 1 10 11
M  V30 11 1 11 12
M  V30 12 1 11 13
M  V30 13 2 13 14
M  V30 14 1 14 15
M  V30 15 2 15 16
M  V30 16 1 16 17
M  V30 17 2 17 18
M  V30 18 1 18 19
M  V30 19 2 19 20
M  V30 20 1 19 21
M  V30 21 1 21 22
M  V30 22 2 22 23
M  V30 23 1 23 24
M  V30 24 2 24 25
M  V30 25 1 25 26
M  V30 26 1 26 27
M  V30 27 1 27 28
M  V30 28 1 28 29
M  V30 29 1 28 30
M  V30 30 1 28 31
M  V30 31 1 31 32
M  V30 32 1 31 33
M  V30 33 2 26 34
M  V30 34 2 10 35
M  V30 35 1 35 36
M  V30 36 2 36 37
M  V30 37 1 37 38
M  V30 38 1 38 6
M  V30 39 1 37 8
M  V30 40 1 21 11
M  V30 41 1 34 22
M  V30 42 1 18 13
M  V30 43 1 1 39
M  V30 44 1 1 40
M  V30 45 1 1 41
M  V30 46 1 5 42
M  V30 47 1 9 43
M  V30 48 1 12 44
M  V30 49 1 14 45
M  V30 50 1 15 46
M  V30 51 1 16 47
M  V30 52 1 17 48
M  V30 53 1 23 49
M  V30 54 1 24 50
M  V30 55 1 25 51
M  V30 56 1 31 52
M  V30 57 1 34 53
M  V30 58 1 35 54
M  V30 59 1 36 55
M  V30 60 1 38 56
M  V30 END BOND
M  V30 END CTAB
M  END
>  <Dataset>  (251) 
ChEMBL_Kinases

>  <Ligand_Instance>  (251) 
nan

>  <PDB_ID>  (251) 
nan

>  <Standardized_SMILES>  (251) 
COC(=O)Nc1nc2cc(C3(O)c4ccccc4C(=O)N3c3cccc(OC(F)(F)C(F)F)c3)ccc2[nH]1

>  <Name>  (251) 
nan

>  <Pocket>  (251) 
nan

>  <ATP_Site>  (251) 
nan

>  <Peripheral>  (251) 
nan

>  <Num_H_Atoms_ProtBoundConf>  (251) 
nan

>  <Num_Resolved_Atoms>  (251) 
nan

>  <Num_Not_Resolved_Atoms>  (251) 
nan

$$$$
CHEMBL397950
     RDKit          3D

  0  0  0  0  0  0  0  0  0  0999 V3000
M  V30 BEGIN CTAB
M  V30 COUNTS 45 48 0 0 0
M  V30 BEGIN ATOM
M  V30 1 C -1.292671 -0.589508 6.608263 0
M  V30 2 N -0.744563 -0.944819 5.304354 0
M  V30 3 C 0.521153 -1.190937 4.916093 0
M  V30 4 C 0.533912 -1.491172 3.552035 0
M  V30 5 C 1.865543 -1.790937 2.994712 0
M  V30 6 N 2.615564 -0.663523 2.549414 0
M  V30 7 C 2.375365 0.270543 1.508354 0
M  V30 8 C 3.251639 1.331554 1.251023 0
M  V30 9 C 3.019576 2.230439 0.237730 0
M  V30 10 Cl 4.192025 3.508492 0.023180 0
M  V30 11 C 1.911817 2.131710 -0.575865 0
M  V30 12 N 1.712283 3.026768 -1.559006 0
M  V30 13 C 0.620983 2.940345 -2.370482 0
M  V30 14 C -0.305026 1.916812 -2.188227 0
M  V30 15 C -1.449456 1.852243 -3.063095 0
M  V30 16 N -2.370074 1.784328 -3.758341 0
M  V30 17 C -0.088572 0.990765 -1.162870 0
M  V30 18 N -1.015998 -0.046824 -0.968813 0
M  V30 19 C -1.002782 -1.337589 -1.563223 0
M  V30 20 C 0.030821 -1.621018 -2.431560 0
M  V30 21 C -0.007735 -2.894355 -2.981052 0
M  V30 22 C -1.004407 -3.790378 -2.673692 0
M  V30 23 F -1.019046 -5.032238 -3.226008 0
M  V30 24 C -2.025769 -3.441312 -1.784371 0
M  V30 25 Cl -3.324998 -4.541506 -1.352968 0
M  V30 26 C -2.034797 -2.181986 -1.207167 0
M  V30 27 C 1.026866 1.104216 -0.356464 0
M  V30 28 C 1.286303 0.222011 0.663747 0
M  V30 29 C -0.793911 -1.400906 3.193545 0
M  V30 30 N -1.539041 -1.072539 4.259441 0
M  V30 31 H -1.622863 -1.506876 7.159632 0
M  V30 32 H -2.134426 0.099404 6.536297 0
M  V30 33 H -0.472743 -0.111235 7.181300 0
M  V30 34 H 1.290753 -1.117229 5.700306 0
M  V30 35 H 2.458207 -2.451015 3.626399 0
M  V30 36 H 1.654094 -2.406045 2.061094 0
M  V30 37 H 3.511971 -0.486619 3.089314 0
M  V30 38 H 4.140069 1.427857 1.887839 0
M  V30 39 H 0.473707 3.680573 -3.169076 0
M  V30 40 H -1.740356 0.289070 -0.297769 0
M  V30 41 H 0.790231 -0.874916 -2.637029 0
M  V30 42 H 0.789426 -3.168557 -3.675946 0
M  V30 43 H -2.800464 -1.875012 -0.519945 0
M  V30 44 H 0.568072 -0.548692 0.777077 0
M  V30 45 H -1.021850 -1.602391 2.161964 0
M  V30 END ATOM
M  V30 BEGIN BOND
M  V30 1 1 1 2
M  V30 2 1 2 3
M  V30 3 2 3 4
M  V30 4 1 4 5
M  V30 5 1 5 6
M  V30 6 1 6 7
M  V30 7 2 7 8
M  V30 8 1 8 9
M  V30 9 1 9 10
M  V30 10 2 9 11
M  V30 11 1 11 12
M  V30 12 2 12 13
M  V30 13 1 13 14
M  V30 14 1 14 15
M  V30 15 3 15 16
M  V30 16 2 14 17
M  V30 17 1 17 18
M  V30 18 1 18 19
M  V30 19 2 19 20
M  V30 20 1 20 21
M  V30 21 2 21 22
M  V30 22 1 22 23
M  V30 23 1 22 24
M  V30 24 1 24 25
M  V30 25 2 24 26
M  V30 26 1 17 27
M  V30 27 2 27 28
M  V30 28 1 4 29
M  V30 29 2 29 30
M  V30 30 1 30 2
M  V30 31 1 28 7
M  V30 32 1 27 11
M  V30 33 1 26 19
M  V30 34 1 1 31
M  V30 35 1 1 32
M  V30 36 1 1 33
M  V30 37 1 3 34
M  V30 38 1 5 35
M  V30 39 1 5 36
M  V30 40 1 6 37
M  V30 41 1 8 38
M  V30 42 1 13 39
M  V30 43 1 18 40
M  V30 44 1 20 41
M  V30 45 1 21 42
M  V30 46 1 26 43
M  V30 47 1 28 44
M  V30 48 1 29 45
M  V30 END BOND
M  V30 END CTAB
M  END
>  <Dataset>  (252) 
ChEMBL_Kinases

>  <Ligand_Instance>  (252) 
nan

>  <PDB_ID>  (252) 
nan

>  <Standardized_SMILES>  (252) 
Cn1cc(CNc2cc(Cl)c3ncc(C#N)c(Nc4ccc(F)c(Cl)c4)c3c2)cn1

>  <Name>  (252) 
nan

>  <Pocket>  (252) 
nan

>  <ATP_Site>  (252) 
nan

>  <Peripheral>  (252) 
nan

>  <Num_H_Atoms_ProtBoundConf>  (252) 
nan

>  <Num_Resolved_Atoms>  (252) 
nan

>  <Num_Not_Resolved_Atoms>  (252) 
nan

$$$$
CHEMBL397975
     RDKit          3D

  0  0  0  0  0  0  0  0  0  0999 V3000
M  V30 BEGIN CTAB
M  V30 COUNTS 59 63 0 0 0
M  V30 BEGIN ATOM
M  V30 1 C 1.335608 0.236016 6.507146 0
M  V30 2 O 0.766146 0.410161 5.215833 0
M  V30 3 C 1.565440 0.329757 4.064589 0
M  V30 4 N 2.883362 0.085555 4.165569 0
M  V30 5 C 3.629728 0.013037 3.030817 0
M  V30 6 N 4.943795 -0.222038 2.935675 0
M  V30 7 C 5.330541 -0.222157 1.655526 0
M  V30 8 C 4.165677 0.027891 0.980793 0
M  V30 9 C 4.044818 0.138877 -0.450812 0
M  V30 10 O 5.104162 -0.022376 -1.157531 0
M  V30 11 C 4.038418 0.227429 -1.871742 0
M  V30 12 O 2.888848 0.460442 -1.427706 0
M  V30 13 N 2.921142 0.532236 -2.692477 0
M  V30 14 C 1.531391 0.829880 -2.392766 0
M  V30 15 C 3.397308 0.509930 -4.083754 0
M  V30 16 C 3.061011 0.184953 1.787554 0
M  V30 17 C 1.714925 0.431036 1.747871 0
M  V30 18 C 0.906397 0.515613 2.862068 0
M  V30 19 C -0.520611 0.781277 2.742498 0
M  V30 20 O -1.050364 1.921892 2.730639 0
M  V30 21 N -1.383100 -0.341245 2.630811 0
M  V30 22 C -2.819655 -0.283875 2.506732 0
M  V30 23 C -3.218944 -0.744182 1.125493 0
M  V30 24 N -2.472899 -1.857976 0.633220 0
M  V30 25 C -1.427059 -2.293787 1.349637 0
M  V30 26 C -0.894281 -3.356863 0.686765 0
M  V30 27 N -1.647891 -3.514448 -0.407626 0
M  V30 28 C -2.636114 -2.585954 -0.454447 0
M  V30 29 C -3.575974 -2.573037 -1.560337 0
M  V30 30 C -4.567803 -1.661417 -1.752647 0
M  V30 31 C -5.461789 -1.665833 -2.802998 0
M  V30 32 C -5.378543 -2.652015 -3.752226 0
M  V30 33 F -6.244030 -2.673054 -4.790399 0
M  V30 34 C -4.400568 -3.599443 -3.614432 0
M  V30 35 C -3.548812 -3.538057 -2.553258 0
M  V30 36 F -2.606306 -4.538734 -2.510166 0
M  V30 37 C -0.938642 -1.714746 2.627154 0
M  V30 38 H 1.265080 -0.837624 6.754031 0
M  V30 39 H 2.411337 0.494189 6.490060 0
M  V30 40 H 0.860786 0.897136 7.256791 0
M  V30 41 H 5.642907 -0.393314 3.722093 0
M  V30 42 H 6.308921 -0.377391 1.223642 0
M  V30 43 H 1.018672 -0.068810 -2.041560 0
M  V30 44 H 1.087759 1.232357 -3.337324 0
M  V30 45 H 1.472727 1.689583 -1.664267 0
M  V30 46 H 3.576721 -0.533129 -4.353107 0
M  V30 47 H 2.595743 0.924015 -4.740199 0
M  V30 48 H 4.266327 1.157565 -4.165503 0
M  V30 49 H 1.296066 0.560101 0.780908 0
M  V30 50 H -3.262905 -0.932003 3.297023 0
M  V30 51 H -3.123967 0.751958 2.691415 0
M  V30 52 H -3.196652 0.136296 0.482931 0
M  V30 53 H -4.297628 -1.068017 1.207486 0
M  V30 54 H -0.061469 -4.018895 0.872861 0
M  V30 55 H -4.707561 -0.852294 -1.070382 0
M  V30 56 H -6.232870 -0.922107 -2.914290 0
M  V30 57 H -4.339969 -4.368735 -4.361221 0
M  V30 58 H 0.156045 -1.809065 2.740328 0
M  V30 59 H -1.502539 -2.251497 3.426764 0
M  V30 END ATOM
M  V30 BEGIN BOND
M  V30 1 1 1 2
M  V30 2 1 2 3
M  V30 3 2 3 4
M  V30 4 1 4 5
M  V30 5 1 5 6
M  V30 6 1 6 7
M  V30 7 2 7 8
M  V30 8 1 8 9
M  V30 9 2 9 10
M  V30 10 1 9 11
M  V30 11 2 11 12
M  V30 12 1 11 13
M  V30 13 1 13 14
M  V30 14 1 13 15
M  V30 15 1 8 16
M  V30 16 1 16 17
M  V30 17 2 17 18
M  V30 18 1 18 19
M  V30 19 2 19 20
M  V30 20 1 19 21
M  V30 21 1 21 22
M  V30 22 1 22 23
M  V30 23 1 23 24
M  V30 24 1 24 25
M  V30 25 2 25 26
M  V30 26 1 26 27
M  V30 27 2 27 28
M  V30 28 1 28 29
M  V30 29 2 29 30
M  V30 30 1 30 31
M  V30 31 2 31 32
M  V30 32 1 32 33
M  V30 33 1 32 34
M  V30 34 2 34 35
M  V30 35 1 35 36
M  V30 36 1 25 37
M  V30 37 1 18 3
M  V30 38 1 37 21
M  V30 39 2 16 5
M  V30 40 1 28 24
M  V30 41 1 35 29
M  V30 42 1 1 38
M  V30 43 1 1 39
M  V30 44 1 1 40
M  V30 45 1 6 41
M  V30 46 1 7 42
M  V30 47 1 14 43
M  V30 48 1 14 44
M  V30 49 1 14 45
M  V30 50 1 15 46
M  V30 51 1 15 47
M  V30 52 1 15 48
M  V30 53 1 17 49
M  V30 54 1 22 50
M  V30 55 1 22 51
M  V30 56 1 23 52
M  V30 57 1 23 53
M  V30 58 1 26 54
M  V30 59 1 30 55
M  V30 60 1 31 56
M  V30 61 1 34 57
M  V30 62 1 37 58
M  V30 63 1 37 59
M  V30 END BOND
M  V30 END CTAB
M  END
>  <Dataset>  (253) 
ChEMBL_Kinases

>  <Ligand_Instance>  (253) 
nan

>  <PDB_ID>  (253) 
nan

>  <Standardized_SMILES>  (253) 
COc1nc2[nH]cc(C(=O)C(=O)N(C)C)c2cc1C(=O)N1CCn2c(cnc2-c2ccc(F)cc2F)C1

>  <Name>  (253) 
nan

>  <Pocket>  (253) 
nan

>  <ATP_Site>  (253) 
nan

>  <Peripheral>  (253) 
nan

>  <Num_H_Atoms_ProtBoundConf>  (253) 
nan

>  <Num_Resolved_Atoms>  (253) 
nan

>  <Num_Not_Resolved_Atoms>  (253) 
nan

$$$$
CHEMBL3982784
     RDKit          3D

  0  0  0  0  0  0  0  0  0  0999 V3000
M  V30 BEGIN CTAB
M  V30 COUNTS 44 48 0 0 0
M  V30 BEGIN ATOM
M  V30 1 O -2.365811 -1.217556 5.547258 0
M  V30 2 C -1.590864 -1.749394 4.703443 0
M  V30 3 C -0.933152 -3.085625 4.730749 0
M  V30 4 O 0.423216 -3.024351 4.307240 0
M  V30 5 C 0.749518 -2.266422 3.166642 0
M  V30 6 C 1.892787 -2.547552 2.449185 0
M  V30 7 C 2.220707 -1.811248 1.331455 0
M  V30 8 C 1.379319 -0.788616 0.948709 0
M  V30 9 C 1.527137 0.144333 -0.223279 0
M  V30 10 O 2.573560 -0.169137 -1.042202 0
M  V30 11 C 1.677775 1.507507 0.396046 0
M  V30 12 C 2.747423 1.852160 1.162083 0
M  V30 13 C 2.798232 3.133291 1.693606 0
M  V30 14 C 1.789544 4.039934 1.453510 0
M  V30 15 C 0.718001 3.631920 0.661326 0
M  V30 16 C 0.630063 2.372955 0.116525 0
M  V30 17 C -0.270488 1.598599 -0.719602 0
M  V30 18 O -1.333580 2.119686 -1.143706 0
M  V30 19 N 0.262691 0.293406 -0.916709 0
M  V30 20 C -0.328844 -0.747826 -1.679021 0
M  V30 21 C -1.527485 -0.645228 -2.343865 0
M  V30 22 C -2.115047 -1.646908 -3.088810 0
M  V30 23 F -3.306101 -1.470211 -3.719670 0
M  V30 24 C -1.464557 -2.862541 -3.190026 0
M  V30 25 C -0.253784 -3.035199 -2.546066 0
M  V30 26 F 0.373983 -4.231198 -2.652017 0
M  V30 27 C 0.265227 -1.982035 -1.820933 0
M  V30 28 C 0.216715 -0.498888 1.674089 0
M  V30 29 C -0.118457 -1.242982 2.807051 0
M  V30 30 N -1.301783 -0.954588 3.553921 0
M  V30 31 H -1.560001 -3.744821 4.099025 0
M  V30 32 H -0.918361 -3.487322 5.763291 0
M  V30 33 H 2.572282 -3.340458 2.721100 0
M  V30 34 H 3.077952 -1.931226 0.691990 0
M  V30 35 H 3.128236 0.592132 -1.335444 0
M  V30 36 H 3.594013 1.237741 1.420870 0
M  V30 37 H 3.616914 3.467935 2.307633 0
M  V30 38 H 1.833021 5.028655 1.866473 0
M  V30 39 H -0.108875 4.308301 0.438011 0
M  V30 40 H -2.088192 0.273178 -2.308314 0
M  V30 41 H -1.861394 -3.696571 -3.753443 0
M  V30 42 H 1.213492 -2.205935 -1.352309 0
M  V30 43 H -0.496913 0.290494 1.436931 0
M  V30 44 H -1.940237 -0.179211 3.264845 0
M  V30 END ATOM
M  V30 BEGIN BOND
M  V30 1 2 1 2
M  V30 2 1 2 3
M  V30 3 1 3 4
M  V30 4 1 4 5
M  V30 5 2 5 6
M  V30 6 1 6 7
M  V30 7 2 7 8
M  V30 8 1 8 9
M  V30 9 1 9 10
M  V30 10 1 9 11
M  V30 11 2 11 12
M  V30 12 1 12 13
M  V30 13 2 13 14
M  V30 14 1 14 15
M  V30 15 2 15 16
M  V30 16 1 16 17
M  V30 17 2 17 18
M  V30 18 1 17 19
M  V30 19 1 19 20
M  V30 20 2 20 21
M  V30 21 1 21 22
M  V30 22 1 22 23
M  V30 23 2 22 24
M  V30 24 1 24 25
M  V30 25 1 25 26
M  V30 26 2 25 27
M  V30 27 1 8 28
M  V30 28 2 28 29
M  V30 29 1 29 30
M  V30 30 1 30 2
M  V30 31 1 29 5
M  V30 32 1 19 9
M  V30 33 1 27 20
M  V30 34 1 16 11
M  V30 35 1 3 31
M  V30 36 1 3 32
M  V30 37 1 6 33
M  V30 38 1 7 34
M  V30 39 1 10 35
M  V30 40 1 12 36
M  V30 41 1 13 37
M  V30 42 1 14 38
M  V30 43 1 15 39
M  V30 44 1 21 40
M  V30 45 1 24 41
M  V30 46 1 27 42
M  V30 47 1 28 43
M  V30 48 1 30 44
M  V30 END BOND
M  V30 END CTAB
M  END
>  <Dataset>  (254) 
ChEMBL_Kinases

>  <Ligand_Instance>  (254) 
nan

>  <PDB_ID>  (254) 
nan

>  <Standardized_SMILES>  (254) 
O=C1COc2ccc(C3(O)c4ccccc4C(=O)N3c3cc(F)cc(F)c3)cc2N1

>  <Name>  (254) 
nan

>  <Pocket>  (254) 
nan

>  <ATP_Site>  (254) 
nan

>  <Peripheral>  (254) 
nan

>  <Num_H_Atoms_ProtBoundConf>  (254) 
nan

>  <Num_Resolved_Atoms>  (254) 
nan

>  <Num_Not_Resolved_Atoms>  (254) 
nan

$$$$
CHEMBL4867033
     RDKit          3D

  0  0  0  0  0  0  0  0  0  0999 V3000
M  V30 BEGIN CTAB
M  V30 COUNTS 47 50 0 0 0
M  V30 BEGIN ATOM
M  V30 1 N 6.037825 -2.320799 4.345204 0
M  V30 2 C 5.930286 -2.016927 3.232263 0
M  V30 3 C 5.793994 -1.624484 1.859595 0
M  V30 4 C 6.877057 -1.869453 1.047824 0
M  V30 5 C 6.795803 -1.507802 -0.288690 0
M  V30 6 C 5.646795 -0.916535 -0.776707 0
M  V30 7 N 5.548195 -0.554577 -2.084912 0
M  V30 8 C 4.421302 0.020342 -2.542357 0
M  V30 9 N 3.385714 0.242795 -1.717998 0
M  V30 10 C 3.379315 -0.075684 -0.411712 0
M  V30 11 N 2.262209 0.184132 0.393661 0
M  V30 12 C 1.098376 0.809517 -0.203353 0
M  V30 13 C -0.005066 1.021295 0.770335 0
M  V30 14 C 0.022196 2.243922 1.437954 0
M  V30 15 C -0.937202 2.567949 2.364671 0
M  V30 16 C -1.935285 1.631257 2.610997 0
M  V30 17 Cl -3.203829 1.977050 3.789640 0
M  V30 18 C -1.990238 0.413686 1.967634 0
M  V30 19 C -3.024207 -0.584600 2.208807 0
M  V30 20 O -2.861854 -1.474832 3.110193 0
M  V30 21 N -4.288132 -0.810657 1.611687 0
M  V30 22 C -5.017555 -1.937613 2.159535 0
M  V30 23 C -5.609937 -2.792432 1.036092 0
M  V30 24 O -6.321479 -2.017439 0.124154 0
M  V30 25 C -5.357498 -1.203539 -0.505281 0
M  V30 26 C -5.024723 -0.129792 0.537661 0
M  V30 27 C -1.001350 0.112523 1.031003 0
M  V30 28 C 4.547944 -0.662750 0.025503 0
M  V30 29 C 4.668555 -1.032752 1.330141 0
M  V30 30 H 7.784091 -2.326973 1.395795 0
M  V30 31 H 7.622350 -1.683110 -0.954985 0
M  V30 32 H 4.235041 0.345932 -3.556031 0
M  V30 33 H 2.165310 -0.026234 1.405267 0
M  V30 34 H 0.746087 0.126665 -1.015171 0
M  V30 35 H 1.423829 1.756104 -0.678731 0
M  V30 36 H 0.786413 3.006427 1.274733 0
M  V30 37 H -0.918116 3.528070 2.890457 0
M  V30 38 H -4.409784 -2.624648 2.757454 0
M  V30 39 H -5.891931 -1.607235 2.762892 0
M  V30 40 H -4.774685 -3.280145 0.469686 0
M  V30 41 H -6.210812 -3.583251 1.515803 0
M  V30 42 H -5.743948 -0.679104 -1.386708 0
M  V30 43 H -4.465500 -1.799608 -0.772896 0
M  V30 44 H -6.025024 0.187239 0.933323 0
M  V30 45 H -4.466474 0.714376 0.107217 0
M  V30 46 H -0.980616 -0.813928 0.492797 0
M  V30 47 H 3.876647 -0.876646 2.017151 0
M  V30 END ATOM
M  V30 BEGIN BOND
M  V30 1 3 1 2
M  V30 2 1 2 3
M  V30 3 2 3 4
M  V30 4 1 4 5
M  V30 5 2 5 6
M  V30 6 1 6 7
M  V30 7 2 7 8
M  V30 8 1 8 9
M  V30 9 2 9 10
M  V30 10 1 10 11
M  V30 11 1 11 12
M  V30 12 1 12 13
M  V30 13 2 13 14
M  V30 14 1 14 15
M  V30 15 2 15 16
M  V30 16 1 16 17
M  V30 17 1 16 18
M  V30 18 1 18 19
M  V30 19 2 19 20
M  V30 20 1 19 21
M  V30 21 1 21 22
M  V30 22 1 22 23
M  V30 23 1 23 24
M  V30 24 1 24 25
M  V30 25 1 25 26
M  V30 26 2 18 27
M  V30 27 1 10 28
M  V30 28 2 28 29
M  V30 29 1 29 3
M  V30 30 1 28 6
M  V30 31 1 27 13
M  V30 32 1 26 21
M  V30 33 1 4 30
M  V30 34 1 5 31
M  V30 35 1 8 32
M  V30 36 1 11 33
M  V30 37 1 12 34
M  V30 38 1 12 35
M  V30 39 1 14 36
M  V30 40 1 15 37
M  V30 41 1 22 38
M  V30 42 1 22 39
M  V30 43 1 23 40
M  V30 44 1 23 41
M  V30 45 1 25 42
M  V30 46 1 25 43
M  V30 47 1 26 44
M  V30 48 1 26 45
M  V30 49 1 27 46
M  V30 50 1 29 47
M  V30 END BOND
M  V30 END CTAB
M  END
>  <Dataset>  (255) 
ChEMBL_Kinases

>  <Ligand_Instance>  (255) 
nan

>  <PDB_ID>  (255) 
nan

>  <Standardized_SMILES>  (255) 
N#Cc1ccc2ncnc(NCc3ccc(Cl)c(C(=O)N4CCOCC4)c3)c2c1

>  <Name>  (255) 
nan

>  <Pocket>  (255) 
nan

>  <ATP_Site>  (255) 
nan

>  <Peripheral>  (255) 
nan

>  <Num_H_Atoms_ProtBoundConf>  (255) 
nan

>  <Num_Resolved_Atoms>  (255) 
nan

>  <Num_Not_Resolved_Atoms>  (255) 
nan

$$$$
CHEMBL3982679
     RDKit          3D

  0  0  0  0  0  0  0  0  0  0999 V3000
M  V30 BEGIN CTAB
M  V30 COUNTS 36 39 0 0 0
M  V30 BEGIN ATOM
M  V30 1 C -0.513407 -4.024955 -0.315570 0
M  V30 2 C 0.119221 -2.888226 -0.135052 0
M  V30 3 C -0.600551 -1.699180 0.316719 0
M  V30 4 N -1.919810 -1.675766 0.574576 0
M  V30 5 N -2.279109 -0.446008 0.967508 0
M  V30 6 C -1.155732 0.294004 0.948339 0
M  V30 7 C -0.940671 1.634037 1.260825 0
M  V30 8 C 0.336922 2.187516 1.163253 0
M  V30 9 C 0.587441 3.598168 1.487749 0
M  V30 10 C 1.546593 4.405996 0.911708 0
M  V30 11 C 1.669956 5.726303 1.319073 0
M  V30 12 N 0.854983 6.196364 2.266220 0
M  V30 13 C -0.083061 5.434916 2.840953 0
M  V30 14 C -0.259084 4.101994 2.477773 0
M  V30 15 C 1.381030 1.382196 0.751754 0
M  V30 16 C 1.219959 0.030655 0.425865 0
M  V30 17 C -0.065558 -0.448723 0.544538 0
M  V30 18 C 0.053824 -5.290793 -0.758573 0
M  V30 19 C -0.533588 -6.521641 -0.970938 0
M  V30 20 C 0.476087 -7.369356 -1.389262 0
M  V30 21 C 1.652959 -6.625045 -1.418919 0
M  V30 22 N 1.362835 -5.357846 -1.028086 0
M  V30 23 H -1.592986 -4.043237 -0.115130 0
M  V30 24 H 1.179893 -2.898575 -0.339707 0
M  V30 25 H -3.231377 -0.112157 1.237288 0
M  V30 26 H -1.734879 2.311730 1.591022 0
M  V30 27 H 2.160671 3.944325 0.155127 0
M  V30 28 H 2.443765 6.275304 0.813902 0
M  V30 29 H -0.702243 5.902636 3.604471 0
M  V30 30 H -1.041756 3.601132 3.010722 0
M  V30 31 H 2.393278 1.805031 0.670068 0
M  V30 32 H 2.049425 -0.585409 0.105445 0
M  V30 33 H -1.598351 -6.627360 -0.794171 0
M  V30 34 H 0.240991 -8.411854 -1.619915 0
M  V30 35 H 2.528805 -7.186244 -1.735865 0
M  V30 36 H 2.207190 -4.746802 -1.028726 0
M  V30 END ATOM
M  V30 BEGIN BOND
M  V30 1 2 1 2
M  V30 2 1 2 3
M  V30 3 2 3 4
M  V30 4 1 4 5
M  V30 5 1 5 6
M  V30 6 2 6 7
M  V30 7 1 7 8
M  V30 8 1 8 9
M  V30 9 2 9 10
M  V30 10 1 10 11
M  V30 11 2 11 12
M  V30 12 1 12 13
M  V30 13 2 13 14
M  V30 14 2 8 15
M  V30 15 1 15 16
M  V30 16 2 16 17
M  V30 17 1 1 18
M  V30 18 2 18 19
M  V30 19 1 19 20
M  V30 20 2 20 21
M  V30 21 1 21 22
M  V30 22 1 17 3
M  V30 23 1 22 18
M  V30 24 1 17 6
M  V30 25 1 14 9
M  V30 26 1 1 23
M  V30 27 1 2 24
M  V30 28 1 5 25
M  V30 29 1 7 26
M  V30 30 1 10 27
M  V30 31 1 11 28
M  V30 32 1 13 29
M  V30 33 1 14 30
M  V30 34 1 15 31
M  V30 35 1 16 32
M  V30 36 1 19 33
M  V30 37 1 20 34
M  V30 38 1 21 35
M  V30 39 1 22 36
M  V30 END BOND
M  V30 END CTAB
M  END
>  <Dataset>  (256) 
ChEMBL_Kinases

>  <Ligand_Instance>  (256) 
nan

>  <PDB_ID>  (256) 
nan

>  <Standardized_SMILES>  (256) 
C(=C/c1n[nH]c2cc(-c3ccncc3)ccc12)\c1ccc[nH]1

>  <Name>  (256) 
nan

>  <Pocket>  (256) 
nan

>  <ATP_Site>  (256) 
nan

>  <Peripheral>  (256) 
nan

>  <Num_H_Atoms_ProtBoundConf>  (256) 
nan

>  <Num_Resolved_Atoms>  (256) 
nan

>  <Num_Not_Resolved_Atoms>  (256) 
nan

$$$$
CHEMBL9352
     RDKit          3D

  0  0  0  0  0  0  0  0  0  0999 V3000
M  V30 BEGIN CTAB
M  V30 COUNTS 32 34 0 0 0
M  V30 BEGIN ATOM
M  V30 1 O -1.511553 -0.712839 3.183210 0
M  V30 2 C -0.332731 -0.902069 2.756720 0
M  V30 3 C 0.508958 -2.138340 2.906426 0
M  V30 4 C 1.325370 -2.275452 1.613725 0 CFG=1
M  V30 5 C 0.363150 -2.316155 0.478515 0
M  V30 6 C -0.976897 -2.652641 0.548607 0
M  V30 7 C -1.737738 -2.641472 -0.604896 0
M  V30 8 C -1.178172 -2.300166 -1.819093 0
M  V30 9 O -1.965306 -2.294128 -2.979891 0
M  V30 10 C 0.156927 -1.961181 -1.911015 0
M  V30 11 C 0.935504 -1.969168 -0.750928 0
M  V30 12 O 2.117133 -1.100245 1.568096 0
M  V30 13 C 1.479616 0.127203 1.444305 0
M  V30 14 C 2.061245 1.195221 0.751404 0
M  V30 15 C 1.378591 2.409178 0.655829 0
M  V30 16 O 2.062975 3.384845 -0.055970 0
M  V30 17 C 0.138258 2.515200 1.255519 0
M  V30 18 C -0.406791 1.443804 1.930825 0
M  V30 19 O -1.652006 1.618042 2.507903 0
M  V30 20 C 0.241607 0.228676 2.044473 0
M  V30 21 H 1.262854 -1.926750 3.696701 0
M  V30 22 H -0.071194 -3.030825 3.138194 0
M  V30 23 H 1.969288 -3.166975 1.651051 0
M  V30 24 H -1.345121 -2.909160 1.535950 0
M  V30 25 H -2.776759 -2.911984 -0.493835 0
M  V30 26 H -2.650821 -1.569784 -3.173761 0
M  V30 27 H 0.614350 -1.687816 -2.870341 0
M  V30 28 H 1.985892 -1.692900 -0.879685 0
M  V30 29 H 3.050860 1.039427 0.299158 0
M  V30 30 H 1.486248 4.182244 -0.355168 0
M  V30 31 H -0.332300 3.481579 1.141904 0
M  V30 32 H -2.503550 1.190335 2.193442 0
M  V30 END ATOM
M  V30 BEGIN BOND
M  V30 1 2 1 2
M  V30 2 1 2 3
M  V30 3 1 3 4
M  V30 4 1 4 5
M  V30 5 2 5 6
M  V30 6 1 6 7
M  V30 7 2 7 8
M  V30 8 1 8 9
M  V30 9 1 8 10
M  V30 10 2 10 11
M  V30 11 1 4 12
M  V30 12 1 12 13
M  V30 13 2 13 14
M  V30 14 1 14 15
M  V30 15 1 15 16
M  V30 16 2 15 17
M  V30 17 1 17 18
M  V30 18 1 18 19
M  V30 19 2 18 20
M  V30 20 1 20 2
M  V30 21 1 11 5
M  V30 22 1 20 13
M  V30 23 1 3 21
M  V30 24 1 3 22
M  V30 25 1 4 23 CFG=1
M  V30 26 1 6 24
M  V30 27 1 7 25
M  V30 28 1 9 26
M  V30 29 1 10 27
M  V30 30 1 11 28
M  V30 31 1 14 29
M  V30 32 1 16 30
M  V30 33 1 17 31
M  V30 34 1 19 32
M  V30 END BOND
M  V30 END CTAB
M  END
>  <Dataset>  (257) 
ChEMBL_Kinases

>  <Ligand_Instance>  (257) 
nan

>  <PDB_ID>  (257) 
nan

>  <Standardized_SMILES>  (257) 
O=C1C[C@@H](c2ccc(O)cc2)Oc2cc(O)cc(O)c21

>  <Name>  (257) 
NARINGENIN

>  <Pocket>  (257) 
nan

>  <ATP_Site>  (257) 
nan

>  <Peripheral>  (257) 
nan

>  <Num_H_Atoms_ProtBoundConf>  (257) 
nan

>  <Num_Resolved_Atoms>  (257) 
nan

>  <Num_Not_Resolved_Atoms>  (257) 
nan

$$$$
CHEMBL398261
     RDKit          3D

  0  0  0  0  0  0  0  0  0  0999 V3000
M  V30 BEGIN CTAB
M  V30 COUNTS 30 32 0 0 0
M  V30 BEGIN ATOM
M  V30 1 C -0.126285 -2.774180 -0.490609 0
M  V30 2 C -0.189469 -1.483619 0.234396 0
M  V30 3 C 0.850413 -0.888706 0.901611 0
M  V30 4 C 2.229949 -1.251989 1.120465 0
M  V30 5 C 3.062793 -0.438119 1.858003 0
M  V30 6 C 4.389187 -0.725638 2.103189 0
M  V30 7 N 4.965202 -1.843248 1.627043 0
M  V30 8 C 4.203970 -2.693200 0.890656 0
M  V30 9 C 2.887029 -2.364635 0.672500 0
M  V30 10 N 0.361062 0.254304 1.410509 0
M  V30 11 C -0.935448 0.415268 1.100725 0
M  V30 12 C -1.302822 -0.680314 0.352547 0
M  V30 13 C -2.673155 -0.770267 -0.137583 0
M  V30 14 O -3.063769 -1.749551 -0.823788 0
M  V30 15 N -3.545856 0.314353 0.205395 0
M  V30 16 C -2.936493 1.608002 0.360374 0
M  V30 17 C -1.892254 1.508201 1.446818 0
M  V30 18 H 0.124529 -3.611274 0.201732 0
M  V30 19 H -1.143820 -3.005430 -0.893779 0
M  V30 20 H 0.577598 -2.776355 -1.336843 0
M  V30 21 H 2.759054 0.493205 2.309843 0
M  V30 22 H 5.037831 -0.088259 2.679723 0
M  V30 23 H 4.655271 -3.591662 0.504208 0
M  V30 24 H 2.375051 -3.092618 0.084680 0
M  V30 25 H 0.842753 1.000667 1.991673 0
M  V30 26 H -4.563096 0.112357 0.321916 0
M  V30 27 H -2.385058 1.861817 -0.568150 0
M  V30 28 H -3.677695 2.406931 0.570392 0
M  V30 29 H -1.351184 2.497555 1.435803 0
M  V30 30 H -2.332412 1.339263 2.449456 0
M  V30 END ATOM
M  V30 BEGIN BOND
M  V30 1 1 1 2
M  V30 2 2 2 3
M  V30 3 1 3 4
M  V30 4 2 4 5
M  V30 5 1 5 6
M  V30 6 2 6 7
M  V30 7 1 7 8
M  V30 8 2 8 9
M  V30 9 1 3 10
M  V30 10 1 10 11
M  V30 11 2 11 12
M  V30 12 1 12 13
M  V30 13 2 13 14
M  V30 14 1 13 15
M  V30 15 1 15 16
M  V30 16 1 16 17
M  V30 17 1 12 2
M  V30 18 1 9 4
M  V30 19 1 17 11
M  V30 20 1 1 18
M  V30 21 1 1 19
M  V30 22 1 1 20
M  V30 23 1 5 21
M  V30 24 1 6 22
M  V30 25 1 8 23
M  V30 26 1 9 24
M  V30 27 1 10 25
M  V30 28 1 15 26
M  V30 29 1 16 27
M  V30 30 1 16 28
M  V30 31 1 17 29
M  V30 32 1 17 30
M  V30 END BOND
M  V30 END CTAB
M  END
>  <Dataset>  (258) 
ChEMBL_Kinases

>  <Ligand_Instance>  (258) 
nan

>  <PDB_ID>  (258) 
nan

>  <Standardized_SMILES>  (258) 
Cc1c(-c2ccncc2)[nH]c2c1C(=O)NCC2

>  <Name>  (258) 
nan

>  <Pocket>  (258) 
nan

>  <ATP_Site>  (258) 
nan

>  <Peripheral>  (258) 
nan

>  <Num_H_Atoms_ProtBoundConf>  (258) 
nan

>  <Num_Resolved_Atoms>  (258) 
nan

>  <Num_Not_Resolved_Atoms>  (258) 
nan

$$$$
CHEMBL9249
     RDKit          3D

  0  0  0  0  0  0  0  0  0  0999 V3000
M  V30 BEGIN CTAB
M  V30 COUNTS 34 36 0 0 0
M  V30 BEGIN ATOM
M  V30 1 O 2.930249 0.573987 1.778410 0
M  V30 2 C 2.103239 0.516924 0.819416 0
M  V30 3 C 1.881123 -0.770256 0.153482 0
M  V30 4 C 2.629859 -1.877292 0.543319 0
M  V30 5 O 3.574052 -1.766994 1.547999 0
M  V30 6 C 2.416465 -3.102580 -0.092605 0
M  V30 7 C 1.468472 -3.180241 -1.090061 0
M  V30 8 O 1.339200 -4.442010 -1.652244 0
M  V30 9 C 0.725267 -2.086449 -1.478747 0
M  V30 10 C 0.929288 -0.888655 -0.861787 0
M  V30 11 O 0.216719 0.252591 -1.202928 0
M  V30 12 C -0.010976 1.269408 -0.237783 0 CFG=1
M  V30 13 C -0.957517 0.751012 0.742574 0
M  V30 14 C -0.933833 0.822186 2.117225 0
M  V30 15 C -1.926628 0.268241 2.899539 0
M  V30 16 C -2.992283 -0.384850 2.333125 0
M  V30 17 O -4.003547 -0.950404 3.098709 0
M  V30 18 C -3.041988 -0.471546 0.954876 0
M  V30 19 O -4.124470 -1.134573 0.388553 0
M  V30 20 C -2.045738 0.084337 0.170081 0
M  V30 21 C 1.319672 1.674073 0.299703 0 CFG=1
M  V30 22 O 1.309534 2.709558 1.202338 0
M  V30 23 H 4.499291 -1.402983 1.301182 0
M  V30 24 H 3.034482 -3.924885 0.260327 0
M  V30 25 H 0.745187 -5.108489 -1.140025 0
M  V30 26 H -0.005096 -2.205131 -2.267261 0
M  V30 27 H -0.419018 2.136174 -0.805140 0
M  V30 28 H -0.071858 1.347579 2.506379 0
M  V30 29 H -1.844758 0.361183 3.971345 0
M  V30 30 H -4.932253 -0.528639 3.117821 0
M  V30 31 H -4.060120 -1.377919 -0.607076 0
M  V30 32 H -2.187493 -0.043822 -0.897712 0
M  V30 33 H 1.907782 2.049243 -0.583047 0
M  V30 34 H 0.526087 3.287736 1.168257 0
M  V30 END ATOM
M  V30 BEGIN BOND
M  V30 1 2 1 2
M  V30 2 1 2 3
M  V30 3 2 3 4
M  V30 4 1 4 5
M  V30 5 1 4 6
M  V30 6 2 6 7
M  V30 7 1 7 8
M  V30 8 1 7 9
M  V30 9 2 9 10
M  V30 10 1 10 11
M  V30 11 1 11 12
M  V30 12 1 12 13
M  V30 13 2 13 14
M  V30 14 1 14 15
M  V30 15 2 15 16
M  V30 16 1 16 17
M  V30 17 1 16 18
M  V30 18 1 18 19
M  V30 19 2 18 20
M  V30 20 1 12 21
M  V30 21 1 21 22
M  V30 22 1 21 2
M  V30 23 1 10 3
M  V30 24 1 20 13
M  V30 25 1 5 23
M  V30 26 1 6 24
M  V30 27 1 8 25
M  V30 28 1 9 26
M  V30 29 1 12 27 CFG=3
M  V30 30 1 14 28
M  V30 31 1 15 29
M  V30 32 1 17 30
M  V30 33 1 19 31
M  V30 34 1 20 32
M  V30 35 1 21 33 CFG=3
M  V30 36 1 22 34
M  V30 END BOND
M  V30 END CTAB
M  END
>  <Dataset>  (259) 
ChEMBL_Kinases

>  <Ligand_Instance>  (259) 
nan

>  <PDB_ID>  (259) 
nan

>  <Standardized_SMILES>  (259) 
O=C1c2c(O)cc(O)cc2O[C@@H](c2ccc(O)c(O)c2)[C@H]1O

>  <Name>  (259) 
(+)-EPITAXIFOLIN

>  <Pocket>  (259) 
nan

>  <ATP_Site>  (259) 
nan

>  <Peripheral>  (259) 
nan

>  <Num_H_Atoms_ProtBoundConf>  (259) 
nan

>  <Num_Resolved_Atoms>  (259) 
nan

>  <Num_Not_Resolved_Atoms>  (259) 
nan

$$$$
CHEMBL398253
     RDKit          3D

  0  0  0  0  0  0  0  0  0  0999 V3000
M  V30 BEGIN CTAB
M  V30 COUNTS 50 53 0 0 0
M  V30 BEGIN ATOM
M  V30 1 C 2.206183 4.620425 -1.724905 0
M  V30 2 N 3.162942 3.650275 -1.227234 0
M  V30 3 C 2.947101 2.231649 -1.053932 0
M  V30 4 N 1.743245 1.797756 -1.391547 0
M  V30 5 C 1.448675 0.478836 -1.262650 0
M  V30 6 C 0.251385 -0.119627 -1.569308 0
M  V30 7 C 0.139179 -1.451990 -1.375460 0
M  V30 8 C -0.945568 -2.399813 -1.582569 0
M  V30 9 C -0.726412 -3.731653 -1.275223 0
M  V30 10 C -1.802944 -4.563628 -1.499671 0
M  V30 11 C -3.028565 -4.115521 -1.998397 0
M  V30 12 C -3.179020 -2.754770 -2.287205 0
M  V30 13 C -4.499874 -2.318184 -2.816597 0
M  V30 14 C -5.375959 -1.945974 -1.622216 0
M  V30 15 N -4.792251 -0.888157 -0.863084 0
M  V30 16 C -5.555298 -0.468896 0.290430 0
M  V30 17 C -4.836533 0.638326 0.991925 0
M  V30 18 N -3.598096 1.279626 0.693070 0
M  V30 19 O -5.531329 0.988809 2.005066 0
M  V30 20 C -2.111841 -1.911377 -2.067958 0
M  V30 21 S 1.729991 -1.915735 -0.748456 0
M  V30 22 C 2.443584 -0.294140 -0.786285 0
M  V30 23 N 3.671785 0.168914 -0.445399 0
M  V30 24 C 4.729866 -0.490808 0.032909 0
M  V30 25 C 4.869049 -1.939884 0.333417 0
M  V30 26 C 5.746745 0.453256 0.217364 0
M  V30 27 N 5.231011 1.657023 -0.169635 0
M  V30 28 C 3.979125 1.468605 -0.566558 0
M  V30 29 H 2.023185 5.337383 -0.893050 0
M  V30 30 H 2.608157 5.139498 -2.627833 0
M  V30 31 H 1.228676 4.169169 -1.990511 0
M  V30 32 H 4.085953 4.067202 -0.983045 0
M  V30 33 H -0.639005 0.365321 -1.959552 0
M  V30 34 H 0.207786 -4.098722 -0.890635 0
M  V30 35 H -1.687334 -5.620875 -1.275726 0
M  V30 36 H -3.801727 -4.872608 -2.131775 0
M  V30 37 H -4.409986 -1.381110 -3.426050 0
M  V30 38 H -4.949982 -3.149514 -3.371803 0
M  V30 39 H -5.440076 -2.842620 -0.948391 0
M  V30 40 H -6.385487 -1.645611 -1.927019 0
M  V30 41 H -4.359129 -0.120646 -1.379402 0
M  V30 42 H -6.571635 -0.186420 -0.036359 0
M  V30 43 H -5.668793 -1.298919 1.018181 0
M  V30 44 H -3.429345 1.938351 -0.103867 0
M  V30 45 H -2.667122 1.241609 1.156804 0
M  V30 46 H -2.260443 -0.864575 -2.301403 0
M  V30 47 H 5.934411 -2.258263 0.282381 0
M  V30 48 H 4.471146 -2.210408 1.325456 0
M  V30 49 H 4.339467 -2.465151 -0.502030 0
M  V30 50 H 6.739795 0.287314 0.587223 0
M  V30 END ATOM
M  V30 BEGIN BOND
M  V30 1 1 1 2
M  V30 2 1 2 3
M  V30 3 2 3 4
M  V30 4 1 4 5
M  V30 5 1 5 6
M  V30 6 2 6 7
M  V30 7 1 7 8
M  V30 8 2 8 9
M  V30 9 1 9 10
M  V30 10 2 10 11
M  V30 11 1 11 12
M  V30 12 1 12 13
M  V30 13 1 13 14
M  V30 14 1 14 15
M  V30 15 1 15 16
M  V30 16 1 16 17
M  V30 17 1 17 18
M  V30 18 2 17 19
M  V30 19 2 12 20
M  V30 20 1 7 21
M  V30 21 1 21 22
M  V30 22 1 22 23
M  V30 23 1 23 24
M  V30 24 1 24 25
M  V30 25 2 24 26
M  V30 26 1 26 27
M  V30 27 2 27 28
M  V30 28 1 28 3
M  V30 29 2 22 5
M  V30 30 1 28 23
M  V30 31 1 20 8
M  V30 32 1 1 29
M  V30 33 1 1 30
M  V30 34 1 1 31
M  V30 35 1 2 32
M  V30 36 1 6 33
M  V30 37 1 9 34
M  V30 38 1 10 35
M  V30 39 1 11 36
M  V30 40 1 13 37
M  V30 41 1 13 38
M  V30 42 1 14 39
M  V30 43 1 14 40
M  V30 44 1 15 41
M  V30 45 1 16 42
M  V30 46 1 16 43
M  V30 47 1 18 44
M  V30 48 1 18 45
M  V30 49 1 20 46
M  V30 50 1 25 47
M  V30 51 1 25 48
M  V30 52 1 25 49
M  V30 53 1 26 50
M  V30 END BOND
M  V30 END CTAB
M  END
>  <Dataset>  (260) 
ChEMBL_Kinases

>  <Ligand_Instance>  (260) 
nan

>  <PDB_ID>  (260) 
nan

>  <Standardized_SMILES>  (260) 
CNc1nc2cc(-c3cccc(CCNCC(N)=O)c3)sc2n2c(C)cnc12

>  <Name>  (260) 
nan

>  <Pocket>  (260) 
nan

>  <ATP_Site>  (260) 
nan

>  <Peripheral>  (260) 
nan

>  <Num_H_Atoms_ProtBoundConf>  (260) 
nan

>  <Num_Resolved_Atoms>  (260) 
nan

>  <Num_Not_Resolved_Atoms>  (260) 
nan

$$$$
CHEMBL3982369
     RDKit          3D

  0  0  0  0  0  0  0  0  0  0999 V3000
M  V30 BEGIN CTAB
M  V30 COUNTS 64 68 0 0 0
M  V30 BEGIN ATOM
M  V30 1 C 5.666055 -0.869489 4.996346 0
M  V30 2 O 5.567494 -1.103228 3.585639 0
M  V30 3 C 4.401858 -0.736384 2.887521 0
M  V30 4 O 3.470177 -0.204368 3.549043 0
M  V30 5 N 4.329526 -0.979293 1.487454 0
M  V30 6 C 3.115921 -0.586206 0.819777 0
M  V30 7 N 2.058792 -0.012120 1.423895 0
M  V30 8 C 1.083956 0.227984 0.500198 0
M  V30 9 C -0.198349 0.781306 0.501045 0
M  V30 10 C -0.878917 0.835564 -0.723742 0
M  V30 11 C -2.237192 1.462721 -0.525954 0
M  V30 12 O -2.900035 1.638455 -1.728920 0
M  V30 13 C -1.951988 2.779810 0.153075 0
M  V30 14 C -1.266911 3.793610 -0.482128 0
M  V30 15 C -0.992622 4.975190 0.181109 0
M  V30 16 C -1.435613 5.085739 1.498084 0
M  V30 17 C -2.117413 4.060233 2.108864 0
M  V30 18 C -2.393077 2.885442 1.455423 0
M  V30 19 C -3.077922 1.593314 1.679927 0
M  V30 20 O -3.589575 1.421120 2.838433 0
M  V30 21 N -3.005145 0.791105 0.482421 0
M  V30 22 C -3.705005 -0.463695 0.536998 0 CFG=1
M  V30 23 C -4.824812 -0.485008 -0.488750 0
M  V30 24 C -2.805302 -1.575172 0.217593 0
M  V30 25 O -3.499810 -2.625943 0.280691 0
M  V30 26 O -1.575294 -2.052646 -0.119090 0
M  V30 27 C -1.168404 -3.355063 -0.340041 0
M  V30 28 C -0.596226 -3.585584 -1.721599 0
M  V30 29 C 0.743174 -4.242180 -1.697751 0
M  V30 30 C 0.826258 -5.464516 -0.826936 0
M  V30 31 C 0.046290 -5.308840 0.465692 0
M  V30 32 C -0.126115 -3.819785 0.685996 0
M  V30 33 C -0.340472 0.372268 -1.906015 0
M  V30 34 C 0.928543 -0.171895 -1.889518 0
M  V30 35 C 1.621931 -0.238519 -0.699668 0
M  V30 36 N 2.848904 -0.727329 -0.492263 0
M  V30 37 H 5.236014 -1.801303 5.454469 0
M  V30 38 H 4.983312 -0.060137 5.325141 0
M  V30 39 H 6.685125 -0.671930 5.321026 0
M  V30 40 H 5.096335 -1.419133 0.932302 0
M  V30 41 H -0.544074 1.114969 1.446093 0
M  V30 42 H -2.546165 2.460333 -2.148708 0
M  V30 43 H -0.890637 3.788692 -1.495427 0
M  V30 44 H -0.474275 5.858895 -0.161576 0
M  V30 45 H -1.303797 5.935112 2.150851 0
M  V30 46 H -2.486922 4.096280 3.140658 0
M  V30 47 H -4.200886 -0.636461 1.509945 0
M  V30 48 H -4.403272 -0.598894 -1.510023 0
M  V30 49 H -5.429490 -1.393880 -0.293155 0
M  V30 50 H -5.466887 0.393899 -0.356094 0
M  V30 51 H -2.020093 -4.045727 -0.202817 0
M  V30 52 H -1.271366 -4.246347 -2.320325 0
M  V30 53 H -0.503796 -2.655633 -2.303742 0
M  V30 54 H 0.926212 -4.616685 -2.747757 0
M  V30 55 H 1.587790 -3.567993 -1.495095 0
M  V30 56 H 0.552243 -6.398745 -1.368286 0
M  V30 57 H 1.903243 -5.605981 -0.521112 0
M  V30 58 H 0.580969 -5.758928 1.328771 0
M  V30 59 H -0.960878 -5.718267 0.288136 0
M  V30 60 H 0.821978 -3.269908 0.516208 0
M  V30 61 H -0.535126 -3.676083 1.706379 0
M  V30 62 H -0.995811 0.486673 -2.767075 0
M  V30 63 H 1.296405 -0.516375 -2.840580 0
M  V30 64 H 3.551633 -1.158420 -1.147339 0
M  V30 END ATOM
M  V30 BEGIN BOND
M  V30 1 1 1 2
M  V30 2 1 2 3
M  V30 3 2 3 4
M  V30 4 1 3 5
M  V30 5 1 5 6
M  V30 6 2 6 7
M  V30 7 1 7 8
M  V30 8 2 8 9
M  V30 9 1 9 10
M  V30 10 1 10 11
M  V30 11 1 11 12
M  V30 12 1 11 13
M  V30 13 2 13 14
M  V30 14 1 14 15
M  V30 15 2 15 16
M  V30 16 1 16 17
M  V30 17 2 17 18
M  V30 18 1 18 19
M  V30 19 2 19 20
M  V30 20 1 19 21
M  V30 21 1 21 22
M  V30 22 1 22 23
M  V30 23 1 22 24
M  V30 24 2 24 25
M  V30 25 1 24 26
M  V30 26 1 26 27
M  V30 27 1 27 28
M  V30 28 1 28 29
M  V30 29 1 29 30
M  V30 30 1 30 31
M  V30 31 1 31 32
M  V30 32 2 10 33
M  V30 33 1 33 34
M  V30 34 2 34 35
M  V30 35 1 35 36
M  V30 36 1 36 6
M  V30 37 1 35 8
M  V30 38 1 21 11
M  V30 39 1 32 27
M  V30 40 1 18 13
M  V30 41 1 1 37
M  V30 42 1 1 38
M  V30 43 1 1 39
M  V30 44 1 5 40
M  V30 45 1 9 41
M  V30 46 1 12 42
M  V30 47 1 14 43
M  V30 48 1 15 44
M  V30 49 1 16 45
M  V30 50 1 17 46
M  V30 51 1 22 47 CFG=1
M  V30 52 1 23 48
M  V30 53 1 23 49
M  V30 54 1 23 50
M  V30 55 1 27 51
M  V30 56 1 28 52
M  V30 57 1 28 53
M  V30 58 1 29 54
M  V30 59 1 29 55
M  V30 60 1 30 56
M  V30 61 1 30 57
M  V30 62 1 31 58
M  V30 63 1 31 59
M  V30 64 1 32 60
M  V30 65 1 32 61
M  V30 66 1 33 62
M  V30 67 1 34 63
M  V30 68 1 36 64
M  V30 END BOND
M  V30 END CTAB
M  END
>  <Dataset>  (261) 
ChEMBL_Kinases

>  <Ligand_Instance>  (261) 
nan

>  <PDB_ID>  (261) 
nan

>  <Standardized_SMILES>  (261) 
COC(=O)Nc1nc2cc(C3(O)c4ccccc4C(=O)N3[C@@H](C)C(=O)OC3CCCCC3)ccc2[nH]1

>  <Name>  (261) 
nan

>  <Pocket>  (261) 
nan

>  <ATP_Site>  (261) 
nan

>  <Peripheral>  (261) 
nan

>  <Num_H_Atoms_ProtBoundConf>  (261) 
nan

>  <Num_Resolved_Atoms>  (261) 
nan

>  <Num_Not_Resolved_Atoms>  (261) 
nan

$$$$
CHEMBL3982061
     RDKit          3D

  0  0  0  0  0  0  0  0  0  0999 V3000
M  V30 BEGIN CTAB
M  V30 COUNTS 49 53 0 0 0
M  V30 BEGIN ATOM
M  V30 1 N 3.328019 -7.320268 3.858625 0
M  V30 2 C 4.485864 -6.521369 3.647752 0
M  V30 3 O 5.600747 -6.998930 4.006007 0
M  V30 4 C 4.403635 -5.197658 3.041264 0
M  V30 5 C 5.572043 -4.483819 2.870089 0
M  V30 6 C 5.525910 -3.226315 2.298045 0
M  V30 7 C 4.303791 -2.678152 1.894175 0
M  V30 8 N 3.930275 -1.508058 1.319392 0
M  V30 9 C 2.594395 -1.530174 1.157627 0
M  V30 10 C 1.783102 -0.458622 0.570922 0
M  V30 11 C 2.418990 0.689273 0.135919 0
M  V30 12 C 1.608828 1.682862 -0.415569 0
M  V30 13 C 0.240491 1.514852 -0.515892 0
M  V30 14 C -0.561576 2.630557 -1.121324 0
M  V30 15 O -0.164380 3.862897 -0.610019 0
M  V30 16 C -2.011052 2.481380 -0.768309 0
M  V30 17 C -2.391814 2.812773 0.525850 0
M  V30 18 C -3.701697 2.708940 0.945272 0
M  V30 19 C -4.641495 2.263391 0.043227 0
M  V30 20 C -4.301647 1.919537 -1.267718 0
M  V30 21 C -2.979345 2.034290 -1.658902 0
M  V30 22 O -5.233572 1.469397 -2.189188 0
M  V30 23 C -6.485914 0.972873 -1.799808 0
M  V30 24 C -6.702703 1.010727 -0.303438 0
M  V30 25 O -5.999430 2.099273 0.294929 0
M  V30 26 C -0.382689 0.359558 -0.075926 0
M  V30 27 C 0.415713 -0.628676 0.471640 0
M  V30 28 N 2.142806 -2.707370 1.629545 0
M  V30 29 C 3.166219 -3.454982 2.097672 0
M  V30 30 C 3.164502 -4.719522 2.666733 0
M  V30 31 H 2.921865 -8.100422 3.273042 0
M  V30 32 H 2.536073 -7.463022 4.535443 0
M  V30 33 H 6.523173 -4.927057 3.191882 0
M  V30 34 H 6.425316 -2.639582 2.149518 0
M  V30 35 H 4.579383 -0.733602 1.054174 0
M  V30 36 H 3.486811 0.847694 0.201917 0
M  V30 37 H 2.088247 2.599771 -0.766697 0
M  V30 38 H -0.450699 2.656880 -2.211473 0
M  V30 39 H -0.884871 4.531229 -0.617801 0
M  V30 40 H -1.691288 3.166959 1.269808 0
M  V30 41 H -4.055073 2.952921 1.940248 0
M  V30 42 H -2.614062 1.797863 -2.636258 0
M  V30 43 H -7.340459 1.508354 -2.285471 0
M  V30 44 H -6.589678 -0.093550 -2.127165 0
M  V30 45 H -7.772159 1.138051 -0.034063 0
M  V30 46 H -6.376612 0.049230 0.150863 0
M  V30 47 H -1.456926 0.282661 -0.179453 0
M  V30 48 H -0.107820 -1.510380 0.801250 0
M  V30 49 H 2.243662 -5.250115 2.787242 0
M  V30 END ATOM
M  V30 BEGIN BOND
M  V30 1 1 1 2
M  V30 2 2 2 3
M  V30 3 1 2 4
M  V30 4 2 4 5
M  V30 5 1 5 6
M  V30 6 2 6 7
M  V30 7 1 7 8
M  V30 8 1 8 9
M  V30 9 1 9 10
M  V30 10 2 10 11
M  V30 11 1 11 12
M  V30 12 2 12 13
M  V30 13 1 13 14
M  V30 14 1 14 15
M  V30 15 1 14 16
M  V30 16 2 16 17
M  V30 17 1 17 18
M  V30 18 2 18 19
M  V30 19 1 19 20
M  V30 20 2 20 21
M  V30 21 1 20 22
M  V30 22 1 22 23
M  V30 23 1 23 24
M  V30 24 1 24 25
M  V30 25 1 13 26
M  V30 26 2 26 27
M  V30 27 2 9 28
M  V30 28 1 28 29
M  V30 29 2 29 30
M  V30 30 1 30 4
M  V30 31 1 29 7
M  V30 32 1 27 10
M  V30 33 1 21 16
M  V30 34 1 25 19
M  V30 35 1 1 31
M  V30 36 1 1 32
M  V30 37 1 5 33
M  V30 38 1 6 34
M  V30 39 1 8 35
M  V30 40 1 11 36
M  V30 41 1 12 37
M  V30 42 1 14 38
M  V30 43 1 15 39
M  V30 44 1 17 40
M  V30 45 1 18 41
M  V30 46 1 21 42
M  V30 47 1 23 43
M  V30 48 1 23 44
M  V30 49 1 24 45
M  V30 50 1 24 46
M  V30 51 1 26 47
M  V30 52 1 27 48
M  V30 53 1 30 49
M  V30 END BOND
M  V30 END CTAB
M  END
>  <Dataset>  (262) 
ChEMBL_Kinases

>  <Ligand_Instance>  (262) 
nan

>  <PDB_ID>  (262) 
nan

>  <Standardized_SMILES>  (262) 
NC(=O)c1ccc2[nH]c(-c3ccc(C(O)c4ccc5c(c4)OCCO5)cc3)nc2c1

>  <Name>  (262) 
nan

>  <Pocket>  (262) 
nan

>  <ATP_Site>  (262) 
nan

>  <Peripheral>  (262) 
nan

>  <Num_H_Atoms_ProtBoundConf>  (262) 
nan

>  <Num_Resolved_Atoms>  (262) 
nan

>  <Num_Not_Resolved_Atoms>  (262) 
nan

$$$$
CHEMBL3981965
     RDKit          3D

  0  0  0  0  0  0  0  0  0  0999 V3000
M  V30 BEGIN CTAB
M  V30 COUNTS 54 58 0 0 0
M  V30 BEGIN ATOM
M  V30 1 C 3.015116 -3.671551 6.754788 0
M  V30 2 O 3.364904 -3.978695 5.397610 0
M  V30 3 C 2.819378 -3.254484 4.340212 0
M  V30 4 O 2.010962 -2.323540 4.643997 0
M  V30 5 N 3.207652 -3.613009 3.019539 0
M  V30 6 C 2.597496 -2.814546 2.009383 0
M  V30 7 N 1.740752 -1.788578 2.140664 0
M  V30 8 C 1.393472 -1.303016 0.934666 0
M  V30 9 C 0.553368 -0.270889 0.566065 0
M  V30 10 C 0.440438 -0.060018 -0.812482 0
M  V30 11 C -0.466445 1.064144 -1.244100 0
M  V30 12 O -0.455393 1.224179 -2.610208 0
M  V30 13 C -0.025295 2.308077 -0.518972 0
M  V30 14 C 1.206403 2.918797 -0.782383 0
M  V30 15 C 1.517660 4.027828 -0.023187 0
M  V30 16 C 0.647373 4.494218 0.939541 0
M  V30 17 C -0.576123 3.871675 1.186278 0
M  V30 18 C -0.893517 2.775754 0.441384 0
M  V30 19 C -2.016675 1.857523 0.317028 0
M  V30 20 O -3.023710 2.016080 1.092978 0
M  V30 21 N -1.795966 0.869963 -0.714603 0
M  V30 22 C -2.865289 -0.039761 -1.014709 0
M  V30 23 C -2.849420 -1.292877 -0.223467 0
M  V30 24 C -4.040544 -2.180868 -0.605435 0
M  V30 25 C -3.713304 -2.668571 -1.979735 0
M  V30 26 C -2.205650 -2.720954 -1.952734 0
M  V30 27 N -1.768217 -2.122411 -0.729255 0
M  V30 28 C 1.096918 -0.799025 -1.772145 0
M  V30 29 C 1.929384 -1.823489 -1.370094 0
M  V30 30 C 2.060213 -2.054417 -0.016658 0
M  V30 31 N 2.784163 -2.965451 0.670339 0
M  V30 32 H 2.535343 -2.693268 6.866381 0
M  V30 33 H 3.890726 -3.702832 7.409984 0
M  V30 34 H 2.226104 -4.422377 7.046673 0
M  V30 35 H 3.867268 -4.370962 2.756490 0
M  V30 36 H 0.020073 0.332903 1.276415 0
M  V30 37 H -1.278376 1.694667 -2.874659 0
M  V30 38 H 1.924707 2.600829 -1.518427 0
M  V30 39 H 2.449212 4.565920 -0.156392 0
M  V30 40 H 0.883771 5.366615 1.542765 0
M  V30 41 H -1.297128 4.191335 1.925643 0
M  V30 42 H -2.776344 -0.337641 -2.094808 0
M  V30 43 H -3.845317 0.462060 -0.880609 0
M  V30 44 H -2.882009 -1.193709 0.861416 0
M  V30 45 H -4.068843 -3.028052 0.141192 0
M  V30 46 H -4.999194 -1.676202 -0.495904 0
M  V30 47 H -4.076151 -1.876773 -2.690379 0
M  V30 48 H -4.183057 -3.645628 -2.197212 0
M  V30 49 H -1.934844 -3.800381 -2.053245 0
M  V30 50 H -1.762030 -2.214611 -2.826484 0
M  V30 51 H -1.339620 -2.742048 -0.036742 0
M  V30 52 H 0.992419 -0.616359 -2.813593 0
M  V30 53 H 2.463243 -2.428839 -2.061827 0
M  V30 54 H 3.390901 -3.670188 0.197717 0
M  V30 END ATOM
M  V30 BEGIN BOND
M  V30 1 1 1 2
M  V30 2 1 2 3
M  V30 3 2 3 4
M  V30 4 1 3 5
M  V30 5 1 5 6
M  V30 6 2 6 7
M  V30 7 1 7 8
M  V30 8 2 8 9
M  V30 9 1 9 10
M  V30 10 1 10 11
M  V30 11 1 11 12
M  V30 12 1 11 13
M  V30 13 2 13 14
M  V30 14 1 14 15
M  V30 15 2 15 16
M  V30 16 1 16 17
M  V30 17 2 17 18
M  V30 18 1 18 19
M  V30 19 2 19 20
M  V30 20 1 19 21
M  V30 21 1 21 22
M  V30 22 1 22 23
M  V30 23 1 23 24
M  V30 24 1 24 25
M  V30 25 1 25 26
M  V30 26 1 26 27
M  V30 27 2 10 28
M  V30 28 1 28 29
M  V30 29 2 29 30
M  V30 30 1 30 31
M  V30 31 1 31 6
M  V30 32 1 30 8
M  V30 33 1 21 11
M  V30 34 1 27 23
M  V30 35 1 18 13
M  V30 36 1 1 32
M  V30 37 1 1 33
M  V30 38 1 1 34
M  V30 39 1 5 35
M  V30 40 1 9 36
M  V30 41 1 12 37
M  V30 42 1 14 38
M  V30 43 1 15 39
M  V30 44 1 16 40
M  V30 45 1 17 41
M  V30 46 1 22 42
M  V30 47 1 22 43
M  V30 48 1 23 44
M  V30 49 1 24 45
M  V30 50 1 24 46
M  V30 51 1 25 47
M  V30 52 1 25 48
M  V30 53 1 26 49
M  V30 54 1 26 50
M  V30 55 1 27 51
M  V30 56 1 28 52
M  V30 57 1 29 53
M  V30 58 1 31 54
M  V30 END BOND
M  V30 END CTAB
M  END
>  <Dataset>  (263) 
ChEMBL_Kinases

>  <Ligand_Instance>  (263) 
nan

>  <PDB_ID>  (263) 
nan

>  <Standardized_SMILES>  (263) 
COC(=O)Nc1nc2cc(C3(O)c4ccccc4C(=O)N3CC3CCCN3)ccc2[nH]1

>  <Name>  (263) 
nan

>  <Pocket>  (263) 
nan

>  <ATP_Site>  (263) 
nan

>  <Peripheral>  (263) 
nan

>  <Num_H_Atoms_ProtBoundConf>  (263) 
nan

>  <Num_Resolved_Atoms>  (263) 
nan

>  <Num_Not_Resolved_Atoms>  (263) 
nan

$$$$
CHEMBL398170
     RDKit          3D

  0  0  0  0  0  0  0  0  0  0999 V3000
M  V30 BEGIN CTAB
M  V30 COUNTS 49 52 0 0 0
M  V30 BEGIN ATOM
M  V30 1 C 7.506250 -1.608473 4.043479 0
M  V30 2 C 6.092091 -1.402450 3.632941 0
M  V30 3 O 5.437666 -2.488426 3.797234 0
M  V30 4 N 5.461629 -0.248470 3.129870 0
M  V30 5 C 4.071119 -0.272358 2.793369 0
M  V30 6 C 2.981249 -0.033893 3.604382 0
M  V30 7 C 1.707178 -0.107035 3.071633 0
M  V30 8 C 1.446473 -0.412040 1.740405 0
M  V30 9 C 2.579592 -0.645498 0.955655 0
M  V30 10 N 2.311621 -0.962137 -0.426471 0
M  V30 11 C 0.974211 -1.173512 -0.849072 0
M  V30 12 N -0.071388 -0.365668 -1.158968 0
M  V30 13 C -1.249655 -0.871220 -1.555492 0
M  V30 14 N -2.250657 0.110032 -1.826321 0
M  V30 15 C -3.079430 0.415077 -0.686222 0
M  V30 16 C -2.857253 -0.245323 0.528998 0
M  V30 17 C -3.677387 0.070727 1.617624 0
M  V30 18 C -4.666711 1.009583 1.461980 0
M  V30 19 C -4.901641 1.670263 0.273258 0
M  V30 20 O -5.935950 2.558329 0.354173 0
M  V30 21 C -6.395109 3.356789 -0.708818 0
M  V30 22 F -7.761789 3.141793 -0.826923 0
M  V30 23 F -6.228555 4.698868 -0.401861 0
M  V30 24 C -4.086782 1.347536 -0.782731 0
M  V30 25 N -1.493671 -2.177338 -1.678103 0
M  V30 26 N -2.545221 -2.869778 -2.040671 0
M  V30 27 C -2.251169 -4.204513 -1.991123 0
M  V30 28 C -0.936697 -4.291707 -1.570146 0
M  V30 29 C -0.126566 -5.471123 -1.350696 0
M  V30 30 N 0.527196 -6.414169 -1.192427 0
M  V30 31 C -0.449912 -2.999619 -1.368928 0
M  V30 32 N 0.735082 -2.510001 -0.970580 0
M  V30 33 C 3.850746 -0.581425 1.451411 0
M  V30 34 H 7.603861 -1.747017 5.136010 0
M  V30 35 H 8.127757 -0.736409 3.737467 0
M  V30 36 H 7.939995 -2.527488 3.588830 0
M  V30 37 H 6.153910 0.555325 3.060261 0
M  V30 38 H 3.225709 0.196827 4.616359 0
M  V30 39 H 0.859192 0.082464 3.724710 0
M  V30 40 H 0.449880 -0.464040 1.338234 0
M  V30 41 H 3.127680 -1.021626 -1.060520 0
M  V30 42 H -2.448831 0.615979 -2.713085 0
M  V30 43 H -2.078654 -0.983381 0.653733 0
M  V30 44 H -3.463346 -0.469055 2.538566 0
M  V30 45 H -5.227371 1.152582 2.390919 0
M  V30 46 H -5.875203 3.177663 -1.661895 0
M  V30 47 H -4.299801 1.881262 -1.689668 0
M  V30 48 H -2.854839 -5.056079 -2.214098 0
M  V30 49 H 4.636399 -0.787280 0.728919 0
M  V30 END ATOM
M  V30 BEGIN BOND
M  V30 1 1 1 2
M  V30 2 2 2 3
M  V30 3 1 2 4
M  V30 4 1 4 5
M  V30 5 2 5 6
M  V30 6 1 6 7
M  V30 7 2 7 8
M  V30 8 1 8 9
M  V30 9 1 9 10
M  V30 10 1 10 11
M  V30 11 1 11 12
M  V30 12 2 12 13
M  V30 13 1 13 14
M  V30 14 1 14 15
M  V30 15 2 15 16
M  V30 16 1 16 17
M  V30 17 2 17 18
M  V30 18 1 18 19
M  V30 19 1 19 20
M  V30 20 1 20 21
M  V30 21 1 21 22
M  V30 22 1 21 23
M  V30 23 2 19 24
M  V30 24 1 13 25
M  V30 25 1 25 26
M  V30 26 2 26 27
M  V30 27 1 27 28
M  V30 28 1 28 29
M  V30 29 3 29 30
M  V30 30 2 28 31
M  V30 31 1 31 32
M  V30 32 2 9 33
M  V30 33 1 33 5
M  V30 34 2 32 11
M  V30 35 1 24 15
M  V30 36 1 31 25
M  V30 37 1 1 34
M  V30 38 1 1 35
M  V30 39 1 1 36
M  V30 40 1 4 37
M  V30 41 1 6 38
M  V30 42 1 7 39
M  V30 43 1 8 40
M  V30 44 1 10 41
M  V30 45 1 14 42
M  V30 46 1 16 43
M  V30 47 1 17 44
M  V30 48 1 18 45
M  V30 49 1 21 46
M  V30 50 1 24 47
M  V30 51 1 27 48
M  V30 52 1 33 49
M  V30 END BOND
M  V30 END CTAB
M  END
>  <Dataset>  (264) 
ChEMBL_Kinases

>  <Ligand_Instance>  (264) 
nan

>  <PDB_ID>  (264) 
nan

>  <Standardized_SMILES>  (264) 
CC(=O)Nc1cccc(Nc2nc(Nc3cccc(OC(F)F)c3)n3ncc(C#N)c3n2)c1

>  <Name>  (264) 
nan

>  <Pocket>  (264) 
nan

>  <ATP_Site>  (264) 
nan

>  <Peripheral>  (264) 
nan

>  <Num_H_Atoms_ProtBoundConf>  (264) 
nan

>  <Num_Resolved_Atoms>  (264) 
nan

>  <Num_Not_Resolved_Atoms>  (264) 
nan

$$$$
CHEMBL3980237
     RDKit          3D

  0  0  0  0  0  0  0  0  0  0999 V3000
M  V30 BEGIN CTAB
M  V30 COUNTS 40 43 0 0 0
M  V30 BEGIN ATOM
M  V30 1 O 3.065335 -7.509584 -0.994177 0
M  V30 2 C 1.869122 -7.398970 -1.394691 0
M  V30 3 O 1.404276 -8.578329 -1.914732 0
M  V30 4 C 1.077849 -6.177807 -1.317389 0
M  V30 5 C -0.222546 -6.168669 -1.785894 0
M  V30 6 C -0.899748 -4.970464 -1.674099 0
M  V30 7 C -0.327937 -3.828107 -1.126343 0
M  V30 8 N -0.824553 -2.583097 -0.935162 0
M  V30 9 C 0.147984 -1.840243 -0.361296 0
M  V30 10 C -0.028998 -0.434910 -0.006480 0
M  V30 11 C -1.251345 0.148930 -0.275249 0
M  V30 12 C -1.443714 1.491905 0.055377 0
M  V30 13 C -0.411023 2.229771 0.649415 0
M  V30 14 S -0.806201 3.900840 1.004361 0 CHG=1 VAL=3
M  V30 15 O -0.430627 4.887202 -0.282454 0 CHG=-1 VAL=1
M  V30 16 C -0.085678 4.442870 2.506202 0
M  V30 17 C -0.910989 4.227153 3.616108 0
M  V30 18 C -0.452365 4.616243 4.880078 0
M  V30 19 C 0.804124 5.208978 5.036838 0
M  V30 20 Cl 1.378255 5.696412 6.621621 0
M  V30 21 C 1.600507 5.408626 3.906388 0
M  V30 22 C 1.154682 5.027566 2.657936 0
M  V30 23 C 0.818410 1.615674 0.911733 0
M  V30 24 C 0.994009 0.286293 0.579083 0
M  V30 25 N 1.217749 -2.632283 -0.209752 0
M  V30 26 C 0.980731 -3.876757 -0.666621 0
M  V30 27 C 1.663275 -5.058222 -0.771489 0
M  V30 28 H 1.585263 -9.465083 -1.445804 0
M  V30 29 H -0.701739 -7.045394 -2.220899 0
M  V30 30 H -1.935062 -4.951385 -2.043582 0
M  V30 31 H -1.814449 -2.333416 -1.219445 0
M  V30 32 H -2.098426 -0.370628 -0.736970 0
M  V30 33 H -2.417383 1.938806 -0.164119 0
M  V30 34 H -1.895669 3.774622 3.576931 0
M  V30 35 H -1.098057 4.447165 5.746211 0
M  V30 36 H 2.572546 5.863494 4.001947 0
M  V30 37 H 1.714474 5.150483 1.741658 0
M  V30 38 H 1.569650 2.256815 1.374983 0
M  V30 39 H 1.956635 -0.164896 0.793307 0
M  V30 40 H 2.685113 -5.080048 -0.407704 0
M  V30 END ATOM
M  V30 BEGIN BOND
M  V30 1 2 1 2
M  V30 2 1 2 3
M  V30 3 1 2 4
M  V30 4 2 4 5
M  V30 5 1 5 6
M  V30 6 2 6 7
M  V30 7 1 7 8
M  V30 8 1 8 9
M  V30 9 1 9 10
M  V30 10 2 10 11
M  V30 11 1 11 12
M  V30 12 2 12 13
M  V30 13 1 13 14
M  V30 14 1 14 15
M  V30 15 1 14 16
M  V30 16 2 16 17
M  V30 17 1 17 18
M  V30 18 2 18 19
M  V30 19 1 19 20
M  V30 20 1 19 21
M  V30 21 2 21 22
M  V30 22 1 13 23
M  V30 23 2 23 24
M  V30 24 2 9 25
M  V30 25 1 25 26
M  V30 26 2 26 27
M  V30 27 1 27 4
M  V30 28 1 26 7
M  V30 29 1 24 10
M  V30 30 1 22 16
M  V30 31 1 3 28
M  V30 32 1 5 29
M  V30 33 1 6 30
M  V30 34 1 8 31
M  V30 35 1 11 32
M  V30 36 1 12 33
M  V30 37 1 17 34
M  V30 38 1 18 35
M  V30 39 1 21 36
M  V30 40 1 22 37
M  V30 41 1 23 38
M  V30 42 1 24 39
M  V30 43 1 27 40
M  V30 END BOND
M  V30 END CTAB
M  END
>  <Dataset>  (265) 
ChEMBL_Kinases

>  <Ligand_Instance>  (265) 
nan

>  <PDB_ID>  (265) 
nan

>  <Standardized_SMILES>  (265) 
O=C(O)c1ccc2[nH]c(-c3ccc([S+]([O-])c4ccc(Cl)cc4)cc3)nc2c1

>  <Name>  (265) 
nan

>  <Pocket>  (265) 
nan

>  <ATP_Site>  (265) 
nan

>  <Peripheral>  (265) 
nan

>  <Num_H_Atoms_ProtBoundConf>  (265) 
nan

>  <Num_Resolved_Atoms>  (265) 
nan

>  <Num_Not_Resolved_Atoms>  (265) 
nan

$$$$
CHEMBL3981321
     RDKit          3D

  0  0  0  0  0  0  0  0  0  0999 V3000
M  V30 BEGIN CTAB
M  V30 COUNTS 47 52 0 0 0
M  V30 BEGIN ATOM
M  V30 1 C -0.501815 -5.347376 2.220549 0
M  V30 2 N 0.760822 -5.094247 1.814536 0
M  V30 3 C 0.740866 -4.185639 0.831970 0
M  V30 4 C 1.707874 -3.570612 0.064611 0
M  V30 5 C 1.328089 -2.651843 -0.891433 0
M  V30 6 C -0.000658 -2.283429 -1.152088 0
M  V30 7 N -0.365833 -1.353161 -2.138840 0
M  V30 8 C -0.607409 -1.828382 -3.376197 0
M  V30 9 N -0.942573 -0.808834 -4.192978 0
M  V30 10 C -0.914071 0.319476 -3.472222 0
M  V30 11 C -1.162376 1.645262 -3.771515 0
M  V30 12 N -1.048057 2.576955 -2.807089 0
M  V30 13 C -0.693762 2.209607 -1.562903 0
M  V30 14 C -0.595773 3.216395 -0.624734 0
M  V30 15 N -0.240872 2.838409 0.616178 0
M  V30 16 C 0.015183 1.566528 0.975939 0
M  V30 17 N 0.381131 1.309641 2.324530 0
M  V30 18 C 0.674780 0.028333 2.877904 0
M  V30 19 C 0.484014 -0.067893 4.358335 0
M  V30 20 C 1.174634 0.976847 5.159408 0
M  V30 21 C 1.624428 2.089387 4.256762 0
M  V30 22 C 0.491237 2.380775 3.294272 0
M  V30 23 C -0.081439 0.557741 0.042193 0
M  V30 24 C -0.435772 0.900140 -1.215454 0
M  V30 25 C -0.551972 -0.038625 -2.191331 0
M  V30 26 C -0.926637 -2.951224 -0.331822 0
M  V30 27 C -0.575196 -3.873860 0.631372 0
M  V30 28 N -1.345012 -4.587377 1.484895 0
M  V30 29 H -0.719428 -6.062650 3.018376 0
M  V30 30 H 2.742085 -3.800145 0.205496 0
M  V30 31 H 2.082174 -2.153483 -1.510155 0
M  V30 32 H -0.585634 -2.816767 -3.817430 0
M  V30 33 H -1.446657 1.895036 -4.793924 0
M  V30 34 H -0.778926 4.254519 -0.813260 0
M  V30 35 H 1.700667 -0.260831 2.587635 0
M  V30 36 H -0.024986 -0.726682 2.415050 0
M  V30 37 H 0.924408 -1.052834 4.667751 0
M  V30 38 H -0.597296 -0.139803 4.624653 0
M  V30 39 H 0.485881 1.379326 5.947478 0
M  V30 40 H 2.110517 0.590520 5.656416 0
M  V30 41 H 2.491296 1.775092 3.676159 0
M  V30 42 H 1.785977 3.012500 4.849291 0
M  V30 43 H -0.466679 2.513629 3.857844 0
M  V30 44 H 0.710414 3.360597 2.822207 0
M  V30 45 H 0.136573 -0.404288 0.412044 0
M  V30 46 H -1.966511 -2.699078 -0.496617 0
M  V30 47 H -2.387618 -4.581922 1.587733 0
M  V30 END ATOM
M  V30 BEGIN BOND
M  V30 1 2 1 2
M  V30 2 1 2 3
M  V30 3 2 3 4
M  V30 4 1 4 5
M  V30 5 2 5 6
M  V30 6 1 6 7
M  V30 7 1 7 8
M  V30 8 2 8 9
M  V30 9 1 9 10
M  V30 10 2 10 11
M  V30 11 1 11 12
M  V30 12 2 12 13
M  V30 13 1 13 14
M  V30 14 2 14 15
M  V30 15 1 15 16
M  V30 16 1 16 17
M  V30 17 1 17 18
M  V30 18 1 18 19
M  V30 19 1 19 20
M  V30 20 1 20 21
M  V30 21 1 21 22
M  V30 22 2 16 23
M  V30 23 1 23 24
M  V30 24 2 24 25
M  V30 25 1 6 26
M  V30 26 2 26 27
M  V30 27 1 27 28
M  V30 28 1 28 1
M  V30 29 1 27 3
M  V30 30 1 25 7
M  V30 31 1 25 10
M  V30 32 1 24 13
M  V30 33 1 22 17
M  V30 34 1 1 29
M  V30 35 1 4 30
M  V30 36 1 5 31
M  V30 37 1 8 32
M  V30 38 1 11 33
M  V30 39 1 14 34
M  V30 40 1 18 35
M  V30 41 1 18 36
M  V30 42 1 19 37
M  V30 43 1 19 38
M  V30 44 1 20 39
M  V30 45 1 20 40
M  V30 46 1 21 41
M  V30 47 1 21 42
M  V30 48 1 22 43
M  V30 49 1 22 44
M  V30 50 1 23 45
M  V30 51 1 26 46
M  V30 52 1 28 47
M  V30 END BOND
M  V30 END CTAB
M  END
>  <Dataset>  (266) 
ChEMBL_Kinases

>  <Ligand_Instance>  (266) 
nan

>  <PDB_ID>  (266) 
nan

>  <Standardized_SMILES>  (266) 
c1nc2ccc(-n3cnc4cnc5cnc(N6CCCCC6)cc5c43)cc2[nH]1

>  <Name>  (266) 
nan

>  <Pocket>  (266) 
nan

>  <ATP_Site>  (266) 
nan

>  <Peripheral>  (266) 
nan

>  <Num_H_Atoms_ProtBoundConf>  (266) 
nan

>  <Num_Resolved_Atoms>  (266) 
nan

>  <Num_Not_Resolved_Atoms>  (266) 
nan

$$$$
CHEMBL3981288
     RDKit          3D

  0  0  0  0  0  0  0  0  0  0999 V3000
M  V30 BEGIN CTAB
M  V30 COUNTS 51 54 0 0 0
M  V30 BEGIN ATOM
M  V30 1 C 7.740085 -5.113553 4.771913 0
M  V30 2 O 7.658429 -4.462223 3.510832 0
M  V30 3 C 6.471581 -4.049541 2.950582 0
M  V30 4 O 5.515046 -4.343110 3.727000 0
M  V30 5 N 6.331273 -3.394286 1.695887 0
M  V30 6 C 4.999498 -3.051166 1.305849 0
M  V30 7 N 4.485916 -1.836719 1.666577 0
M  V30 8 C 3.232977 -1.732240 1.196349 0
M  V30 9 C 2.252855 -0.766128 1.247364 0
M  V30 10 C 0.994924 -0.847362 0.688324 0
M  V30 11 C -0.017428 0.165665 0.708942 0
M  V30 12 O -1.192030 -0.338597 0.628118 0
M  V30 13 C 0.012173 1.593201 0.798552 0
M  V30 14 C 1.071857 2.464823 0.761540 0
M  V30 15 C 1.074030 3.835238 0.832756 0
M  V30 16 C -0.182377 4.413332 0.960019 0
M  V30 17 C -1.313487 3.627709 1.006193 0
M  V30 18 C -1.229209 2.229046 0.927038 0
M  V30 19 N -2.496793 1.602549 0.998611 0
M  V30 20 C -3.378808 1.296275 -0.067535 0
M  V30 21 O -2.959358 1.629559 -1.191252 0
M  V30 22 N -4.618204 0.675631 0.093886 0
M  V30 23 C -5.553867 0.336702 -0.900844 0
M  V30 24 C -5.454950 0.531420 -2.252328 0
M  V30 25 C -6.401482 0.184163 -3.191790 0
M  V30 26 C -7.572258 -0.420912 -2.746147 0
M  V30 27 C -7.705738 -0.631280 -1.402192 0
M  V30 28 C -6.733729 -0.267757 -0.500871 0
M  V30 29 C 0.801045 -2.057522 0.037151 0
M  V30 30 C 1.718431 -3.075899 -0.064312 0
M  V30 31 C 2.948668 -2.901118 0.526728 0
M  V30 32 N 4.042513 -3.688736 0.608155 0
M  V30 33 H 7.453201 -6.172866 4.739119 0
M  V30 34 H 8.737327 -4.917013 5.212505 0
M  V30 35 H 6.987530 -4.592530 5.412915 0
M  V30 36 H 7.222752 -3.209340 1.146085 0
M  V30 37 H 2.543861 0.109116 1.801723 0
M  V30 38 H 2.046266 2.021130 0.648486 0
M  V30 39 H 1.990920 4.401754 0.791536 0
M  V30 40 H -0.255189 5.489901 1.021839 0
M  V30 41 H -2.249632 4.157386 1.106392 0
M  V30 42 H -2.789026 1.346851 1.982623 0
M  V30 43 H -4.819021 0.461044 1.092722 0
M  V30 44 H -4.582775 0.988522 -2.644425 0
M  V30 45 H -6.254171 0.369319 -4.246007 0
M  V30 46 H -8.360979 -0.722575 -3.411740 0
M  V30 47 H -8.596942 -1.098791 -1.003080 0
M  V30 48 H -6.902267 -0.464919 0.568683 0
M  V30 49 H -0.155166 -2.261654 -0.454693 0
M  V30 50 H 1.493093 -3.995392 -0.592283 0
M  V30 51 H 4.196335 -4.643819 0.221167 0
M  V30 END ATOM
M  V30 BEGIN BOND
M  V30 1 1 1 2
M  V30 2 1 2 3
M  V30 3 2 3 4
M  V30 4 1 3 5
M  V30 5 1 5 6
M  V30 6 2 6 7
M  V30 7 1 7 8
M  V30 8 2 8 9
M  V30 9 1 9 10
M  V30 10 1 10 11
M  V30 11 2 11 12
M  V30 12 1 11 13
M  V30 13 2 13 14
M  V30 14 1 14 15
M  V30 15 2 15 16
M  V30 16 1 16 17
M  V30 17 2 17 18
M  V30 18 1 18 19
M  V30 19 1 19 20
M  V30 20 2 20 21
M  V30 21 1 20 22
M  V30 22 1 22 23
M  V30 23 2 23 24
M  V30 24 1 24 25
M  V30 25 2 25 26
M  V30 26 1 26 27
M  V30 27 2 27 28
M  V30 28 2 10 29
M  V30 29 1 29 30
M  V30 30 2 30 31
M  V30 31 1 31 32
M  V30 32 1 32 6
M  V30 33 1 31 8
M  V30 34 1 18 13
M  V30 35 1 28 23
M  V30 36 1 1 33
M  V30 37 1 1 34
M  V30 38 1 1 35
M  V30 39 1 5 36
M  V30 40 1 9 37
M  V30 41 1 14 38
M  V30 42 1 15 39
M  V30 43 1 16 40
M  V30 44 1 17 41
M  V30 45 1 19 42
M  V30 46 1 22 43
M  V30 47 1 24 44
M  V30 48 1 25 45
M  V30 49 1 26 46
M  V30 50 1 27 47
M  V30 51 1 28 48
M  V30 52 1 29 49
M  V30 53 1 30 50
M  V30 54 1 32 51
M  V30 END BOND
M  V30 END CTAB
M  END
>  <Dataset>  (267) 
ChEMBL_Kinases

>  <Ligand_Instance>  (267) 
nan

>  <PDB_ID>  (267) 
nan

>  <Standardized_SMILES>  (267) 
COC(=O)Nc1nc2cc(C(=O)c3ccccc3NC(=O)Nc3ccccc3)ccc2[nH]1

>  <Name>  (267) 
nan

>  <Pocket>  (267) 
nan

>  <ATP_Site>  (267) 
nan

>  <Peripheral>  (267) 
nan

>  <Num_H_Atoms_ProtBoundConf>  (267) 
nan

>  <Num_Resolved_Atoms>  (267) 
nan

>  <Num_Not_Resolved_Atoms>  (267) 
nan

$$$$
CHEMBL92361
     RDKit          3D

  0  0  0  0  0  0  0  0  0  0999 V3000
M  V30 BEGIN CTAB
M  V30 COUNTS 34 37 0 0 0
M  V30 BEGIN ATOM
M  V30 1 O 1.425375 -3.816897 3.838048 0
M  V30 2 C 1.291207 -2.679607 3.259296 0
M  V30 3 O -0.108474 -2.547156 3.132087 0
M  V30 4 C 2.132157 -1.521052 2.700051 0
M  V30 5 C 1.453657 -1.132686 1.407628 0
M  V30 6 C 1.499384 -1.662802 0.136719 0
M  V30 7 C 2.356907 -2.653564 -0.256131 0
M  V30 8 C 2.195525 -3.023092 -1.605264 0
M  V30 9 C 1.251608 -2.386864 -2.375863 0
M  V30 10 C 0.441481 -1.396352 -1.876552 0
M  V30 11 C 0.528130 -0.975079 -0.551810 0
M  V30 12 N -0.046423 -0.112858 0.217724 0
M  V30 13 C 0.473886 -0.137223 1.469485 0
M  V30 14 N 0.039164 0.640413 2.464624 0
M  V30 15 C -0.975524 1.513747 2.289263 0
M  V30 16 O -1.331961 2.192170 3.256657 0
M  V30 17 C -1.518149 1.543823 1.008672 0
M  V30 18 C -2.577952 2.452664 0.966057 0
M  V30 19 C -3.209327 2.514380 -0.296961 0
M  V30 20 C -2.774790 1.720106 -1.331770 0
M  V30 21 C -1.711286 0.856055 -1.149332 0
M  V30 22 C -1.048943 0.747595 0.029186 0
M  V30 23 H -0.708597 -3.367332 2.895915 0
M  V30 24 H 3.112225 -1.968539 2.448464 0
M  V30 25 H 2.171293 -0.715929 3.420546 0
M  V30 26 H 3.064432 -3.083738 0.430205 0
M  V30 27 H 2.873089 -3.801707 -1.957813 0
M  V30 28 H 1.238872 -2.772460 -3.373775 0
M  V30 29 H -0.215797 -1.003466 -2.573710 0
M  V30 30 H 0.487496 0.593790 3.416171 0
M  V30 31 H -2.967140 3.078648 1.732422 0
M  V30 32 H -4.033923 3.182782 -0.409012 0
M  V30 33 H -3.321548 1.838002 -2.272884 0
M  V30 34 H -1.487658 0.340743 -2.030099 0
M  V30 END ATOM
M  V30 BEGIN BOND
M  V30 1 2 1 2
M  V30 2 1 2 3
M  V30 3 1 2 4
M  V30 4 1 4 5
M  V30 5 1 5 6
M  V30 6 2 6 7
M  V30 7 1 7 8
M  V30 8 2 8 9
M  V30 9 1 9 10
M  V30 10 2 10 11
M  V30 11 1 11 12
M  V30 12 1 12 13
M  V30 13 1 13 14
M  V30 14 1 14 15
M  V30 15 2 15 16
M  V30 16 1 15 17
M  V30 17 2 17 18
M  V30 18 1 18 19
M  V30 19 2 19 20
M  V30 20 1 20 21
M  V30 21 2 21 22
M  V30 22 2 13 5
M  V30 23 1 22 17
M  V30 24 1 11 6
M  V30 25 1 22 12
M  V30 26 1 3 23
M  V30 27 1 4 24
M  V30 28 1 4 25
M  V30 29 1 7 26
M  V30 30 1 8 27
M  V30 31 1 9 28
M  V30 32 1 10 29
M  V30 33 1 14 30
M  V30 34 1 18 31
M  V30 35 1 19 32
M  V30 36 1 20 33
M  V30 37 1 21 34
M  V30 END BOND
M  V30 END CTAB
M  END
>  <Dataset>  (268) 
ChEMBL_Kinases

>  <Ligand_Instance>  (268) 
nan

>  <PDB_ID>  (268) 
nan

>  <Standardized_SMILES>  (268) 
O=C(O)Cc1c2ccccc2n2c1[nH]c(=O)c1ccccc12

>  <Name>  (268) 
nan

>  <Pocket>  (268) 
nan

>  <ATP_Site>  (268) 
nan

>  <Peripheral>  (268) 
nan

>  <Num_H_Atoms_ProtBoundConf>  (268) 
nan

>  <Num_Resolved_Atoms>  (268) 
nan

>  <Num_Not_Resolved_Atoms>  (268) 
nan

$$$$
CHEMBL3981269
     RDKit          3D

  0  0  0  0  0  0  0  0  0  0999 V3000
M  V30 BEGIN CTAB
M  V30 COUNTS 32 35 0 0 0
M  V30 BEGIN ATOM
M  V30 1 C -0.404713 -2.840755 3.811529 0
M  V30 2 C -0.514019 -3.360012 2.420245 0
M  V30 3 C -1.011254 -4.613247 2.121596 0
M  V30 4 C -1.070512 -5.002393 0.781935 0
M  V30 5 C -0.659958 -4.205678 -0.266073 0
M  V30 6 C -0.165011 -2.955455 0.046157 0
M  V30 7 N 0.298471 -1.987712 -0.765519 0
M  V30 8 C 0.660630 -0.967808 0.034536 0
M  V30 9 N 1.214694 0.325197 -0.195476 0
M  V30 10 C 2.483776 0.644840 -0.578990 0
M  V30 11 O 3.364015 -0.226017 -0.785736 0
M  V30 12 N 2.576895 1.984450 -0.678522 0
M  V30 13 C 1.371898 2.539666 -0.360951 0
M  V30 14 C 0.891510 3.833301 -0.292511 0
M  V30 15 C -0.405265 4.135814 0.065247 0
M  V30 16 C -1.268878 3.079478 0.371727 0
M  V30 17 C -0.762874 1.800251 0.295112 0
M  V30 18 C 0.530105 1.475788 -0.060357 0
M  V30 19 N 0.419377 -1.311194 1.329081 0
M  V30 20 C -0.103952 -2.565268 1.367914 0
M  V30 21 H -0.231482 -3.623612 4.565015 0
M  V30 22 H -1.326797 -2.225437 4.025862 0
M  V30 23 H 0.461292 -2.133853 3.898626 0
M  V30 24 H -1.341106 -5.260457 2.924868 0
M  V30 25 H -1.471891 -6.005532 0.587089 0
M  V30 26 H -0.717945 -4.534435 -1.294024 0
M  V30 27 H 0.404793 -1.919433 -1.787816 0
M  V30 28 H 3.440902 2.530332 -0.957423 0
M  V30 29 H 1.545490 4.660009 -0.526056 0
M  V30 30 H -0.782506 5.151371 0.119008 0
M  V30 31 H -2.298710 3.246059 0.659850 0
M  V30 32 H -1.429089 0.987447 0.531431 0
M  V30 END ATOM
M  V30 BEGIN BOND
M  V30 1 1 1 2
M  V30 2 2 2 3
M  V30 3 1 3 4
M  V30 4 2 4 5
M  V30 5 1 5 6
M  V30 6 1 6 7
M  V30 7 1 7 8
M  V30 8 1 8 9
M  V30 9 1 9 10
M  V30 10 2 10 11
M  V30 11 1 10 12
M  V30 12 1 12 13
M  V30 13 2 13 14
M  V30 14 1 14 15
M  V30 15 2 15 16
M  V30 16 1 16 17
M  V30 17 2 17 18
M  V30 18 2 8 19
M  V30 19 1 19 20
M  V30 20 1 20 2
M  V30 21 2 20 6
M  V30 22 1 18 9
M  V30 23 1 18 13
M  V30 24 1 1 21
M  V30 25 1 1 22
M  V30 26 1 1 23
M  V30 27 1 3 24
M  V30 28 1 4 25
M  V30 29 1 5 26
M  V30 30 1 7 27
M  V30 31 1 12 28
M  V30 32 1 14 29
M  V30 33 1 15 30
M  V30 34 1 16 31
M  V30 35 1 17 32
M  V30 END BOND
M  V30 END CTAB
M  END
>  <Dataset>  (269) 
ChEMBL_Kinases

>  <Ligand_Instance>  (269) 
nan

>  <PDB_ID>  (269) 
nan

>  <Standardized_SMILES>  (269) 
Cc1cccc2[nH]c(-n3c(=O)[nH]c4ccccc43)nc12

>  <Name>  (269) 
nan

>  <Pocket>  (269) 
nan

>  <ATP_Site>  (269) 
nan

>  <Peripheral>  (269) 
nan

>  <Num_H_Atoms_ProtBoundConf>  (269) 
nan

>  <Num_Resolved_Atoms>  (269) 
nan

>  <Num_Not_Resolved_Atoms>  (269) 
nan

$$$$
CHEMBL3981163
     RDKit          3D

  0  0  0  0  0  0  0  0  0  0999 V3000
M  V30 BEGIN CTAB
M  V30 COUNTS 48 51 0 0 0
M  V30 BEGIN ATOM
M  V30 1 C -0.340639 -7.663496 3.485101 0
M  V30 2 O -0.561581 -7.617820 2.099517 0
M  V30 3 C -0.444978 -6.443667 1.373542 0
M  V30 4 C -0.105883 -5.242356 1.950207 0
M  V30 5 C 0.008695 -4.077052 1.223689 0
M  V30 6 C -0.217729 -4.074801 -0.136182 0
M  V30 7 O -0.166287 -3.048973 -1.064936 0
M  V30 8 C 0.076529 -1.723362 -0.792023 0
M  V30 9 C 1.129449 -0.963950 -1.258137 0
M  V30 10 C 1.289524 0.369775 -0.927244 0
M  V30 11 C 0.365067 0.973991 -0.098841 0
M  V30 12 C 0.523369 2.383413 0.258197 0
M  V30 13 N -0.303883 3.086541 1.054854 0
M  V30 14 C 0.145159 4.362478 1.169625 0
M  V30 15 C -0.280342 5.495928 1.834283 0
M  V30 16 C 0.489310 6.632173 1.684242 0
M  V30 17 C 0.057135 7.840322 2.378905 0
M  V30 18 N -1.107061 7.886038 3.191749 0
M  V30 19 O 0.524537 8.991531 2.438396 0
M  V30 20 C 1.639824 6.711461 0.925247 0
M  V30 21 C 2.036356 5.549201 0.270856 0
M  V30 22 C 1.299726 4.387150 0.389868 0
M  V30 23 N 1.529628 3.166801 -0.169894 0
M  V30 24 C -0.700945 0.240333 0.384487 0
M  V30 25 C -0.850753 -1.094045 0.046157 0
M  V30 26 Cl -2.284985 -1.851107 0.757249 0
M  V30 27 C -0.563570 -5.293882 -0.732759 0
M  V30 28 C -0.672205 -6.447740 0.015092 0
M  V30 29 O -1.018192 -7.669338 -0.579081 0
M  V30 30 C -1.266262 -7.743451 -1.977805 0
M  V30 31 H 0.745776 -7.726269 3.699551 0
M  V30 32 H -0.718062 -6.755314 4.002013 0
M  V30 33 H -0.789090 -8.588916 3.945046 0
M  V30 34 H 0.085712 -5.169635 3.009801 0
M  V30 35 H 0.274426 -3.102092 1.604944 0
M  V30 36 H 1.840685 -1.483455 -1.913685 0
M  V30 37 H 2.131104 0.931601 -1.314770 0
M  V30 38 H -1.169563 5.464590 2.430691 0
M  V30 39 H -1.254654 7.743471 4.223453 0
M  V30 40 H -1.972371 8.103126 2.649833 0
M  V30 41 H 2.214711 7.626064 0.834936 0
M  V30 42 H 2.937860 5.596689 -0.328704 0
M  V30 43 H 2.332356 2.939595 -0.792685 0
M  V30 44 H -1.391967 0.782242 1.033447 0
M  V30 45 H -0.770124 -5.429592 -1.807014 0
M  V30 46 H -1.519179 -8.779339 -2.223966 0
M  V30 47 H -2.108214 -7.063512 -2.258494 0
M  V30 48 H -0.354395 -7.378559 -2.494035 0
M  V30 END ATOM
M  V30 BEGIN BOND
M  V30 1 1 1 2
M  V30 2 1 2 3
M  V30 3 2 3 4
M  V30 4 1 4 5
M  V30 5 2 5 6
M  V30 6 1 6 7
M  V30 7 1 7 8
M  V30 8 2 8 9
M  V30 9 1 9 10
M  V30 10 2 10 11
M  V30 11 1 11 12
M  V30 12 2 12 13
M  V30 13 1 13 14
M  V30 14 2 14 15
M  V30 15 1 15 16
M  V30 16 1 16 17
M  V30 17 1 17 18
M  V30 18 2 17 19
M  V30 19 2 16 20
M  V30 20 1 20 21
M  V30 21 2 21 22
M  V30 22 1 22 23
M  V30 23 1 11 24
M  V30 24 2 24 25
M  V30 25 1 25 26
M  V30 26 1 6 27
M  V30 27 2 27 28
M  V30 28 1 28 29
M  V30 29 1 29 30
M  V30 30 1 28 3
M  V30 31 1 25 8
M  V30 32 1 23 12
M  V30 33 1 22 14
M  V30 34 1 1 31
M  V30 35 1 1 32
M  V30 36 1 1 33
M  V30 37 1 4 34
M  V30 38 1 5 35
M  V30 39 1 9 36
M  V30 40 1 10 37
M  V30 41 1 15 38
M  V30 42 1 18 39
M  V30 43 1 18 40
M  V30 44 1 20 41
M  V30 45 1 21 42
M  V30 46 1 23 43
M  V30 47 1 24 44
M  V30 48 1 27 45
M  V30 49 1 30 46
M  V30 50 1 30 47
M  V30 51 1 30 48
M  V30 END BOND
M  V30 END CTAB
M  END
>  <Dataset>  (270) 
ChEMBL_Kinases

>  <Ligand_Instance>  (270) 
nan

>  <PDB_ID>  (270) 
nan

>  <Standardized_SMILES>  (270) 
COc1ccc(Oc2ccc(-c3nc4cc(C(N)=O)ccc4[nH]3)cc2Cl)cc1OC

>  <Name>  (270) 
nan

>  <Pocket>  (270) 
nan

>  <ATP_Site>  (270) 
nan

>  <Peripheral>  (270) 
nan

>  <Num_H_Atoms_ProtBoundConf>  (270) 
nan

>  <Num_Resolved_Atoms>  (270) 
nan

>  <Num_Not_Resolved_Atoms>  (270) 
nan

$$$$
CHEMBL3981026
     RDKit          3D

  0  0  0  0  0  0  0  0  0  0999 V3000
M  V30 BEGIN CTAB
M  V30 COUNTS 42 45 0 0 0
M  V30 BEGIN ATOM
M  V30 1 C 2.005295 -4.432143 1.673807 0
M  V30 2 C 2.059755 -3.050073 1.143593 0
M  V30 3 C 3.251234 -2.405009 0.894573 0
M  V30 4 C 3.275579 -1.120405 0.401784 0
M  V30 5 F 4.425818 -0.458784 0.146467 0
M  V30 6 C 2.137019 -0.396498 0.125620 0
M  V30 7 C 1.979470 0.953807 -0.392123 0
M  V30 8 O 0.831971 1.488206 -0.595734 0
M  V30 9 N 2.972941 1.876305 -0.747135 0
M  V30 10 C 2.387497 3.104607 -1.217553 0
M  V30 11 C 2.073251 3.349577 -2.541839 0
M  V30 12 C 1.510527 4.592806 -2.832181 0
M  V30 13 C 1.291441 5.514182 -1.813971 0
M  V30 14 C 1.624048 5.225184 -0.489171 0
M  V30 15 N 2.164224 4.017485 -0.247421 0
M  V30 16 C 0.938971 -1.072032 0.386339 0
M  V30 17 C 0.919164 -2.342261 0.873605 0
M  V30 18 N -0.326009 -2.987772 1.122871 0
M  V30 19 C -0.925285 -4.066703 0.559471 0
M  V30 20 N -2.112913 -4.279768 1.155377 0
M  V30 21 C -2.246252 -3.317120 2.099851 0
M  V30 22 C -3.448845 -3.206487 2.993598 0
M  V30 23 C -3.981821 -1.739877 3.102356 0
M  V30 24 C -3.306821 -2.443497 4.249483 0
M  V30 25 C -1.144256 -2.499111 2.098684 0
M  V30 26 H 1.532286 -4.430880 2.683628 0
M  V30 27 H 1.528415 -5.157164 0.991635 0
M  V30 28 H 3.050910 -4.781175 1.797336 0
M  V30 29 H 4.197069 -2.887694 1.078466 0
M  V30 30 H 3.966563 1.586110 -0.637027 0
M  V30 31 H 2.279577 2.571373 -3.269181 0
M  V30 32 H 1.262430 4.788977 -3.870577 0
M  V30 33 H 0.848794 6.485001 -2.060761 0
M  V30 34 H 1.456796 5.936640 0.309006 0
M  V30 35 H -0.033034 -0.590599 0.202963 0
M  V30 36 H -0.458877 -4.623213 -0.244023 0
M  V30 37 H -4.231356 -3.953891 2.846610 0
M  V30 38 H -3.468668 -0.971352 2.517824 0
M  V30 39 H -5.073964 -1.628120 3.099018 0
M  V30 40 H -2.310693 -2.091214 4.579404 0
M  V30 41 H -3.997836 -2.676826 5.092911 0
M  V30 42 H -1.039523 -1.673137 2.764130 0
M  V30 END ATOM
M  V30 BEGIN BOND
M  V30 1 1 1 2
M  V30 2 2 2 3
M  V30 3 1 3 4
M  V30 4 1 4 5
M  V30 5 2 4 6
M  V30 6 1 6 7
M  V30 7 2 7 8
M  V30 8 1 7 9
M  V30 9 1 9 10
M  V30 10 2 10 11
M  V30 11 1 11 12
M  V30 12 2 12 13
M  V30 13 1 13 14
M  V30 14 2 14 15
M  V30 15 1 6 16
M  V30 16 2 16 17
M  V30 17 1 17 18
M  V30 18 1 18 19
M  V30 19 2 19 20
M  V30 20 1 20 21
M  V30 21 1 21 22
M  V30 22 1 22 23
M  V30 23 1 23 24
M  V30 24 2 21 25
M  V30 25 1 17 2
M  V30 26 1 25 18
M  V30 27 1 15 10
M  V30 28 1 24 22
M  V30 29 1 1 26
M  V30 30 1 1 27
M  V30 31 1 1 28
M  V30 32 1 3 29
M  V30 33 1 9 30
M  V30 34 1 11 31
M  V30 35 1 12 32
M  V30 36 1 13 33
M  V30 37 1 14 34
M  V30 38 1 16 35
M  V30 39 1 19 36
M  V30 40 1 22 37
M  V30 41 1 23 38
M  V30 42 1 23 39
M  V30 43 1 24 40
M  V30 44 1 24 41
M  V30 45 1 25 42
M  V30 END BOND
M  V30 END CTAB
M  END
>  <Dataset>  (271) 
ChEMBL_Kinases

>  <Ligand_Instance>  (271) 
nan

>  <PDB_ID>  (271) 
nan

>  <Standardized_SMILES>  (271) 
Cc1cc(F)c(C(=O)Nc2ccccn2)cc1-n1cnc(C2CC2)c1

>  <Name>  (271) 
nan

>  <Pocket>  (271) 
nan

>  <ATP_Site>  (271) 
nan

>  <Peripheral>  (271) 
nan

>  <Num_H_Atoms_ProtBoundConf>  (271) 
nan

>  <Num_Resolved_Atoms>  (271) 
nan

>  <Num_Not_Resolved_Atoms>  (271) 
nan

$$$$
CHEMBL3980906
     RDKit          3D

  0  0  0  0  0  0  0  0  0  0999 V3000
M  V30 BEGIN CTAB
M  V30 COUNTS 39 44 0 0 0
M  V30 BEGIN ATOM
M  V30 1 C -0.814365 -4.238993 3.890689 0
M  V30 2 N -0.644877 -4.675169 2.647731 0
M  V30 3 C -0.884998 -3.690685 1.764100 0
M  V30 4 C -0.871865 -3.548245 0.396333 0
M  V30 5 C -1.189116 -2.331046 -0.168319 0
M  V30 6 C -1.536368 -1.185442 0.560505 0
M  V30 7 N -1.872310 0.043922 -0.011358 0
M  V30 8 C -3.172046 0.261492 -0.305405 0
M  V30 9 N -3.306778 1.500133 -0.849911 0
M  V30 10 C -2.080293 2.059280 -0.895557 0
M  V30 11 C -1.666513 3.297530 -1.354609 0
M  V30 12 N -0.336456 3.577319 -1.266069 0
M  V30 13 C 0.518121 2.670801 -0.750025 0
M  V30 14 C 1.854030 2.970697 -0.669063 0
M  V30 15 N 2.709360 2.072435 -0.156381 0
M  V30 16 C 2.377007 0.864182 0.302650 0
M  V30 17 C 3.423305 -0.000637 0.830948 0
M  V30 18 C 3.067134 -1.230505 1.295400 0
M  V30 19 C 4.184359 -2.032929 1.808343 0
M  V30 20 S 5.702701 -0.937743 1.581581 0
M  V30 21 C 4.774740 0.412391 0.866564 0
M  V30 22 C 1.040450 0.542419 0.230828 0
M  V30 23 C 0.135041 1.436561 -0.287896 0
M  V30 24 C -1.200056 1.139262 -0.369821 0
M  V30 25 C -1.525428 -1.416322 1.942752 0
M  V30 26 C -1.216241 -2.611276 2.555830 0
M  V30 27 N -1.171663 -2.950847 3.851241 0
M  V30 28 H -0.688419 -4.816599 4.795987 0
M  V30 29 H -0.612272 -4.394842 -0.219363 0
M  V30 30 H -1.178088 -2.220524 -1.251254 0
M  V30 31 H -4.070919 -0.334886 -0.193080 0
M  V30 32 H -2.368045 4.008864 -1.764357 0
M  V30 33 H 2.280892 3.920785 -1.004279 0
M  V30 34 H 2.113911 -1.712226 1.350760 0
M  V30 35 H 4.023302 -3.102446 2.235355 0
M  V30 36 H 5.182349 1.297764 0.555733 0
M  V30 37 H 0.779441 -0.428522 0.600624 0
M  V30 38 H -1.789993 -0.551817 2.557923 0
M  V30 39 H -1.382070 -2.304939 4.640981 0
M  V30 END ATOM
M  V30 BEGIN BOND
M  V30 1 2 1 2
M  V30 2 1 2 3
M  V30 3 2 3 4
M  V30 4 1 4 5
M  V30 5 2 5 6
M  V30 6 1 6 7
M  V30 7 1 7 8
M  V30 8 2 8 9
M  V30 9 1 9 10
M  V30 10 2 10 11
M  V30 11 1 11 12
M  V30 12 2 12 13
M  V30 13 1 13 14
M  V30 14 2 14 15
M  V30 15 1 15 16
M  V30 16 1 16 17
M  V30 17 1 17 18
M  V30 18 2 18 19
M  V30 19 1 19 20
M  V30 20 1 20 21
M  V30 21 2 16 22
M  V30 22 1 22 23
M  V30 23 2 23 24
M  V30 24 1 6 25
M  V30 25 2 25 26
M  V30 26 1 26 27
M  V30 27 1 27 1
M  V30 28 1 26 3
M  V30 29 1 24 7
M  V30 30 1 24 10
M  V30 31 1 23 13
M  V30 32 2 21 17
M  V30 33 1 1 28
M  V30 34 1 4 29
M  V30 35 1 5 30
M  V30 36 1 8 31
M  V30 37 1 11 32
M  V30 38 1 14 33
M  V30 39 1 18 34
M  V30 40 1 19 35
M  V30 41 1 21 36
M  V30 42 1 22 37
M  V30 43 1 25 38
M  V30 44 1 27 39
M  V30 END BOND
M  V30 END CTAB
M  END
>  <Dataset>  (272) 
ChEMBL_Kinases

>  <Ligand_Instance>  (272) 
nan

>  <PDB_ID>  (272) 
nan

>  <Standardized_SMILES>  (272) 
c1nc2ccc(-n3cnc4cnc5cnc(-c6ccsc6)cc5c43)cc2[nH]1

>  <Name>  (272) 
nan

>  <Pocket>  (272) 
nan

>  <ATP_Site>  (272) 
nan

>  <Peripheral>  (272) 
nan

>  <Num_H_Atoms_ProtBoundConf>  (272) 
nan

>  <Num_Resolved_Atoms>  (272) 
nan

>  <Num_Not_Resolved_Atoms>  (272) 
nan

$$$$
CHEMBL3980850
     RDKit          3D

  0  0  0  0  0  0  0  0  0  0999 V3000
M  V30 BEGIN CTAB
M  V30 COUNTS 43 46 0 0 0
M  V30 BEGIN ATOM
M  V30 1 C 1.475733 -3.648278 -2.592388 0
M  V30 2 C 0.997608 -2.422607 -2.590808 0
M  V30 3 C 0.802544 -1.910192 -3.919158 0
M  V30 4 C 0.533114 -0.621576 -4.303114 0
M  V30 5 C 0.284068 -0.114391 -5.555563 0
M  V30 6 C 0.314131 -1.049792 -6.565327 0
M  V30 7 Cl 0.011461 -0.526702 -8.209520 0
M  V30 8 C 0.575203 -2.374918 -6.306481 0
M  V30 9 C 0.808007 -2.756150 -5.007137 0
M  V30 10 C 0.796022 -1.916206 -1.261535 0
M  V30 11 C 0.114175 -0.786656 -0.884373 0
M  V30 12 C -0.043677 -0.245033 0.369511 0
M  V30 13 C 0.573380 -0.945086 1.383454 0
M  V30 14 C 0.468943 -0.455780 2.755953 0
M  V30 15 N -0.187309 0.650000 3.163692 0
M  V30 16 C -0.072042 0.793338 4.495787 0
M  V30 17 C -0.604778 1.799249 5.274693 0
M  V30 18 C -0.364834 1.756241 6.625580 0
M  V30 19 C -0.841593 2.725899 7.602460 0
M  V30 20 N -1.612140 3.789122 7.061065 0
M  V30 21 O -0.679281 2.770723 8.847594 0
M  V30 22 C 0.394482 0.712504 7.134194 0
M  V30 23 C 0.909154 -0.278263 6.302803 0
M  V30 24 C 0.687502 -0.266193 4.939916 0
M  V30 25 N 1.007725 -1.014746 3.871961 0
M  V30 26 C 1.284389 -2.093942 1.124074 0
M  V30 27 C 1.371769 -2.537430 -0.174998 0
M  V30 28 H 1.784178 -4.444742 -1.958626 0
M  V30 29 H 1.791287 -4.454719 -3.210618 0
M  V30 30 H 0.544235 0.124180 -3.531343 0
M  V30 31 H 0.082618 0.920520 -5.736872 0
M  V30 32 H 0.585002 -3.059824 -7.142151 0
M  V30 33 H 1.000517 -3.833441 -4.932817 0
M  V30 34 H -0.401577 -0.251630 -1.648570 0
M  V30 35 H -0.601158 0.651490 0.555085 0
M  V30 36 H -1.189801 2.605936 4.894533 0
M  V30 37 H -2.269698 4.544441 7.349306 0
M  V30 38 H -1.748798 4.154571 6.093641 0
M  V30 39 H 0.605195 0.648236 8.210143 0
M  V30 40 H 1.503507 -1.093498 6.709266 0
M  V30 41 H 1.576510 -1.872346 3.937232 0
M  V30 42 H 1.744330 -2.596256 1.961750 0
M  V30 43 H 1.964864 -3.455431 -0.243504 0
M  V30 END ATOM
M  V30 BEGIN BOND
M  V30 1 2 1 2
M  V30 2 1 2 3
M  V30 3 2 3 4
M  V30 4 1 4 5
M  V30 5 2 5 6
M  V30 6 1 6 7
M  V30 7 1 6 8
M  V30 8 2 8 9
M  V30 9 1 2 10
M  V30 10 2 10 11
M  V30 11 1 11 12
M  V30 12 2 12 13
M  V30 13 1 13 14
M  V30 14 2 14 15
M  V30 15 1 15 16
M  V30 16 2 16 17
M  V30 17 1 17 18
M  V30 18 1 18 19
M  V30 19 1 19 20
M  V30 20 2 19 21
M  V30 21 2 18 22
M  V30 22 1 22 23
M  V30 23 2 23 24
M  V30 24 1 24 25
M  V30 25 1 13 26
M  V30 26 2 26 27
M  V30 27 1 9 3
M  V30 28 1 27 10
M  V30 29 1 25 14
M  V30 30 1 24 16
M  V30 31 1 1 28
M  V30 32 1 1 29
M  V30 33 1 4 30
M  V30 34 1 5 31
M  V30 35 1 8 32
M  V30 36 1 9 33
M  V30 37 1 11 34
M  V30 38 1 12 35
M  V30 39 1 17 36
M  V30 40 1 20 37
M  V30 41 1 20 38
M  V30 42 1 22 39
M  V30 43 1 23 40
M  V30 44 1 25 41
M  V30 45 1 26 42
M  V30 46 1 27 43
M  V30 END BOND
M  V30 END CTAB
M  END
>  <Dataset>  (273) 
ChEMBL_Kinases

>  <Ligand_Instance>  (273) 
nan

>  <PDB_ID>  (273) 
nan

>  <Standardized_SMILES>  (273) 
C=C(c1ccc(Cl)cc1)c1ccc(-c2nc3cc(C(N)=O)ccc3[nH]2)cc1

>  <Name>  (273) 
nan

>  <Pocket>  (273) 
nan

>  <ATP_Site>  (273) 
nan

>  <Peripheral>  (273) 
nan

>  <Num_H_Atoms_ProtBoundConf>  (273) 
nan

>  <Num_Resolved_Atoms>  (273) 
nan

>  <Num_Not_Resolved_Atoms>  (273) 
nan

$$$$
CHEMBL3980780
     RDKit          3D

  0  0  0  0  0  0  0  0  0  0999 V3000
M  V30 BEGIN CTAB
M  V30 COUNTS 47 51 0 0 0
M  V30 BEGIN ATOM
M  V30 1 C -0.045713 -2.879628 4.675295 0
M  V30 2 C 1.020192 -2.137038 3.960048 0
M  V30 3 C 2.352258 -2.451177 4.161464 0
M  V30 4 C 3.306469 -1.732002 3.472284 0
M  V30 5 C 2.939091 -0.708281 2.589622 0
M  V30 6 C 1.601918 -0.425302 2.416019 0
M  V30 7 N 1.430683 0.647207 1.478086 0
M  V30 8 C 1.365002 2.053594 1.708862 0
M  V30 9 O 1.450641 2.521498 2.868923 0
M  V30 10 C 1.194173 2.650480 0.366432 0
M  V30 11 C 1.083603 3.993571 0.073418 0
M  V30 12 C 0.931839 4.360919 -1.253301 0
M  V30 13 C 0.899312 3.367642 -2.209015 0
M  V30 14 C 1.014993 2.030156 -1.859324 0
M  V30 15 C 1.167318 1.619244 -0.553534 0
M  V30 16 C 1.305312 0.304630 0.073410 0
M  V30 17 O 2.554651 -0.232682 -0.305337 0
M  V30 18 C 0.296498 -0.671228 -0.258195 0
M  V30 19 C 0.497726 -1.879142 -0.902113 0
M  V30 20 C -0.489167 -2.797556 -1.211509 0
M  V30 21 C -1.778959 -2.439839 -0.826391 0
M  V30 22 C -2.065334 -1.254635 -0.180604 0
M  V30 23 C -1.024772 -0.390577 0.092828 0
M  V30 24 N -3.396638 -0.918245 0.198210 0
M  V30 25 C -4.449583 -1.833860 -0.101502 0
M  V30 26 O -5.678012 -1.493555 -0.136686 0
M  V30 27 C -4.053341 -3.259561 -0.384001 0
M  V30 28 O -2.830796 -3.303539 -1.097832 0
M  V30 29 C 0.633546 -1.133669 3.096458 0
M  V30 30 H 0.255168 -3.051042 5.726816 0
M  V30 31 H -0.988948 -2.315779 4.660359 0
M  V30 32 H -0.191038 -3.874054 4.185407 0
M  V30 33 H 2.600854 -3.248138 4.850520 0
M  V30 34 H 4.338513 -1.988480 3.639905 0
M  V30 35 H 3.782140 -0.222650 2.112927 0
M  V30 36 H 1.112563 4.752015 0.842568 0
M  V30 37 H 0.847080 5.406934 -1.467574 0
M  V30 38 H 0.778745 3.681928 -3.249205 0
M  V30 39 H 0.974920 1.339924 -2.701179 0
M  V30 40 H 2.604493 -0.312121 -1.272855 0
M  V30 41 H 1.538176 -2.090968 -1.173892 0
M  V30 42 H -0.281403 -3.722984 -1.713004 0
M  V30 43 H -1.274689 0.531695 0.599768 0
M  V30 44 H -3.641109 -0.028774 0.687691 0
M  V30 45 H -3.906563 -3.819681 0.560762 0
M  V30 46 H -4.813854 -3.768713 -0.998666 0
M  V30 47 H -0.377870 -0.820807 2.879233 0
M  V30 END ATOM
M  V30 BEGIN BOND
M  V30 1 1 1 2
M  V30 2 2 2 3
M  V30 3 1 3 4
M  V30 4 2 4 5
M  V30 5 1 5 6
M  V30 6 1 6 7
M  V30 7 1 7 8
M  V30 8 2 8 9
M  V30 9 1 8 10
M  V30 10 2 10 11
M  V30 11 1 11 12
M  V30 12 2 12 13
M  V30 13 1 13 14
M  V30 14 2 14 15
M  V30 15 1 15 16
M  V30 16 1 16 17
M  V30 17 1 16 18
M  V30 18 2 18 19
M  V30 19 1 19 20
M  V30 20 2 20 21
M  V30 21 1 21 22
M  V30 22 2 22 23
M  V30 23 1 22 24
M  V30 24 1 24 25
M  V30 25 2 25 26
M  V30 26 1 25 27
M  V30 27 1 27 28
M  V30 28 2 6 29
M  V30 29 1 29 2
M  V30 30 1 16 7
M  V30 31 1 23 18
M  V30 32 1 15 10
M  V30 33 1 28 21
M  V30 34 1 1 30
M  V30 35 1 1 31
M  V30 36 1 1 32
M  V30 37 1 3 33
M  V30 38 1 4 34
M  V30 39 1 5 35
M  V30 40 1 11 36
M  V30 41 1 12 37
M  V30 42 1 13 38
M  V30 43 1 14 39
M  V30 44 1 17 40
M  V30 45 1 19 41
M  V30 46 1 20 42
M  V30 47 1 23 43
M  V30 48 1 24 44
M  V30 49 1 27 45
M  V30 50 1 27 46
M  V30 51 1 29 47
M  V30 END BOND
M  V30 END CTAB
M  END
>  <Dataset>  (274) 
ChEMBL_Kinases

>  <Ligand_Instance>  (274) 
nan

>  <PDB_ID>  (274) 
nan

>  <Standardized_SMILES>  (274) 
Cc1cccc(N2C(=O)c3ccccc3C2(O)c2ccc3c(c2)NC(=O)CO3)c1

>  <Name>  (274) 
nan

>  <Pocket>  (274) 
nan

>  <ATP_Site>  (274) 
nan

>  <Peripheral>  (274) 
nan

>  <Num_H_Atoms_ProtBoundConf>  (274) 
nan

>  <Num_Resolved_Atoms>  (274) 
nan

>  <Num_Not_Resolved_Atoms>  (274) 
nan

$$$$
CHEMBL3980773
     RDKit          3D

  0  0  0  0  0  0  0  0  0  0999 V3000
M  V30 BEGIN CTAB
M  V30 COUNTS 50 54 0 0 0
M  V30 BEGIN ATOM
M  V30 1 C 1.050363 -3.461818 4.579951 0
M  V30 2 C 0.646944 -3.725082 3.145208 0
M  V30 3 C 1.523910 -2.976356 2.210411 0
M  V30 4 C 2.669496 -3.627446 1.775861 0
M  V30 5 C 3.498963 -2.951004 0.907814 0
M  V30 6 C 3.164059 -1.676737 0.512211 0
M  V30 7 C 2.037138 -1.001033 0.922625 0
M  V30 8 N 1.716081 0.315168 0.502487 0
M  V30 9 C 2.441009 1.177217 -0.363168 0
M  V30 10 O 3.523801 0.937223 -0.953405 0
M  V30 11 C 1.769113 2.462709 -0.519681 0
M  V30 12 C 2.033179 3.626197 -1.214655 0
M  V30 13 C 1.201844 4.725414 -1.172108 0
M  V30 14 C 0.061235 4.637567 -0.394662 0
M  V30 15 C -0.196611 3.472052 0.296982 0
M  V30 16 C 0.618871 2.368574 0.266284 0
M  V30 17 C 0.528521 1.035619 0.912876 0
M  V30 18 O 0.504599 1.183862 2.283605 0
M  V30 19 C -0.711505 0.323686 0.468186 0
M  V30 20 C -1.936705 0.706594 0.970044 0
M  V30 21 C -3.131753 0.098892 0.603783 0
M  V30 22 C -3.108573 -0.942235 -0.307343 0
M  V30 23 C -1.894080 -1.344429 -0.824545 0
M  V30 24 C -0.716123 -0.731340 -0.451318 0
M  V30 25 N -1.881558 -2.416245 -1.761614 0
M  V30 26 C -3.084235 -3.089942 -2.185038 0
M  V30 27 O -3.011152 -3.728636 -3.248001 0
M  V30 28 C -4.243478 -2.906120 -1.258530 0
M  V30 29 O -4.252325 -1.603117 -0.726877 0
M  V30 30 C 1.233974 -1.697677 1.783287 0
M  V30 31 H 0.484595 -2.578962 4.987219 0
M  V30 32 H 2.133622 -3.244473 4.680468 0
M  V30 33 H 0.740760 -4.337497 5.180266 0
M  V30 34 H 0.705704 -4.815797 2.978759 0
M  V30 35 H -0.400288 -3.372385 3.022299 0
M  V30 36 H 2.887779 -4.629383 2.116158 0
M  V30 37 H 4.395482 -3.445167 0.560516 0
M  V30 38 H 3.865519 -1.217399 -0.167607 0
M  V30 39 H 2.952871 3.642211 -1.816733 0
M  V30 40 H 1.412630 5.634424 -1.717940 0
M  V30 41 H -0.575990 5.510748 -0.375704 0
M  V30 42 H -1.114040 3.528705 0.865640 0
M  V30 43 H 1.398379 1.422626 2.595976 0
M  V30 44 H -2.073284 1.493198 1.676700 0
M  V30 45 H -4.099740 0.398202 0.997362 0
M  V30 46 H 0.227701 -1.044979 -0.854451 0
M  V30 47 H -0.956254 -2.737487 -2.168393 0
M  V30 48 H -4.282779 -3.703624 -0.483753 0
M  V30 49 H -5.190246 -3.032696 -1.850774 0
M  V30 50 H 0.334097 -1.303259 2.182587 0
M  V30 END ATOM
M  V30 BEGIN BOND
M  V30 1 1 1 2
M  V30 2 1 2 3
M  V30 3 2 3 4
M  V30 4 1 4 5
M  V30 5 2 5 6
M  V30 6 1 6 7
M  V30 7 1 7 8
M  V30 8 1 8 9
M  V30 9 2 9 10
M  V30 10 1 9 11
M  V30 11 2 11 12
M  V30 12 1 12 13
M  V30 13 2 13 14
M  V30 14 1 14 15
M  V30 15 2 15 16
M  V30 16 1 16 17
M  V30 17 1 17 18
M  V30 18 1 17 19
M  V30 19 2 19 20
M  V30 20 1 20 21
M  V30 21 2 21 22
M  V30 22 1 22 23
M  V30 23 2 23 24
M  V30 24 1 23 25
M  V30 25 1 25 26
M  V30 26 2 26 27
M  V30 27 1 26 28
M  V30 28 1 28 29
M  V30 29 2 7 30
M  V30 30 1 30 3
M  V30 31 1 17 8
M  V30 32 1 24 19
M  V30 33 1 16 11
M  V30 34 1 29 22
M  V30 35 1 1 31
M  V30 36 1 1 32
M  V30 37 1 1 33
M  V30 38 1 2 34
M  V30 39 1 2 35
M  V30 40 1 4 36
M  V30 41 1 5 37
M  V30 42 1 6 38
M  V30 43 1 12 39
M  V30 44 1 13 40
M  V30 45 1 14 41
M  V30 46 1 15 42
M  V30 47 1 18 43
M  V30 48 1 20 44
M  V30 49 1 21 45
M  V30 50 1 24 46
M  V30 51 1 25 47
M  V30 52 1 28 48
M  V30 53 1 28 49
M  V30 54 1 30 50
M  V30 END BOND
M  V30 END CTAB
M  END
>  <Dataset>  (275) 
ChEMBL_Kinases

>  <Ligand_Instance>  (275) 
nan

>  <PDB_ID>  (275) 
nan

>  <Standardized_SMILES>  (275) 
CCc1cccc(N2C(=O)c3ccccc3C2(O)c2ccc3c(c2)NC(=O)CO3)c1

>  <Name>  (275) 
nan

>  <Pocket>  (275) 
nan

>  <ATP_Site>  (275) 
nan

>  <Peripheral>  (275) 
nan

>  <Num_H_Atoms_ProtBoundConf>  (275) 
nan

>  <Num_Resolved_Atoms>  (275) 
nan

>  <Num_Not_Resolved_Atoms>  (275) 
nan

$$$$
CHEMBL3980696
     RDKit          3D

  0  0  0  0  0  0  0  0  0  0999 V3000
M  V30 BEGIN CTAB
M  V30 COUNTS 60 63 0 0 0
M  V30 BEGIN ATOM
M  V30 1 C 1.829592 1.581420 4.336436 0
M  V30 2 N 1.863482 1.693967 2.901975 0
M  V30 3 C 2.920030 1.342707 2.028995 0
M  V30 4 C 4.027602 0.717493 2.543491 0
M  V30 5 C 5.091422 0.336830 1.753656 0
M  V30 6 C 6.313801 -0.347651 2.286895 0
M  V30 7 O 6.091491 -1.721960 2.237112 0
M  V30 8 C 5.096462 0.568013 0.389316 0
M  V30 9 C 3.995519 1.190352 -0.126188 0
M  V30 10 C 2.950021 1.559423 0.680280 0
M  V30 11 Cl 1.608776 2.356042 -0.094205 0
M  V30 12 C 0.603883 2.229136 2.552947 0
M  V30 13 N -0.214245 1.410943 1.880992 0
M  V30 14 C -1.448685 1.735036 1.482228 0
M  V30 15 N -2.342192 0.892126 0.768803 0
M  V30 16 C -2.127608 -0.441584 0.336490 0
M  V30 17 C -3.104681 -1.132343 -0.358302 0
M  V30 18 C -2.968722 -2.418898 -0.805735 0
M  V30 19 N -4.018604 -3.052954 -1.503045 0
M  V30 20 C -5.361347 -2.554407 -1.728566 0
M  V30 21 C -5.421037 -2.123131 -3.192244 0
M  V30 22 O -4.732998 -3.066730 -3.952498 0
M  V30 23 C -4.742429 -4.315224 -3.381205 0
M  V30 24 C -3.867860 -4.356671 -2.119206 0
M  V30 25 C -1.817992 -3.102055 -0.576439 0
M  V30 26 C -0.798721 -2.480872 0.109128 0
M  V30 27 S 0.723751 -3.320909 0.437684 0
M  V30 28 C 1.894013 -3.072217 -0.856133 0
M  V30 29 O 0.485274 -4.778214 0.668479 0
M  V30 30 O 1.266238 -2.721648 1.716427 0
M  V30 31 C -0.985010 -1.185765 0.538153 0
M  V30 32 N -1.853751 2.970333 1.796845 0
M  V30 33 C -1.088422 3.835284 2.464589 0
M  V30 34 C 0.167343 3.487015 2.862877 0
M  V30 35 F 0.983220 4.327195 3.537484 0
M  V30 36 H 2.734037 1.116298 4.769850 0
M  V30 37 H 0.963063 0.946644 4.691693 0
M  V30 38 H 1.675317 2.579762 4.815122 0
M  V30 39 H 4.195529 0.460003 3.568324 0
M  V30 40 H 7.199055 -0.097280 1.667991 0
M  V30 41 H 6.471565 -0.051949 3.348608 0
M  V30 42 H 6.133189 -2.071512 1.320637 0
M  V30 43 H 5.907832 0.286533 -0.265506 0
M  V30 44 H 3.978842 1.380579 -1.189968 0
M  V30 45 H -3.278252 1.286463 0.523509 0
M  V30 46 H -4.040933 -0.626523 -0.566187 0
M  V30 47 H -6.145201 -3.338243 -1.579115 0
M  V30 48 H -5.655710 -1.722357 -1.071691 0
M  V30 49 H -6.435263 -1.926655 -3.549497 0
M  V30 50 H -4.869497 -1.150063 -3.242892 0
M  V30 51 H -5.745851 -4.659659 -3.061431 0
M  V30 52 H -4.371264 -5.046555 -4.129580 0
M  V30 53 H -4.183965 -5.181405 -1.474607 0
M  V30 54 H -2.797662 -4.485880 -2.455199 0
M  V30 55 H -1.598834 -4.127420 -0.882414 0
M  V30 56 H 2.037428 -4.022133 -1.411975 0
M  V30 57 H 2.864089 -2.760363 -0.428529 0
M  V30 58 H 1.519884 -2.264968 -1.520529 0
M  V30 59 H -0.156793 -0.750988 1.067804 0
M  V30 60 H -1.461547 4.842627 2.702933 0
M  V30 END ATOM
M  V30 BEGIN BOND
M  V30 1 1 1 2
M  V30 2 1 2 3
M  V30 3 2 3 4
M  V30 4 1 4 5
M  V30 5 1 5 6
M  V30 6 1 6 7
M  V30 7 2 5 8
M  V30 8 1 8 9
M  V30 9 2 9 10
M  V30 10 1 10 11
M  V30 11 1 2 12
M  V30 12 2 12 13
M  V30 13 1 13 14
M  V30 14 1 14 15
M  V30 15 1 15 16
M  V30 16 2 16 17
M  V30 17 1 17 18
M  V30 18 1 18 19
M  V30 19 1 19 20
M  V30 20 1 20 21
M  V30 21 1 21 22
M  V30 22 1 22 23
M  V30 23 1 23 24
M  V30 24 2 18 25
M  V30 25 1 25 26
M  V30 26 1 26 27
M  V30 27 1 27 28
M  V30 28 2 27 29
M  V30 29 2 27 30
M  V30 30 2 26 31
M  V30 31 2 14 32
M  V30 32 1 32 33
M  V30 33 2 33 34
M  V30 34 1 34 35
M  V30 35 1 10 3
M  V30 36 1 34 12
M  V30 37 1 31 16
M  V30 38 1 24 19
M  V30 39 1 1 36
M  V30 40 1 1 37
M  V30 41 1 1 38
M  V30 42 1 4 39
M  V30 43 1 6 40
M  V30 44 1 6 41
M  V30 45 1 7 42
M  V30 46 1 8 43
M  V30 47 1 9 44
M  V30 48 1 15 45
M  V30 49 1 17 46
M  V30 50 1 20 47
M  V30 51 1 20 48
M  V30 52 1 21 49
M  V30 53 1 21 50
M  V30 54 1 23 51
M  V30 55 1 23 52
M  V30 56 1 24 53
M  V30 57 1 24 54
M  V30 58 1 25 55
M  V30 59 1 28 56
M  V30 60 1 28 57
M  V30 61 1 28 58
M  V30 62 1 31 59
M  V30 63 1 33 60
M  V30 END BOND
M  V30 END CTAB
M  END
>  <Dataset>  (276) 
ChEMBL_Kinases

>  <Ligand_Instance>  (276) 
nan

>  <PDB_ID>  (276) 
nan

>  <Standardized_SMILES>  (276) 
CN(c1cc(CO)ccc1Cl)c1nc(Nc2cc(N3CCOCC3)cc(S(C)(=O)=O)c2)ncc1F

>  <Name>  (276) 
nan

>  <Pocket>  (276) 
nan

>  <ATP_Site>  (276) 
nan

>  <Peripheral>  (276) 
nan

>  <Num_H_Atoms_ProtBoundConf>  (276) 
nan

>  <Num_Resolved_Atoms>  (276) 
nan

>  <Num_Not_Resolved_Atoms>  (276) 
nan

$$$$
CHEMBL398149
     RDKit          3D

  0  0  0  0  0  0  0  0  0  0999 V3000
M  V30 BEGIN CTAB
M  V30 COUNTS 42 45 0 0 0
M  V30 BEGIN ATOM
M  V30 1 C 1.984465 -5.619320 1.254486 0
M  V30 2 C 1.341416 -4.826581 0.200560 0
M  V30 3 O 0.132749 -5.080338 0.022822 0
M  V30 4 N 2.000179 -3.839503 -0.580660 0
M  V30 5 C 1.443468 -3.037403 -1.615561 0
M  V30 6 C 1.450789 -3.453918 -2.930897 0
M  V30 7 C 0.914305 -2.671842 -3.932037 0
M  V30 8 C 0.362991 -1.452523 -3.600893 0
M  V30 9 C 0.325806 -0.975244 -2.283570 0
M  V30 10 N -0.236689 0.303265 -1.938852 0
M  V30 11 C -0.320041 0.651444 -0.564223 0
M  V30 12 N 0.645817 1.173577 0.208843 0
M  V30 13 C 0.393156 1.459110 1.521078 0
M  V30 14 N 1.429027 2.001614 2.304251 0
M  V30 15 C 1.375922 2.350417 3.683850 0
M  V30 16 C 2.532180 2.932893 4.403825 0
M  V30 17 C 1.332592 3.767844 4.052361 0
M  V30 18 N -0.815862 1.230150 2.074612 0
M  V30 19 N -1.374548 1.386319 3.256471 0
M  V30 20 C -2.657870 0.986388 3.274007 0
M  V30 21 C -2.962640 0.533542 2.006541 0
M  V30 22 C -4.211070 0.005047 1.517311 0
M  V30 23 N -5.214706 -0.421335 1.108855 0
M  V30 24 C -1.792564 0.701083 1.289778 0
M  V30 25 N -1.518642 0.428363 0.000739 0
M  V30 26 C 0.877022 -1.804128 -1.335033 0
M  V30 27 H 3.078834 -5.451525 1.342655 0
M  V30 28 H 1.750826 -6.684127 1.090567 0
M  V30 29 H 1.549322 -5.350835 2.254561 0
M  V30 30 H 3.026393 -3.707663 -0.341969 0
M  V30 31 H 1.890658 -4.423685 -3.184022 0
M  V30 32 H 0.906554 -2.981875 -4.990586 0
M  V30 33 H -0.086628 -0.769558 -4.335818 0
M  V30 34 H -0.545201 0.887946 -2.743838 0
M  V30 35 H 2.369816 2.190073 1.868322 0
M  V30 36 H 0.735736 1.659124 4.299909 0
M  V30 37 H 2.651634 2.702763 5.480721 0
M  V30 38 H 3.489010 3.192009 3.905300 0
M  V30 39 H 0.660021 4.103745 4.896911 0
M  V30 40 H 1.432767 4.562958 3.279661 0
M  V30 41 H -3.342903 1.006689 4.112138 0
M  V30 42 H 0.860803 -1.457505 -0.301461 0
M  V30 END ATOM
M  V30 BEGIN BOND
M  V30 1 1 1 2
M  V30 2 2 2 3
M  V30 3 1 2 4
M  V30 4 1 4 5
M  V30 5 2 5 6
M  V30 6 1 6 7
M  V30 7 2 7 8
M  V30 8 1 8 9
M  V30 9 1 9 10
M  V30 10 1 10 11
M  V30 11 1 11 12
M  V30 12 2 12 13
M  V30 13 1 13 14
M  V30 14 1 14 15
M  V30 15 1 15 16
M  V30 16 1 16 17
M  V30 17 1 13 18
M  V30 18 1 18 19
M  V30 19 2 19 20
M  V30 20 1 20 21
M  V30 21 1 21 22
M  V30 22 3 22 23
M  V30 23 2 21 24
M  V30 24 1 24 25
M  V30 25 2 9 26
M  V30 26 1 26 5
M  V30 27 2 25 11
M  V30 28 1 17 15
M  V30 29 1 24 18
M  V30 30 1 1 27
M  V30 31 1 1 28
M  V30 32 1 1 29
M  V30 33 1 4 30
M  V30 34 1 6 31
M  V30 35 1 7 32
M  V30 36 1 8 33
M  V30 37 1 10 34
M  V30 38 1 14 35
M  V30 39 1 15 36
M  V30 40 1 16 37
M  V30 41 1 16 38
M  V30 42 1 17 39
M  V30 43 1 17 40
M  V30 44 1 20 41
M  V30 45 1 26 42
M  V30 END BOND
M  V30 END CTAB
M  END
>  <Dataset>  (277) 
ChEMBL_Kinases

>  <Ligand_Instance>  (277) 
nan

>  <PDB_ID>  (277) 
nan

>  <Standardized_SMILES>  (277) 
CC(=O)Nc1cccc(Nc2nc(NC3CC3)n3ncc(C#N)c3n2)c1

>  <Name>  (277) 
nan

>  <Pocket>  (277) 
nan

>  <ATP_Site>  (277) 
nan

>  <Peripheral>  (277) 
nan

>  <Num_H_Atoms_ProtBoundConf>  (277) 
nan

>  <Num_Resolved_Atoms>  (277) 
nan

>  <Num_Not_Resolved_Atoms>  (277) 
nan

$$$$
CHEMBL3964913
     RDKit          3D

  0  0  0  0  0  0  0  0  0  0999 V3000
M  V30 BEGIN CTAB
M  V30 COUNTS 47 50 0 0 0
M  V30 BEGIN ATOM
M  V30 1 N 7.644213 -1.699314 -2.672737 0
M  V30 2 C 7.308562 -2.432861 -1.501312 0
M  V30 3 O 8.128173 -3.253112 -1.015648 0
M  V30 4 C 5.996312 -2.232769 -0.852468 0
M  V30 5 C 5.705700 -2.957401 0.276037 0
M  V30 6 C 4.465033 -2.763217 0.882698 0
M  V30 7 C 3.575576 -1.858742 0.337436 0
M  V30 8 N 2.343688 -1.538159 0.775857 0
M  V30 9 C 1.849688 -0.608196 -0.074872 0
M  V30 10 C 0.533899 0.019561 0.027536 0
M  V30 11 C -0.287564 -0.356167 1.073758 0
M  V30 12 C -1.512164 0.287530 1.092872 0
M  V30 13 C -1.938404 1.231582 0.178142 0
M  V30 14 S -3.470409 2.014597 0.229911 0
M  V30 15 O -3.369822 3.410773 -0.345390 0
M  V30 16 O -3.882979 2.176728 1.665205 0
M  V30 17 N -4.707899 1.201766 -0.635187 0
M  V30 18 C -4.450796 1.076630 -2.031691 0
M  V30 19 C -5.545716 0.364957 -2.757033 0
M  V30 20 C -5.587695 -1.003863 -2.946866 0
M  V30 21 C -6.634851 -1.593934 -3.629644 0
M  V30 22 C -7.664062 -0.800452 -4.134846 0
M  V30 23 C -7.632886 0.567432 -3.951466 0
M  V30 24 C -6.573825 1.162417 -3.261109 0
M  V30 25 C -1.067749 1.565555 -0.848473 0
M  V30 26 C 0.168167 0.956651 -0.919943 0
M  V30 27 N 2.786648 -0.379277 -1.013868 0
M  V30 28 C 3.880308 -1.133743 -0.801229 0
M  V30 29 C 5.112426 -1.331549 -1.397340 0
M  V30 30 H 7.133452 -2.381539 -3.296799 0
M  V30 31 H 8.145813 -0.854925 -3.027572 0
M  V30 32 H 6.453222 -3.647101 0.644020 0
M  V30 33 H 4.306423 -3.367210 1.765556 0
M  V30 34 H 1.840592 -1.906806 1.594805 0
M  V30 35 H -0.020173 -1.086090 1.823870 0
M  V30 36 H -2.235690 0.071589 1.867063 0
M  V30 37 H -4.838641 0.249102 -0.228357 0
M  V30 38 H -4.272782 2.017367 -2.554866 0
M  V30 39 H -3.511503 0.469345 -2.181674 0
M  V30 40 H -4.783042 -1.599178 -2.548807 0
M  V30 41 H -6.686669 -2.658595 -3.788494 0
M  V30 42 H -8.524804 -1.187470 -4.684293 0
M  V30 43 H -8.436815 1.205010 -4.343838 0
M  V30 44 H -6.598590 2.232123 -3.146440 0
M  V30 45 H -1.348491 2.293304 -1.586493 0
M  V30 46 H 0.823757 1.239553 -1.733241 0
M  V30 47 H 5.310536 -0.746568 -2.283360 0
M  V30 END ATOM
M  V30 BEGIN BOND
M  V30 1 1 1 2
M  V30 2 2 2 3
M  V30 3 1 2 4
M  V30 4 2 4 5
M  V30 5 1 5 6
M  V30 6 2 6 7
M  V30 7 1 7 8
M  V30 8 1 8 9
M  V30 9 1 9 10
M  V30 10 2 10 11
M  V30 11 1 11 12
M  V30 12 2 12 13
M  V30 13 1 13 14
M  V30 14 2 14 15
M  V30 15 2 14 16
M  V30 16 1 14 17
M  V30 17 1 17 18
M  V30 18 1 18 19
M  V30 19 2 19 20
M  V30 20 1 20 21
M  V30 21 2 21 22
M  V30 22 1 22 23
M  V30 23 2 23 24
M  V30 24 1 13 25
M  V30 25 2 25 26
M  V30 26 2 9 27
M  V30 27 1 27 28
M  V30 28 2 28 29
M  V30 29 1 29 4
M  V30 30 1 28 7
M  V30 31 1 26 10
M  V30 32 1 24 19
M  V30 33 1 1 30
M  V30 34 1 1 31
M  V30 35 1 5 32
M  V30 36 1 6 33
M  V30 37 1 8 34
M  V30 38 1 11 35
M  V30 39 1 12 36
M  V30 40 1 17 37
M  V30 41 1 18 38
M  V30 42 1 18 39
M  V30 43 1 20 40
M  V30 44 1 21 41
M  V30 45 1 22 42
M  V30 46 1 23 43
M  V30 47 1 24 44
M  V30 48 1 25 45
M  V30 49 1 26 46
M  V30 50 1 29 47
M  V30 END BOND
M  V30 END CTAB
M  END
>  <Dataset>  (278) 
ChEMBL_Kinases

>  <Ligand_Instance>  (278) 
nan

>  <PDB_ID>  (278) 
nan

>  <Standardized_SMILES>  (278) 
NC(=O)c1ccc2[nH]c(-c3ccc(S(=O)(=O)NCc4ccccc4)cc3)nc2c1

>  <Name>  (278) 
nan

>  <Pocket>  (278) 
nan

>  <ATP_Site>  (278) 
nan

>  <Peripheral>  (278) 
nan

>  <Num_H_Atoms_ProtBoundConf>  (278) 
nan

>  <Num_Resolved_Atoms>  (278) 
nan

>  <Num_Not_Resolved_Atoms>  (278) 
nan

$$$$
CHEMBL396487
     RDKit          3D

  0  0  0  0  0  0  0  0  0  0999 V3000
M  V30 BEGIN CTAB
M  V30 COUNTS 32 33 0 0 0
M  V30 BEGIN ATOM
M  V30 1 C 0.161593 -1.262337 3.440057 0
M  V30 2 C 1.123277 -2.427467 3.483501 0
M  V30 3 O 0.724604 -3.451703 2.595169 0
M  V30 4 C 0.643161 -3.147060 1.240383 0
M  V30 5 N 0.256696 -4.196627 0.502923 0
M  V30 6 C 0.110428 -4.138980 -0.830247 0
M  V30 7 C 0.365438 -2.957319 -1.472002 0
M  V30 8 C 0.767642 -1.857375 -0.717443 0
M  V30 9 N 1.132948 -0.472390 -0.941571 0
M  V30 10 C 0.541339 0.641272 -0.317433 0
M  V30 11 C 1.431671 1.345688 0.476809 0
M  V30 12 C 1.101673 2.472914 1.198762 0
M  V30 13 C -0.217558 2.936535 1.125637 0
M  V30 14 C -1.122817 2.256841 0.343737 0
M  V30 15 C -0.736037 1.140415 -0.353130 0
M  V30 16 C -1.675232 0.435165 -1.208802 0
M  V30 17 O -1.635724 -0.545272 -1.964390 0
M  V30 18 O -3.006154 0.774447 -1.374055 0
M  V30 19 N 0.905671 -1.955265 0.636681 0
M  V30 20 H 0.716716 -0.312775 3.628022 0
M  V30 21 H -0.348673 -1.193539 2.466288 0
M  V30 22 H -0.644906 -1.393140 4.198156 0
M  V30 23 H 2.148887 -2.071775 3.231999 0
M  V30 24 H 1.110694 -2.815849 4.528462 0
M  V30 25 H -0.189119 -4.882359 -1.555327 0
M  V30 26 H 0.344439 -2.585904 -2.499553 0
M  V30 27 H 1.918767 -0.317706 -1.641656 0
M  V30 28 H 2.491730 1.087249 0.620071 0
M  V30 29 H 1.778274 3.035556 1.824870 0
M  V30 30 H -0.545709 3.805105 1.659755 0
M  V30 31 H -2.153712 2.550316 0.235642 0
M  V30 32 H -3.802121 0.159042 -1.153939 0
M  V30 END ATOM
M  V30 BEGIN BOND
M  V30 1 1 1 2
M  V30 2 1 2 3
M  V30 3 1 3 4
M  V30 4 2 4 5
M  V30 5 1 5 6
M  V30 6 2 6 7
M  V30 7 1 7 8
M  V30 8 1 8 9
M  V30 9 1 9 10
M  V30 10 2 10 11
M  V30 11 1 11 12
M  V30 12 2 12 13
M  V30 13 1 13 14
M  V30 14 2 14 15
M  V30 15 1 15 16
M  V30 16 2 16 17
M  V30 17 1 16 18
M  V30 18 2 8 19
M  V30 19 1 19 4
M  V30 20 1 15 10
M  V30 21 1 1 20
M  V30 22 1 1 21
M  V30 23 1 1 22
M  V30 24 1 2 23
M  V30 25 1 2 24
M  V30 26 1 6 25
M  V30 27 1 7 26
M  V30 28 1 9 27
M  V30 29 1 11 28
M  V30 30 1 12 29
M  V30 31 1 13 30
M  V30 32 1 14 31
M  V30 33 1 18 32
M  V30 END BOND
M  V30 END CTAB
M  END
>  <Dataset>  (279) 
ChEMBL_Kinases

>  <Ligand_Instance>  (279) 
nan

>  <PDB_ID>  (279) 
nan

>  <Standardized_SMILES>  (279) 
CCOc1nccc(Nc2ccccc2C(=O)O)n1

>  <Name>  (279) 
nan

>  <Pocket>  (279) 
nan

>  <ATP_Site>  (279) 
nan

>  <Peripheral>  (279) 
nan

>  <Num_H_Atoms_ProtBoundConf>  (279) 
nan

>  <Num_Resolved_Atoms>  (279) 
nan

>  <Num_Not_Resolved_Atoms>  (279) 
nan

$$$$
CHEMBL3964858
     RDKit          3D

  0  0  0  0  0  0  0  0  0  0999 V3000
M  V30 BEGIN CTAB
M  V30 COUNTS 74 78 0 0 0
M  V30 BEGIN ATOM
M  V30 1 C 1.887677 4.927069 1.131215 0
M  V30 2 C 1.108402 4.912911 2.403901 0
M  V30 3 S 0.983049 3.254354 3.110071 0
M  V30 4 O 2.400662 2.850528 3.382032 0
M  V30 5 O 0.243477 3.457086 4.400289 0
M  V30 6 C 0.169485 2.293890 1.945695 0
M  V30 7 C -0.356085 2.771937 0.775210 0
M  V30 8 C -1.013231 2.009413 -0.154559 0
M  V30 9 N -1.519550 2.642202 -1.324090 0
M  V30 10 C -2.085989 2.043812 -2.483275 0
M  V30 11 N -2.572722 2.817987 -3.460021 0
M  V30 12 C -3.097355 2.294022 -4.556209 0
M  V30 13 C -3.190434 0.941518 -4.790699 0
M  V30 14 F -3.741109 0.497259 -5.939827 0
M  V30 15 C -2.690361 0.145148 -3.788113 0
M  V30 16 N -2.763766 -1.265136 -3.984039 0
M  V30 17 C -4.157177 -1.698942 -4.082644 0
M  V30 18 C -1.529649 -1.965040 -4.051416 0
M  V30 19 C -0.573430 -2.026675 -3.059796 0
M  V30 20 C 0.608266 -2.717125 -3.174110 0
M  V30 21 C 1.561827 -2.703098 -2.022708 0
M  V30 22 O 2.615451 -1.822508 -2.348884 0
M  V30 23 C 0.898006 -3.401807 -4.327586 0
M  V30 24 C 2.197490 -4.122597 -4.369866 0
M  V30 25 C -0.016585 -3.370629 -5.337207 0
M  V30 26 C -1.218816 -2.667249 -5.218638 0
M  V30 27 C -2.161329 -2.669177 -6.336533 0
M  V30 28 N -2.170240 0.728659 -2.699082 0
M  V30 29 C -1.143366 0.673932 0.127369 0
M  V30 30 C -0.617721 0.155354 1.313695 0
M  V30 31 C 0.052383 0.963373 2.249674 0
M  V30 32 N 0.474228 0.181510 3.364035 0
M  V30 33 C 0.213338 0.073788 4.782566 0
M  V30 34 C 1.273955 -0.859085 5.295412 0 CFG=2
M  V30 35 C 2.378986 -0.646874 4.277313 0
M  V30 36 C 1.459451 -0.881949 3.098033 0 CFG=1
M  V30 37 C 0.859987 -2.204552 3.517529 0
M  V30 38 N 0.866006 -2.202575 4.976958 0
M  V30 39 C 1.775345 -3.154063 5.543952 0
M  V30 40 H 1.430094 5.518499 0.309541 0
M  V30 41 H 2.860891 5.461965 1.338800 0
M  V30 42 H 2.153918 3.926569 0.732650 0
M  V30 43 H 1.544065 5.601433 3.168110 0
M  V30 44 H 0.095156 5.306711 2.187652 0
M  V30 45 H -0.228967 3.829507 0.611480 0
M  V30 46 H -1.473728 3.708129 -1.342679 0
M  V30 47 H -3.490658 2.958291 -5.341517 0
M  V30 48 H -4.543757 -1.474280 -5.088248 0
M  V30 49 H -4.766213 -1.207486 -3.273482 0
M  V30 50 H -4.229686 -2.811876 -3.960375 0
M  V30 51 H -0.775148 -1.504023 -2.157486 0
M  V30 52 H 1.027150 -2.391681 -1.111520 0
M  V30 53 H 1.943491 -3.751945 -1.926772 0
M  V30 54 H 2.990407 -1.514409 -1.470370 0
M  V30 55 H 2.347148 -4.663714 -5.344755 0
M  V30 56 H 2.258750 -4.907047 -3.585598 0
M  V30 57 H 3.041798 -3.425842 -4.175038 0
M  V30 58 H 0.230141 -3.916239 -6.239321 0
M  V30 59 H -2.270489 -1.630621 -6.709764 0
M  V30 60 H -3.126903 -3.148323 -6.062239 0
M  V30 61 H -1.763607 -3.260765 -7.183988 0
M  V30 62 H -1.647736 0.039153 -0.557846 0
M  V30 63 H -0.785841 -0.909182 1.417632 0
M  V30 64 H -0.793719 -0.445463 4.847653 0
M  V30 65 H 0.105690 0.983175 5.343617 0
M  V30 66 H 1.576034 -0.691225 6.326247 0
M  V30 67 H 2.805861 0.354421 4.319488 0
M  V30 68 H 3.153357 -1.447473 4.350109 0
M  V30 69 H 1.923456 -0.864695 2.141414 0
M  V30 70 H 1.453551 -3.057167 3.171838 0
M  V30 71 H -0.205533 -2.321855 3.238901 0
M  V30 72 H 2.656518 -2.664454 6.016721 0
M  V30 73 H 1.279000 -3.756376 6.349367 0
M  V30 74 H 2.096671 -3.883893 4.763488 0
M  V30 END ATOM
M  V30 BEGIN BOND
M  V30 1 1 1 2
M  V30 2 1 2 3
M  V30 3 2 3 4
M  V30 4 2 3 5
M  V30 5 1 3 6
M  V30 6 2 6 7
M  V30 7 1 7 8
M  V30 8 1 8 9
M  V30 9 1 9 10
M  V30 10 2 10 11
M  V30 11 1 11 12
M  V30 12 2 12 13
M  V30 13 1 13 14
M  V30 14 1 13 15
M  V30 15 1 15 16
M  V30 16 1 16 17
M  V30 17 1 16 18
M  V30 18 2 18 19
M  V30 19 1 19 20
M  V30 20 1 20 21
M  V30 21 1 21 22
M  V30 22 2 20 23
M  V30 23 1 23 24
M  V30 24 1 23 25
M  V30 25 2 25 26
M  V30 26 1 26 27
M  V30 27 2 15 28
M  V30 28 2 8 29
M  V30 29 1 29 30
M  V30 30 2 30 31
M  V30 31 1 31 32
M  V30 32 1 32 33
M  V30 33 1 33 34
M  V30 34 1 34 35
M  V30 35 1 35 36
M  V30 36 1 36 37
M  V30 37 1 37 38
M  V30 38 1 38 39
M  V30 39 1 31 6
M  V30 40 1 36 32
M  V30 41 1 28 10
M  V30 42 1 38 34
M  V30 43 1 26 18
M  V30 44 1 1 40
M  V30 45 1 1 41
M  V30 46 1 1 42
M  V30 47 1 2 43
M  V30 48 1 2 44
M  V30 49 1 7 45
M  V30 50 1 9 46
M  V30 51 1 12 47
M  V30 52 1 17 48
M  V30 53 1 17 49
M  V30 54 1 17 50
M  V30 55 1 19 51
M  V30 56 1 21 52
M  V30 57 1 21 53
M  V30 58 1 22 54
M  V30 59 1 24 55
M  V30 60 1 24 56
M  V30 61 1 24 57
M  V30 62 1 25 58
M  V30 63 1 27 59
M  V30 64 1 27 60
M  V30 65 1 27 61
M  V30 66 1 29 62
M  V30 67 1 30 63
M  V30 68 1 33 64
M  V30 69 1 33 65
M  V30 70 1 34 66 CFG=1
M  V30 71 1 35 67
M  V30 72 1 35 68
M  V30 73 1 36 69 CFG=3
M  V30 74 1 37 70
M  V30 75 1 37 71
M  V30 76 1 39 72
M  V30 77 1 39 73
M  V30 78 1 39 74
M  V30 END BOND
M  V30 END CTAB
M  END
>  <Dataset>  (280) 
ChEMBL_Kinases

>  <Ligand_Instance>  (280) 
nan

>  <PDB_ID>  (280) 
nan

>  <Standardized_SMILES>  (280) 
CCS(=O)(=O)c1cc(Nc2ncc(F)c(N(C)c3cc(CO)c(C)cc3C)n2)ccc1N1C[C@@H]2C[C@H]1CN2C

>  <Name>  (280) 
nan

>  <Pocket>  (280) 
nan

>  <ATP_Site>  (280) 
nan

>  <Peripheral>  (280) 
nan

>  <Num_H_Atoms_ProtBoundConf>  (280) 
nan

>  <Num_Resolved_Atoms>  (280) 
nan

>  <Num_Not_Resolved_Atoms>  (280) 
nan

$$$$
CHEMBL3702029
     RDKit          3D

  0  0  0  0  0  0  0  0  0  0999 V3000
M  V30 BEGIN CTAB
M  V30 COUNTS 62 67 0 0 0
M  V30 BEGIN ATOM
M  V30 1 C 4.097326 0.761195 5.780023 0
M  V30 2 C 4.272771 -0.652595 6.239370 0
M  V30 3 C 3.547157 -1.643720 5.355622 0
M  V30 4 C 4.013094 -1.626398 3.923628 0
M  V30 5 N 2.904842 -1.635755 2.989714 0
M  V30 6 C 2.623167 -0.791143 1.883164 0
M  V30 7 C 3.477949 0.014408 1.181393 0
M  V30 8 C 3.000190 0.788235 0.135580 0
M  V30 9 C 1.680054 0.788915 -0.242254 0
M  V30 10 N 1.170129 1.589359 -1.327075 0
M  V30 11 C -0.242404 1.484445 -1.542640 0
M  V30 12 N -0.872193 2.679912 -1.538141 0
M  V30 13 C -2.219921 2.777524 -1.715003 0
M  V30 14 C -2.953894 1.599474 -1.904332 0
M  V30 15 C -4.275005 1.298610 -2.097893 0
M  V30 16 C -5.381437 2.150437 -2.175497 0
M  V30 17 C -6.643773 1.663921 -2.370365 0
M  V30 18 N -6.793686 0.325211 -2.486339 0
M  V30 19 C -5.722472 -0.495119 -2.410647 0
M  V30 20 C -4.427311 -0.065227 -2.216460 0
M  V30 21 N -3.201464 -0.603335 -2.097509 0
M  V30 22 C -3.020453 -2.020412 -2.188844 0
M  V30 23 C -1.668573 -2.572075 -2.105070 0
M  V30 24 C -1.535086 -3.600120 -3.246222 0
M  V30 25 C -2.330647 -2.843052 -4.318863 0
M  V30 26 C -3.564554 -2.452656 -3.534092 0
M  V30 27 C -2.291128 0.368068 -1.907714 0
M  V30 28 N -0.974964 0.373056 -1.727626 0
M  V30 29 N 0.910777 -0.026032 0.494180 0
M  V30 30 N 1.314675 -0.779225 1.494020 0
M  V30 31 C 2.034986 -2.738232 3.345254 0
M  V30 32 C 1.477651 -2.574696 4.742728 0
M  V30 33 N 2.111104 -1.407844 5.370850 0
M  V30 34 H 3.710794 1.408141 6.612251 0
M  V30 35 H 5.028133 1.248463 5.429390 0
M  V30 36 H 3.373017 0.876848 4.947858 0
M  V30 37 H 5.357935 -0.889169 6.234381 0
M  V30 38 H 3.904728 -0.747563 7.272300 0
M  V30 39 H 3.718790 -2.650405 5.779942 0
M  V30 40 H 4.683024 -0.743823 3.758851 0
M  V30 41 H 4.636610 -2.527698 3.686940 0
M  V30 42 H 4.511608 -0.018798 1.513100 0
M  V30 43 H 3.724713 1.412829 -0.393238 0
M  V30 44 H 1.849058 2.161507 -1.854509 0
M  V30 45 H -2.748158 3.738888 -1.715007 0
M  V30 46 H -5.237464 3.218245 -2.080371 0
M  V30 47 H -7.466202 2.367387 -2.425851 0
M  V30 48 H -5.904503 -1.559433 -2.505120 0
M  V30 49 H -3.674263 -2.545520 -1.428756 0
M  V30 50 H -1.492431 -3.154664 -1.175624 0
M  V30 51 H -0.804202 -1.917315 -2.242921 0
M  V30 52 H -0.488996 -3.761382 -3.524426 0
M  V30 53 H -2.064231 -4.534344 -2.985290 0
M  V30 54 H -2.570995 -3.479875 -5.186518 0
M  V30 55 H -1.727430 -1.935500 -4.576809 0
M  V30 56 H -4.207397 -3.365794 -3.451044 0
M  V30 57 H -4.116458 -1.625408 -4.037917 0
M  V30 58 H 1.191570 -2.848792 2.609143 0
M  V30 59 H 2.605034 -3.697404 3.226345 0
M  V30 60 H 0.369070 -2.489705 4.755585 0
M  V30 61 H 1.764379 -3.503536 5.293040 0
M  V30 62 H 1.756177 -1.393552 6.365048 0
M  V30 END ATOM
M  V30 BEGIN BOND
M  V30 1 1 1 2
M  V30 2 1 2 3
M  V30 3 1 3 4
M  V30 4 1 4 5
M  V30 5 1 5 6
M  V30 6 2 6 7
M  V30 7 1 7 8
M  V30 8 2 8 9
M  V30 9 1 9 10
M  V30 10 1 10 11
M  V30 11 2 11 12
M  V30 12 1 12 13
M  V30 13 2 13 14
M  V30 14 1 14 15
M  V30 15 2 15 16
M  V30 16 1 16 17
M  V30 17 2 17 18
M  V30 18 1 18 19
M  V30 19 2 19 20
M  V30 20 1 20 21
M  V30 21 1 21 22
M  V30 22 1 22 23
M  V30 23 1 23 24
M  V30 24 1 24 25
M  V30 25 1 25 26
M  V30 26 1 21 27
M  V30 27 2 27 28
M  V30 28 1 9 29
M  V30 29 2 29 30
M  V30 30 1 5 31
M  V30 31 1 31 32
M  V30 32 1 32 33
M  V30 33 1 33 3
M  V30 34 1 30 6
M  V30 35 1 28 11
M  V30 36 1 27 14
M  V30 37 1 20 15
M  V30 38 1 26 22
M  V30 39 1 1 34
M  V30 40 1 1 35
M  V30 41 1 1 36
M  V30 42 1 2 37
M  V30 43 1 2 38
M  V30 44 1 3 39
M  V30 45 1 4 40
M  V30 46 1 4 41
M  V30 47 1 7 42
M  V30 48 1 8 43
M  V30 49 1 10 44
M  V30 50 1 13 45
M  V30 51 1 16 46
M  V30 52 1 17 47
M  V30 53 1 19 48
M  V30 54 1 22 49
M  V30 55 1 23 50
M  V30 56 1 23 51
M  V30 57 1 24 52
M  V30 58 1 24 53
M  V30 59 1 25 54
M  V30 60 1 25 55
M  V30 61 1 26 56
M  V30 62 1 26 57
M  V30 63 1 31 58
M  V30 64 1 31 59
M  V30 65 1 32 60
M  V30 66 1 32 61
M  V30 67 1 33 62
M  V30 END BOND
M  V30 END CTAB
M  END
>  <Dataset>  (281) 
ChEMBL_Kinases

>  <Ligand_Instance>  (281) 
nan

>  <PDB_ID>  (281) 
nan

>  <Standardized_SMILES>  (281) 
CCC1CN(c2ccc(Nc3ncc4c5ccncc5n(C5CCCC5)c4n3)nn2)CCN1

>  <Name>  (281) 
nan

>  <Pocket>  (281) 
nan

>  <ATP_Site>  (281) 
nan

>  <Peripheral>  (281) 
nan

>  <Num_H_Atoms_ProtBoundConf>  (281) 
nan

>  <Num_Resolved_Atoms>  (281) 
nan

>  <Num_Not_Resolved_Atoms>  (281) 
nan

$$$$
CHEMBL3964756
     RDKit          3D

  0  0  0  0  0  0  0  0  0  0999 V3000
M  V30 BEGIN CTAB
M  V30 COUNTS 60 64 0 0 0
M  V30 BEGIN ATOM
M  V30 1 N 1.396223 0.709877 4.565573 0
M  V30 2 C 0.946850 0.010138 3.554694 0
M  V30 3 N -0.181532 -0.638915 3.345405 0
M  V30 4 N -0.081334 -1.158902 2.152015 0
M  V30 5 C 1.096764 -0.861887 1.571719 0
M  V30 6 C 1.727803 -1.176986 0.268401 0 CFG=2
M  V30 7 C 3.117820 -0.582454 0.210202 0
M  V30 8 C 3.104255 0.881748 0.344528 0
M  V30 9 C 4.318190 1.540390 0.306372 0
M  V30 10 C 4.335510 2.936973 0.423803 0
M  V30 11 C 3.129517 3.592625 0.572974 0
M  V30 12 C 1.919939 2.935764 0.611111 0
M  V30 13 N 0.634895 3.523693 0.750547 0
M  V30 14 C 0.005802 3.845603 1.956074 0
M  V30 15 C 0.479953 3.686986 3.236672 0
M  V30 16 C -0.460707 4.134910 4.153332 0
M  V30 17 N -1.487131 4.554307 3.369705 0
M  V30 18 N -1.218368 4.386994 2.078894 0
M  V30 19 N 1.964558 1.597193 0.494179 0
M  V30 20 C 0.911501 -0.830071 -0.934977 0
M  V30 21 C -0.508826 -1.155841 -0.673815 0
M  V30 22 C -0.683584 -2.602408 -0.350292 0 CFG=1
M  V30 23 O -1.022032 -3.314828 -1.517841 0
M  V30 24 C -2.143040 -3.991381 -1.841487 0
M  V30 25 C -1.956621 -4.506806 -3.135610 0
M  V30 26 C -2.938480 -5.266667 -3.780018 0
M  V30 27 C -4.129433 -5.524896 -3.136723 0
M  V30 28 C -4.347602 -5.036369 -1.867544 0
M  V30 29 C -5.574941 -5.234826 -1.058685 0
M  V30 30 F -6.182242 -4.020615 -0.735574 0
M  V30 31 F -6.483874 -5.966217 -1.792635 0
M  V30 32 F -5.297955 -5.857359 0.144515 0
M  V30 33 C -3.357003 -4.296200 -1.273926 0
M  V30 34 F -3.497292 -3.785466 -0.035878 0
M  V30 35 C 0.439434 -3.310837 0.303061 0
M  V30 36 C 1.795518 -2.705910 0.217241 0
M  V30 37 O 1.686506 -0.127468 2.509787 0
M  V30 38 H 0.745091 0.783413 5.386660 0
M  V30 39 H -0.958164 -0.692392 4.024062 0
M  V30 40 H 3.710756 -1.068735 1.015495 0
M  V30 41 H 3.577968 -0.832531 -0.766631 0
M  V30 42 H 5.282282 1.082290 0.192870 0
M  V30 43 H 5.213269 3.588376 0.411959 0
M  V30 44 H 3.047051 4.679591 0.671144 0
M  V30 45 H 0.181805 3.702836 -0.173150 0
M  V30 46 H 1.427297 3.282659 3.488112 0
M  V30 47 H -0.448411 4.171287 5.235429 0
M  V30 48 H -2.416696 4.971497 3.646005 0
M  V30 49 H 1.232041 -1.486213 -1.801893 0
M  V30 50 H 1.083862 0.197183 -1.308617 0
M  V30 51 H -0.902049 -0.476198 0.120690 0
M  V30 52 H -1.089282 -0.863676 -1.595277 0
M  V30 53 H -1.613723 -2.698072 0.306456 0
M  V30 54 H -1.106015 -4.422633 -3.812218 0
M  V30 55 H -2.890996 -5.703799 -4.764168 0
M  V30 56 H -4.933835 -6.102866 -3.567651 0
M  V30 57 H 0.203456 -3.397612 1.409359 0
M  V30 58 H 0.441853 -4.391689 -0.019543 0
M  V30 59 H 2.509150 -3.100754 0.946245 0
M  V30 60 H 2.200923 -2.950819 -0.786269 0
M  V30 END ATOM
M  V30 BEGIN BOND
M  V30 1 2 1 2 CFG=2
M  V30 2 1 2 3
M  V30 3 1 3 4
M  V30 4 2 4 5
M  V30 5 1 5 6
M  V30 6 1 6 7 CFG=3
M  V30 7 1 7 8
M  V30 8 2 8 9
M  V30 9 1 9 10
M  V30 10 2 10 11
M  V30 11 1 11 12
M  V30 12 1 12 13
M  V30 13 1 13 14
M  V30 14 1 14 15
M  V30 15 2 15 16
M  V30 16 1 16 17
M  V30 17 1 17 18
M  V30 18 2 12 19
M  V30 19 1 6 20
M  V30 20 1 20 21
M  V30 21 1 21 22
M  V30 22 1 22 23
M  V30 23 1 23 24
M  V30 24 2 24 25
M  V30 25 1 25 26
M  V30 26 2 26 27
M  V30 27 1 27 28
M  V30 28 1 28 29
M  V30 29 1 29 30
M  V30 30 1 29 31
M  V30 31 1 29 32
M  V30 32 2 28 33
M  V30 33 1 33 34
M  V30 34 1 22 35
M  V30 35 1 35 36
M  V30 36 1 5 37
M  V30 37 1 37 2
M  V30 38 1 36 6
M  V30 39 1 19 8
M  V30 40 1 33 24
M  V30 41 2 18 14
M  V30 42 1 1 38
M  V30 43 1 3 39
M  V30 44 1 7 40
M  V30 45 1 7 41
M  V30 46 1 9 42
M  V30 47 1 10 43
M  V30 48 1 11 44
M  V30 49 1 13 45
M  V30 50 1 15 46
M  V30 51 1 16 47
M  V30 52 1 17 48
M  V30 53 1 20 49
M  V30 54 1 20 50
M  V30 55 1 21 51
M  V30 56 1 21 52
M  V30 57 1 22 53 CFG=1
M  V30 58 1 25 54
M  V30 59 1 26 55
M  V30 60 1 27 56
M  V30 61 1 35 57
M  V30 62 1 35 58
M  V30 63 1 36 59
M  V30 64 1 36 60
M  V30 END BOND
M  V30 END CTAB
M  END
>  <Dataset>  (282) 
ChEMBL_Kinases

>  <Ligand_Instance>  (282) 
nan

>  <PDB_ID>  (282) 
nan

>  <Standardized_SMILES>  (282) 
N=c1[nH]nc([C@]2(Cc3cccc(Nc4cc[nH]n4)n3)CC[C@@H](Oc3cccc(C(F)(F)F)c3F)CC2)o1

>  <Name>  (282) 
nan

>  <Pocket>  (282) 
nan

>  <ATP_Site>  (282) 
nan

>  <Peripheral>  (282) 
nan

>  <Num_H_Atoms_ProtBoundConf>  (282) 
nan

>  <Num_Resolved_Atoms>  (282) 
nan

>  <Num_Not_Resolved_Atoms>  (282) 
nan

$$$$
CHEMBL3964636
     RDKit          3D

  0  0  0  0  0  0  0  0  0  0999 V3000
M  V30 BEGIN CTAB
M  V30 COUNTS 38 41 0 0 0
M  V30 BEGIN ATOM
M  V30 1 N -1.598887 -4.089876 4.134503 0
M  V30 2 C -0.640993 -4.196400 3.105592 0
M  V30 3 N 0.299136 -5.144213 2.987141 0
M  V30 4 N 1.022453 -4.941959 1.905595 0
M  V30 5 C 0.550242 -3.824293 1.285675 0
M  V30 6 C 0.930634 -3.170698 0.139314 0
M  V30 7 C 0.273739 -2.015315 -0.298243 0
M  V30 8 C -0.780029 -1.514526 0.430892 0
M  V30 9 C -1.591150 -0.349815 0.172594 0
M  V30 10 O -2.861005 -0.409940 0.327441 0
M  V30 11 N -1.285888 0.957484 -0.246681 0
M  V30 12 C -2.284365 2.031488 -0.443635 0
M  V30 13 C -1.204068 2.905107 0.244706 0
M  V30 14 C -0.356095 2.041358 -0.672278 0 CFG=1
M  V30 15 C 1.027862 1.795075 -0.297446 0
M  V30 16 C 1.474407 1.404295 0.930661 0
M  V30 17 C 2.818366 1.179521 1.212884 0
M  V30 18 C 3.757839 1.353129 0.223789 0
M  V30 19 F 5.087784 1.141880 0.467956 0
M  V30 20 C 3.352317 1.751327 -1.045164 0
M  V30 21 C 2.017609 1.960592 -1.275179 0
M  V30 22 C -1.168377 -2.181263 1.601467 0
M  V30 23 C -0.498496 -3.325356 2.011804 0
M  V30 24 H -1.637327 -3.777186 5.141364 0
M  V30 25 H -2.563933 -4.395346 3.866590 0
M  V30 26 H 1.831898 -5.467971 1.501918 0
M  V30 27 H 1.760552 -3.543396 -0.458815 0
M  V30 28 H 0.516646 -1.458786 -1.175523 0
M  V30 29 H -3.212493 1.940922 0.102776 0
M  V30 30 H -2.295445 2.279318 -1.517886 0
M  V30 31 H -1.181717 2.580628 1.321672 0
M  V30 32 H -1.259604 3.963666 0.050055 0
M  V30 33 H -0.544615 2.306792 -1.706176 0
M  V30 34 H 0.732792 1.270585 1.701053 0
M  V30 35 H 3.101982 0.868135 2.221289 0
M  V30 36 H 4.103266 1.886730 -1.831447 0
M  V30 37 H 1.743753 2.273396 -2.291574 0
M  V30 38 H -1.964072 -1.906224 2.253496 0
M  V30 END ATOM
M  V30 BEGIN BOND
M  V30 1 1 1 2
M  V30 2 2 2 3
M  V30 3 1 3 4
M  V30 4 1 4 5
M  V30 5 2 5 6
M  V30 6 1 6 7
M  V30 7 2 7 8
M  V30 8 1 8 9
M  V30 9 2 9 10
M  V30 10 1 9 11
M  V30 11 1 11 12
M  V30 12 1 12 13
M  V30 13 1 13 14
M  V30 14 1 14 15
M  V30 15 2 15 16
M  V30 16 1 16 17
M  V30 17 2 17 18
M  V30 18 1 18 19
M  V30 19 1 18 20
M  V30 20 2 20 21
M  V30 21 1 8 22
M  V30 22 2 22 23
M  V30 23 1 23 2
M  V30 24 1 23 5
M  V30 25 1 14 11
M  V30 26 1 21 15
M  V30 27 1 1 24
M  V30 28 1 1 25
M  V30 29 1 4 26
M  V30 30 1 6 27
M  V30 31 1 7 28
M  V30 32 1 12 29
M  V30 33 1 12 30
M  V30 34 1 13 31
M  V30 35 1 13 32
M  V30 36 1 14 33 CFG=3
M  V30 37 1 16 34
M  V30 38 1 17 35
M  V30 39 1 20 36
M  V30 40 1 21 37
M  V30 41 1 22 38
M  V30 END BOND
M  V30 END CTAB
M  END
>  <Dataset>  (283) 
ChEMBL_Kinases

>  <Ligand_Instance>  (283) 
nan

>  <PDB_ID>  (283) 
nan

>  <Standardized_SMILES>  (283) 
Nc1n[nH]c2ccc(C(=O)N3CC[C@H]3c3ccc(F)cc3)cc12

>  <Name>  (283) 
nan

>  <Pocket>  (283) 
nan

>  <ATP_Site>  (283) 
nan

>  <Peripheral>  (283) 
nan

>  <Num_H_Atoms_ProtBoundConf>  (283) 
nan

>  <Num_Resolved_Atoms>  (283) 
nan

>  <Num_Not_Resolved_Atoms>  (283) 
nan

$$$$
CHEMBL3964628
     RDKit          3D

  0  0  0  0  0  0  0  0  0  0999 V3000
M  V30 BEGIN CTAB
M  V30 COUNTS 50 53 0 0 0
M  V30 BEGIN ATOM
M  V30 1 N 2.062619 -9.718608 -0.854617 0
M  V30 2 C 2.331006 -8.420234 -0.336883 0
M  V30 3 O 3.267188 -8.350121 0.515736 0
M  V30 4 C 1.533120 -7.286471 -0.808368 0
M  V30 5 C 0.511498 -7.337930 -1.733767 0
M  V30 6 C -0.154138 -6.173902 -2.080400 0
M  V30 7 C 0.166411 -4.945119 -1.530507 0
M  V30 8 N -0.309061 -3.694090 -1.688319 0
M  V30 9 C 0.385874 -2.862677 -0.888385 0
M  V30 10 C 0.171251 -1.422617 -0.772377 0
M  V30 11 C -0.810290 -0.801342 -1.518362 0
M  V30 12 C -0.974205 0.584859 -1.368327 0
M  V30 13 C -0.170345 1.330052 -0.488864 0
M  V30 14 O -0.582187 2.630687 -0.580154 0
M  V30 15 C -0.112069 3.753388 0.095046 0
M  V30 16 C -0.248254 3.746706 1.580794 0 CFG=1
M  V30 17 C 0.322120 5.061826 2.136826 0
M  V30 18 C 0.219059 5.095694 3.621124 0
M  V30 19 C -0.780887 4.182952 4.234159 0 CFG=2
M  V30 20 O -0.155615 2.964136 4.501071 0
M  V30 21 C -1.987616 3.887919 3.378429 0
M  V30 22 C -1.719894 3.798081 1.920454 0
M  V30 23 C 0.788879 0.644591 0.222886 0
M  V30 24 C 0.974702 -0.714370 0.098566 0
M  V30 25 N 1.279965 -3.615557 -0.249276 0
M  V30 26 C 1.200035 -4.915764 -0.599095 0
M  V30 27 C 1.868822 -6.071017 -0.247761 0
M  V30 28 H 1.617381 -10.530590 -0.368670 0
M  V30 29 H 1.623371 -10.583735 -0.439417 0
M  V30 30 H 0.293499 -8.314900 -2.137984 0
M  V30 31 H -0.950128 -6.259983 -2.811248 0
M  V30 32 H -1.097221 -3.453297 -2.342211 0
M  V30 33 H -1.385431 -1.439585 -2.170107 0
M  V30 34 H -1.792215 0.915309 -2.030136 0
M  V30 35 H -0.490511 4.705888 -0.327562 0
M  V30 36 H 1.003491 3.783452 -0.108291 0
M  V30 37 H 0.262042 2.948893 2.114760 0
M  V30 38 H 1.392762 5.061438 1.849435 0
M  V30 39 H -0.186861 5.921834 1.648954 0
M  V30 40 H -0.101048 6.143910 3.891917 0
M  V30 41 H 1.204948 4.904933 4.089313 0
M  V30 42 H -1.145555 4.555454 5.236295 0
M  V30 43 H -0.676665 2.178366 4.201475 0
M  V30 44 H -2.531034 2.973685 3.749664 0
M  V30 45 H -2.702752 4.714272 3.567919 0
M  V30 46 H -2.124518 4.692338 1.408316 0
M  V30 47 H -2.149561 2.855279 1.539705 0
M  V30 48 H 1.344455 1.310922 0.852034 0
M  V30 49 H 1.760725 -1.128885 0.713712 0
M  V30 50 H 2.654362 -5.947508 0.481766 0
M  V30 END ATOM
M  V30 BEGIN BOND
M  V30 1 1 1 2
M  V30 2 2 2 3
M  V30 3 1 2 4
M  V30 4 2 4 5
M  V30 5 1 5 6
M  V30 6 2 6 7
M  V30 7 1 7 8
M  V30 8 1 8 9
M  V30 9 1 9 10
M  V30 10 2 10 11
M  V30 11 1 11 12
M  V30 12 2 12 13
M  V30 13 1 13 14
M  V30 14 1 14 15
M  V30 15 1 15 16
M  V30 16 1 16 17
M  V30 17 1 17 18
M  V30 18 1 18 19
M  V30 19 1 19 20
M  V30 20 1 19 21
M  V30 21 1 21 22
M  V30 22 1 13 23
M  V30 23 2 23 24
M  V30 24 2 9 25
M  V30 25 1 25 26
M  V30 26 2 26 27
M  V30 27 1 27 4
M  V30 28 1 26 7
M  V30 29 1 24 10
M  V30 30 1 22 16
M  V30 31 1 1 28
M  V30 32 1 1 29
M  V30 33 1 5 30
M  V30 34 1 6 31
M  V30 35 1 8 32
M  V30 36 1 11 33
M  V30 37 1 12 34
M  V30 38 1 15 35
M  V30 39 1 15 36
M  V30 40 1 16 37 CFG=1
M  V30 41 1 17 38
M  V30 42 1 17 39
M  V30 43 1 18 40
M  V30 44 1 18 41
M  V30 45 1 19 42 CFG=1
M  V30 46 1 20 43
M  V30 47 1 21 44
M  V30 48 1 21 45
M  V30 49 1 22 46
M  V30 50 1 22 47
M  V30 51 1 23 48
M  V30 52 1 24 49
M  V30 53 1 27 50
M  V30 END BOND
M  V30 END CTAB
M  END
>  <Dataset>  (284) 
ChEMBL_Kinases

>  <Ligand_Instance>  (284) 
nan

>  <PDB_ID>  (284) 
nan

>  <Standardized_SMILES>  (284) 
NC(=O)c1ccc2[nH]c(-c3ccc(OC[C@H]4CC[C@H](O)CC4)cc3)nc2c1

>  <Name>  (284) 
nan

>  <Pocket>  (284) 
nan

>  <ATP_Site>  (284) 
nan

>  <Peripheral>  (284) 
nan

>  <Num_H_Atoms_ProtBoundConf>  (284) 
nan

>  <Num_Resolved_Atoms>  (284) 
nan

>  <Num_Not_Resolved_Atoms>  (284) 
nan

$$$$
CHEMBL3702030
     RDKit          3D

  0  0  0  0  0  0  0  0  0  0999 V3000
M  V30 BEGIN CTAB
M  V30 COUNTS 57 62 0 0 0
M  V30 BEGIN ATOM
M  V30 1 O 2.235459 -5.647746 0.884052 0
M  V30 2 C 3.120392 -4.830168 1.151978 0
M  V30 3 N 4.198901 -5.173479 1.868050 0
M  V30 4 C 5.196495 -4.306827 2.186024 0
M  V30 5 C 5.175718 -2.986255 1.789823 0
M  V30 6 C 4.068835 -2.629477 1.053510 0
M  V30 7 C 3.689317 -1.416983 0.482629 0
M  V30 8 C 4.273019 -0.169443 0.459570 0
M  V30 9 N 3.658739 0.848147 -0.182632 0
M  V30 10 C 2.475371 0.656621 -0.804698 0
M  V30 11 N 1.597051 1.521940 -1.535778 0
M  V30 12 C 0.348349 1.793704 -0.904214 0
M  V30 13 C 0.041344 1.265058 0.347499 0
M  V30 14 C -1.170271 1.457050 1.016121 0
M  V30 15 C -2.125788 2.244250 0.353352 0
M  V30 16 N -3.365987 2.457431 1.009581 0
M  V30 17 C -3.556254 2.141794 2.414865 0
M  V30 18 C -4.257298 0.790987 2.431412 0
M  V30 19 N -5.066318 0.707001 1.241201 0
M  V30 20 C -5.661537 1.942041 0.824527 0
M  V30 21 C -4.594299 2.974350 0.432806 0
M  V30 22 N -1.776092 2.725429 -0.844557 0
M  V30 23 N -0.629748 2.529424 -1.450789 0
M  V30 24 N 1.881456 -0.548619 -0.799607 0
M  V30 25 C 2.477744 -1.600902 -0.157005 0
M  V30 26 N 2.089607 -2.907050 0.002657 0
M  V30 27 C 0.857333 -3.374616 -0.551303 0
M  V30 28 C -0.350939 -2.713862 0.074749 0
M  V30 29 C -1.345627 -2.648903 -1.057068 0
M  V30 30 C -0.566509 -2.476374 -2.318359 0
M  V30 31 C 0.747600 -3.124541 -2.035767 0
M  V30 32 C 3.043288 -3.517976 0.726468 0
M  V30 33 H 4.231756 -6.184093 2.179327 0
M  V30 34 H 6.041789 -4.677503 2.778031 0
M  V30 35 H 5.958414 -2.278812 2.029679 0
M  V30 36 H 5.198866 0.051357 0.923316 0
M  V30 37 H 1.793343 1.950031 -2.458219 0
M  V30 38 H 0.762650 0.656205 0.883589 0
M  V30 39 H -1.318373 1.000528 1.983383 0
M  V30 40 H -4.220949 2.876509 2.940966 0
M  V30 41 H -2.610064 2.150920 2.991438 0
M  V30 42 H -4.885296 0.676812 3.338895 0
M  V30 43 H -3.478773 0.017335 2.454590 0
M  V30 44 H -4.701300 0.126221 0.487664 0
M  V30 45 H -6.341320 1.708740 -0.009027 0
M  V30 46 H -6.256943 2.399464 1.634799 0
M  V30 47 H -4.549362 2.978147 -0.668745 0
M  V30 48 H -4.872759 3.980444 0.835160 0
M  V30 49 H 0.717690 -4.462696 -0.402719 0
M  V30 50 H -0.814488 -3.307061 0.887084 0
M  V30 51 H -0.104490 -1.738321 0.497911 0
M  V30 52 H -1.893233 -3.624805 -1.119578 0
M  V30 53 H -2.133180 -1.889319 -0.923889 0
M  V30 54 H -1.094724 -2.961015 -3.170883 0
M  V30 55 H -0.474848 -1.371702 -2.488360 0
M  V30 56 H 1.591576 -2.496081 -2.404076 0
M  V30 57 H 0.806678 -4.077062 -2.618337 0
M  V30 END ATOM
M  V30 BEGIN BOND
M  V30 1 2 1 2
M  V30 2 1 2 3
M  V30 3 1 3 4
M  V30 4 2 4 5
M  V30 5 1 5 6
M  V30 6 1 6 7
M  V30 7 2 7 8
M  V30 8 1 8 9
M  V30 9 2 9 10
M  V30 10 1 10 11
M  V30 11 1 11 12
M  V30 12 2 12 13
M  V30 13 1 13 14
M  V30 14 2 14 15
M  V30 15 1 15 16
M  V30 16 1 16 17
M  V30 17 1 17 18
M  V30 18 1 18 19
M  V30 19 1 19 20
M  V30 20 1 20 21
M  V30 21 1 15 22
M  V30 22 2 22 23
M  V30 23 1 10 24
M  V30 24 2 24 25
M  V30 25 1 25 26
M  V30 26 1 26 27
M  V30 27 1 27 28
M  V30 28 1 28 29
M  V30 29 1 29 30
M  V30 30 1 30 31
M  V30 31 1 26 32
M  V30 32 1 32 2
M  V30 33 2 32 6
M  V30 34 1 25 7
M  V30 35 1 31 27
M  V30 36 1 23 12
M  V30 37 1 21 16
M  V30 38 1 3 33
M  V30 39 1 4 34
M  V30 40 1 5 35
M  V30 41 1 8 36
M  V30 42 1 11 37
M  V30 43 1 13 38
M  V30 44 1 14 39
M  V30 45 1 17 40
M  V30 46 1 17 41
M  V30 47 1 18 42
M  V30 48 1 18 43
M  V30 49 1 19 44
M  V30 50 1 20 45
M  V30 51 1 20 46
M  V30 52 1 21 47
M  V30 53 1 21 48
M  V30 54 1 27 49
M  V30 55 1 28 50
M  V30 56 1 28 51
M  V30 57 1 29 52
M  V30 58 1 29 53
M  V30 59 1 30 54
M  V30 60 1 30 55
M  V30 61 1 31 56
M  V30 62 1 31 57
M  V30 END BOND
M  V30 END CTAB
M  END
>  <Dataset>  (285) 
ChEMBL_Kinases

>  <Ligand_Instance>  (285) 
nan

>  <PDB_ID>  (285) 
nan

>  <Standardized_SMILES>  (285) 
O=c1[nH]ccc2c3cnc(Nc4ccc(N5CCNCC5)nn4)nc3n(C3CCCC3)c12

>  <Name>  (285) 
nan

>  <Pocket>  (285) 
nan

>  <ATP_Site>  (285) 
nan

>  <Peripheral>  (285) 
nan

>  <Num_H_Atoms_ProtBoundConf>  (285) 
nan

>  <Num_Resolved_Atoms>  (285) 
nan

>  <Num_Not_Resolved_Atoms>  (285) 
nan

$$$$
CHEMBL3964555
     RDKit          3D

  0  0  0  0  0  0  0  0  0  0999 V3000
M  V30 BEGIN CTAB
M  V30 COUNTS 43 46 0 0 0
M  V30 BEGIN ATOM
M  V30 1 N 0.884730 -7.905359 3.302192 0
M  V30 2 C 2.009726 -7.155553 3.715935 0
M  V30 3 O 2.654408 -7.897774 4.479419 0
M  V30 4 C 2.299690 -5.790657 3.296306 0
M  V30 5 C 3.444222 -5.210674 3.799386 0
M  V30 6 C 3.695079 -3.902826 3.379288 0
M  V30 7 C 2.803674 -3.274490 2.502332 0
M  V30 8 N 2.790879 -2.039243 1.938944 0
M  V30 9 C 1.708699 -1.895617 1.152430 0
M  V30 10 C 1.355216 -0.707547 0.382897 0
M  V30 11 C 2.191596 0.388334 0.448600 0
M  V30 12 C 1.866828 1.518929 -0.275991 0
M  V30 13 C 0.723883 1.543729 -1.049691 0
M  V30 14 O 0.262241 2.598606 -1.831595 0
M  V30 15 C -0.593870 3.560648 -1.312022 0
M  V30 16 C -0.259793 4.749884 -0.690961 0
M  V30 17 C -1.254931 5.591876 -0.232476 0
M  V30 18 C -2.587132 5.257971 -0.387983 0
M  V30 19 C -2.937355 4.075042 -1.005477 0
M  V30 20 C -4.390282 3.749498 -1.154746 0
M  V30 21 F -5.141102 4.841728 -1.515661 0
M  V30 22 F -4.859788 3.302997 0.078482 0
M  V30 23 F -4.573266 2.700562 -2.029660 0
M  V30 24 C -1.945222 3.230634 -1.465188 0
M  V30 25 C -0.113313 0.425967 -1.106108 0
M  V30 26 C 0.206908 -0.707665 -0.383184 0
M  V30 27 N 1.005011 -3.055383 1.203900 0
M  V30 28 C 1.659217 -3.921770 2.029532 0
M  V30 29 C 1.387393 -5.226085 2.434056 0
M  V30 30 H 0.689454 -8.733096 2.681494 0
M  V30 31 H -0.006392 -7.534811 3.733337 0
M  V30 32 H 4.092180 -5.752277 4.474967 0
M  V30 33 H 4.572611 -3.391204 3.734943 0
M  V30 34 H 3.539506 -1.347191 2.127544 0
M  V30 35 H 3.103818 0.443282 1.032536 0
M  V30 36 H 2.436058 2.444707 -0.312104 0
M  V30 37 H 0.803397 4.926987 -0.613911 0
M  V30 38 H -0.946246 6.519686 0.251323 0
M  V30 39 H -3.362794 5.921782 -0.026649 0
M  V30 40 H -2.328145 2.323248 -1.937107 0
M  V30 41 H -1.028430 0.321184 -1.669582 0
M  V30 42 H -0.403495 -1.614893 -0.382863 0
M  V30 43 H 0.520098 -5.752545 2.091907 0
M  V30 END ATOM
M  V30 BEGIN BOND
M  V30 1 1 1 2
M  V30 2 2 2 3
M  V30 3 1 2 4
M  V30 4 2 4 5
M  V30 5 1 5 6
M  V30 6 2 6 7
M  V30 7 1 7 8
M  V30 8 1 8 9
M  V30 9 1 9 10
M  V30 10 2 10 11
M  V30 11 1 11 12
M  V30 12 2 12 13
M  V30 13 1 13 14
M  V30 14 1 14 15
M  V30 15 2 15 16
M  V30 16 1 16 17
M  V30 17 2 17 18
M  V30 18 1 18 19
M  V30 19 1 19 20
M  V30 20 1 20 21
M  V30 21 1 20 22
M  V30 22 1 20 23
M  V30 23 2 19 24
M  V30 24 1 13 25
M  V30 25 2 25 26
M  V30 26 2 9 27
M  V30 27 1 27 28
M  V30 28 2 28 29
M  V30 29 1 29 4
M  V30 30 1 28 7
M  V30 31 1 26 10
M  V30 32 1 24 15
M  V30 33 1 1 30
M  V30 34 1 1 31
M  V30 35 1 5 32
M  V30 36 1 6 33
M  V30 37 1 8 34
M  V30 38 1 11 35
M  V30 39 1 12 36
M  V30 40 1 16 37
M  V30 41 1 17 38
M  V30 42 1 18 39
M  V30 43 1 24 40
M  V30 44 1 25 41
M  V30 45 1 26 42
M  V30 46 1 29 43
M  V30 END BOND
M  V30 END CTAB
M  END
>  <Dataset>  (286) 
ChEMBL_Kinases

>  <Ligand_Instance>  (286) 
nan

>  <PDB_ID>  (286) 
nan

>  <Standardized_SMILES>  (286) 
NC(=O)c1ccc2[nH]c(-c3ccc(Oc4cccc(C(F)(F)F)c4)cc3)nc2c1

>  <Name>  (286) 
nan

>  <Pocket>  (286) 
nan

>  <ATP_Site>  (286) 
nan

>  <Peripheral>  (286) 
nan

>  <Num_H_Atoms_ProtBoundConf>  (286) 
nan

>  <Num_Resolved_Atoms>  (286) 
nan

>  <Num_Not_Resolved_Atoms>  (286) 
nan

$$$$
CHEMBL3964452
     RDKit          3D

  0  0  0  0  0  0  0  0  0  0999 V3000
M  V30 BEGIN CTAB
M  V30 COUNTS 59 63 0 0 0
M  V30 BEGIN ATOM
M  V30 1 O -1.727322 -0.369243 3.574152 0
M  V30 2 C -1.008306 -0.201840 2.553761 0
M  V30 3 N -0.961177 0.689103 1.529737 0
M  V30 4 N 0.037390 0.357966 0.725671 0
M  V30 5 C 0.617122 -0.741096 1.245202 0
M  V30 6 C 1.772842 -1.488435 0.710609 0 CFG=2
M  V30 7 C 3.005801 -0.865198 1.327163 0
M  V30 8 C 3.129348 0.569104 0.981434 0
M  V30 9 C 3.842717 0.880006 -0.182192 0
M  V30 10 C 3.927452 2.230897 -0.457645 0
M  V30 11 C 3.380885 3.243308 0.303276 0
M  V30 12 C 2.693286 2.850996 1.434542 0
M  V30 13 N 2.088541 3.832852 2.290895 0
M  V30 14 C 1.341565 3.652779 3.494135 0
M  V30 15 C -0.041181 3.500551 3.404063 0
M  V30 16 C -0.533132 3.343369 4.690239 0
M  V30 17 N 0.560532 3.405906 5.501875 0
M  V30 18 N 1.682235 3.590344 4.795104 0
M  V30 19 N 2.584000 1.541749 1.744577 0
M  V30 20 C 1.903981 -1.443010 -0.776693 0
M  V30 21 C 0.950342 -2.349071 -1.508640 0
M  V30 22 C -0.150313 -2.902041 -0.616133 0 CFG=1
M  V30 23 O -0.867870 -3.802501 -1.406103 0
M  V30 24 C -2.185756 -3.798229 -1.743171 0
M  V30 25 C -2.409736 -4.922588 -2.556299 0
M  V30 26 C -3.675575 -5.218882 -3.081861 0
M  V30 27 C -4.736709 -4.393860 -2.801309 0
M  V30 28 C -4.533737 -3.288560 -2.006403 0
M  V30 29 C -5.591397 -2.331460 -1.636208 0
M  V30 30 F -5.312947 -1.051198 -2.064624 0
M  V30 31 F -6.780984 -2.742566 -2.200064 0
M  V30 32 F -5.748975 -2.393255 -0.258572 0
M  V30 33 C -3.286809 -3.008999 -1.496965 0
M  V30 34 F -3.001961 -1.962388 -0.720358 0
M  V30 35 C 0.511704 -3.636362 0.534212 0
M  V30 36 C 1.676458 -2.923271 1.129946 0
M  V30 37 O -0.027694 -1.072358 2.357313 0
M  V30 38 H -1.708588 1.420121 1.606023 0
M  V30 39 H 3.936343 -1.410863 1.027006 0
M  V30 40 H 2.983943 -0.907791 2.440523 0
M  V30 41 H 4.297592 0.157570 -0.828018 0
M  V30 42 H 4.477126 2.516937 -1.359115 0
M  V30 43 H 3.491040 4.282918 0.020020 0
M  V30 44 H 2.177767 4.838400 2.044393 0
M  V30 45 H -0.769606 3.480490 2.587128 0
M  V30 46 H -1.505722 3.196315 5.138393 0
M  V30 47 H 0.714221 3.342441 6.540405 0
M  V30 48 H 1.893171 -0.424721 -1.194555 0
M  V30 49 H 2.939722 -1.828703 -1.007661 0
M  V30 50 H 1.455443 -3.247771 -1.942126 0
M  V30 51 H 0.533670 -1.808892 -2.370713 0
M  V30 52 H -0.828571 -2.114433 -0.262449 0
M  V30 53 H -1.705171 -5.700004 -2.896837 0
M  V30 54 H -3.927728 -6.052685 -3.707060 0
M  V30 55 H -5.741172 -4.557502 -3.170343 0
M  V30 56 H 0.862890 -4.612502 0.089650 0
M  V30 57 H -0.255661 -3.916643 1.279921 0
M  V30 58 H 2.632741 -3.474929 0.906784 0
M  V30 59 H 1.590799 -2.975204 2.253510 0
M  V30 END ATOM
M  V30 BEGIN BOND
M  V30 1 2 1 2
M  V30 2 1 2 3
M  V30 3 1 3 4
M  V30 4 2 4 5
M  V30 5 1 5 6
M  V30 6 1 6 7 CFG=1
M  V30 7 1 7 8
M  V30 8 2 8 9
M  V30 9 1 9 10
M  V30 10 2 10 11
M  V30 11 1 11 12
M  V30 12 1 12 13
M  V30 13 1 13 14
M  V30 14 1 14 15
M  V30 15 2 15 16
M  V30 16 1 16 17
M  V30 17 1 17 18
M  V30 18 2 12 19
M  V30 19 1 6 20
M  V30 20 1 20 21
M  V30 21 1 21 22
M  V30 22 1 22 23
M  V30 23 1 23 24
M  V30 24 2 24 25
M  V30 25 1 25 26
M  V30 26 2 26 27
M  V30 27 1 27 28
M  V30 28 1 28 29
M  V30 29 1 29 30
M  V30 30 1 29 31
M  V30 31 1 29 32
M  V30 32 2 28 33
M  V30 33 1 33 34
M  V30 34 1 22 35
M  V30 35 1 35 36
M  V30 36 1 5 37
M  V30 37 1 37 2
M  V30 38 1 36 6
M  V30 39 1 19 8
M  V30 40 1 33 24
M  V30 41 2 18 14
M  V30 42 1 3 38
M  V30 43 1 7 39
M  V30 44 1 7 40
M  V30 45 1 9 41
M  V30 46 1 10 42
M  V30 47 1 11 43
M  V30 48 1 13 44
M  V30 49 1 15 45
M  V30 50 1 16 46
M  V30 51 1 17 47
M  V30 52 1 20 48
M  V30 53 1 20 49
M  V30 54 1 21 50
M  V30 55 1 21 51
M  V30 56 1 22 52 CFG=1
M  V30 57 1 25 53
M  V30 58 1 26 54
M  V30 59 1 27 55
M  V30 60 1 35 56
M  V30 61 1 35 57
M  V30 62 1 36 58
M  V30 63 1 36 59
M  V30 END BOND
M  V30 END CTAB
M  END
>  <Dataset>  (287) 
ChEMBL_Kinases

>  <Ligand_Instance>  (287) 
nan

>  <PDB_ID>  (287) 
nan

>  <Standardized_SMILES>  (287) 
O=c1[nH]nc([C@]2(Cc3cccc(Nc4cc[nH]n4)n3)CC[C@@H](Oc3cccc(C(F)(F)F)c3F)CC2)o1

>  <Name>  (287) 
nan

>  <Pocket>  (287) 
nan

>  <ATP_Site>  (287) 
nan

>  <Peripheral>  (287) 
nan

>  <Num_H_Atoms_ProtBoundConf>  (287) 
nan

>  <Num_Resolved_Atoms>  (287) 
nan

>  <Num_Not_Resolved_Atoms>  (287) 
nan

$$$$
CHEMBL3701789
     RDKit          3D

  0  0  0  0  0  0  0  0  0  0999 V3000
M  V30 BEGIN CTAB
M  V30 COUNTS 52 56 0 0 0
M  V30 BEGIN ATOM
M  V30 1 C 3.047917 -3.787802 6.230689 0
M  V30 2 C 3.888170 -2.815988 5.474448 0
M  V30 3 N 5.133685 -2.341819 5.624813 0
M  V30 4 N 5.355175 -1.486888 4.637749 0
M  V30 5 C 4.259011 -1.420969 3.869677 0
M  V30 6 C 4.081798 -0.597162 2.675717 0
M  V30 7 C 5.074065 0.236970 2.195427 0
M  V30 8 C 4.815528 0.977488 1.060443 0
M  V30 9 C 3.614577 0.923871 0.384130 0
M  V30 10 C 3.314915 1.713160 -0.839104 0
M  V30 11 C 2.598532 0.104452 0.830206 0
M  V30 12 C 1.274167 -0.070592 0.235278 0
M  V30 13 C 0.244863 -0.047966 1.182087 0
M  V30 14 C -1.085826 -0.193357 0.860267 0
M  V30 15 C -1.408454 -0.369972 -0.469077 0
M  V30 16 C -0.406681 -0.395065 -1.417676 0
M  V30 17 C 0.924313 -0.248670 -1.087091 0
M  V30 18 N -0.926841 -0.586078 -2.731323 0
M  V30 19 C -2.335668 -0.681582 -2.555035 0
M  V30 20 O -3.141043 -0.855103 -3.507217 0
M  V30 21 C -2.710691 -0.552091 -1.136417 0
M  V30 22 C -3.645501 0.614707 -0.894512 0
M  V30 23 C -4.877747 0.470936 -1.710011 0
M  V30 24 C -5.557838 -0.854257 -1.614442 0
M  V30 25 O -6.509988 -0.837803 -0.580859 0
M  V30 26 C -4.643210 -2.024381 -1.461942 0
M  V30 27 C -3.441858 -1.778429 -0.624131 0
M  V30 28 C 2.903831 -0.627655 1.983232 0
M  V30 29 O 3.391312 -2.242965 4.411754 0
M  V30 30 H 3.483780 -3.921817 7.226922 0
M  V30 31 H 1.982447 -3.423228 6.291616 0
M  V30 32 H 2.986723 -4.764376 5.706831 0
M  V30 33 H 6.013280 0.280491 2.722250 0
M  V30 34 H 5.585720 1.649663 0.655120 0
M  V30 35 H 2.229836 1.941464 -0.899950 0
M  V30 36 H 3.687927 1.187647 -1.745651 0
M  V30 37 H 3.890383 2.685050 -0.821438 0
M  V30 38 H 0.415797 0.087705 2.259033 0
M  V30 39 H -1.874660 -0.175473 1.590541 0
M  V30 40 H 1.771673 -0.254419 -1.748364 0
M  V30 41 H -0.412364 -0.646254 -3.637163 0
M  V30 42 H -3.146699 1.558060 -1.220658 0
M  V30 43 H -3.892493 0.611858 0.186444 0
M  V30 44 H -4.643905 0.787193 -2.757228 0
M  V30 45 H -5.620924 1.232336 -1.336688 0
M  V30 46 H -6.136282 -1.003151 -2.551315 0
M  V30 47 H -6.106389 -1.117823 0.276966 0
M  V30 48 H -4.402878 -2.503670 -2.433161 0
M  V30 49 H -5.241726 -2.814044 -0.918251 0
M  V30 50 H -3.755839 -1.538152 0.413799 0
M  V30 51 H -2.803500 -2.685570 -0.679260 0
M  V30 52 H 2.123922 -1.295022 2.376213 0
M  V30 END ATOM
M  V30 BEGIN BOND
M  V30 1 1 1 2
M  V30 2 2 2 3
M  V30 3 1 3 4
M  V30 4 2 4 5
M  V30 5 1 5 6
M  V30 6 2 6 7
M  V30 7 1 7 8
M  V30 8 2 8 9
M  V30 9 1 9 10
M  V30 10 1 9 11
M  V30 11 1 11 12
M  V30 12 2 12 13
M  V30 13 1 13 14
M  V30 14 2 14 15
M  V30 15 1 15 16
M  V30 16 2 16 17
M  V30 17 1 16 18
M  V30 18 1 18 19
M  V30 19 2 19 20
M  V30 20 1 19 21
M  V30 21 1 21 22
M  V30 22 1 22 23
M  V30 23 1 23 24
M  V30 24 1 24 25
M  V30 25 1 24 26
M  V30 26 1 26 27
M  V30 27 2 11 28
M  V30 28 1 5 29
M  V30 29 1 29 2
M  V30 30 1 28 6
M  V30 31 1 17 12
M  V30 32 1 27 21
M  V30 33 1 21 15
M  V30 34 1 1 30
M  V30 35 1 1 31
M  V30 36 1 1 32
M  V30 37 1 7 33
M  V30 38 1 8 34
M  V30 39 1 10 35
M  V30 40 1 10 36
M  V30 41 1 10 37
M  V30 42 1 13 38
M  V30 43 1 14 39
M  V30 44 1 17 40
M  V30 45 1 18 41
M  V30 46 1 22 42
M  V30 47 1 22 43
M  V30 48 1 23 44
M  V30 49 1 23 45
M  V30 50 1 24 46
M  V30 51 1 25 47
M  V30 52 1 26 48
M  V30 53 1 26 49
M  V30 54 1 27 50
M  V30 55 1 27 51
M  V30 56 1 28 52
M  V30 END BOND
M  V30 END CTAB
M  END
>  <Dataset>  (288) 
ChEMBL_Kinases

>  <Ligand_Instance>  (288) 
nan

>  <PDB_ID>  (288) 
nan

>  <Standardized_SMILES>  (288) 
Cc1nnc(-c2ccc(C)c(-c3ccc4c(c3)NC(=O)C43CCC(O)CC3)c2)o1

>  <Name>  (288) 
nan

>  <Pocket>  (288) 
nan

>  <ATP_Site>  (288) 
nan

>  <Peripheral>  (288) 
nan

>  <Num_H_Atoms_ProtBoundConf>  (288) 
nan

>  <Num_Resolved_Atoms>  (288) 
nan

>  <Num_Not_Resolved_Atoms>  (288) 
nan

$$$$
CHEMBL3702032
     RDKit          3D

  0  0  0  0  0  0  0  0  0  0999 V3000
M  V30 BEGIN CTAB
M  V30 COUNTS 64 69 0 0 0
M  V30 BEGIN ATOM
M  V30 1 C 4.904019 -0.199130 5.259937 0
M  V30 2 C 4.000441 -1.361080 5.615714 0
M  V30 3 C 3.972029 -2.287855 4.416903 0
M  V30 4 N 2.712479 -2.076866 3.750506 0
M  V30 5 C 2.544728 -1.515142 2.462172 0
M  V30 6 C 3.600657 -1.365300 1.593168 0
M  V30 7 C 3.376834 -0.800364 0.355389 0
M  V30 8 C 2.148673 -0.363024 -0.090586 0
M  V30 9 N 1.916923 0.208420 -1.382888 0
M  V30 10 C 0.607707 0.653296 -1.707916 0
M  V30 11 N 0.502178 1.976970 -1.539721 0
M  V30 12 C -0.658484 2.622736 -1.784215 0
M  V30 13 C -1.750534 1.898839 -2.214079 0
M  V30 14 C -3.047739 2.223105 -2.544586 0
M  V30 15 C -3.747879 3.429666 -2.569312 0
M  V30 16 C -5.070811 3.495612 -2.946565 0
M  V30 17 N -5.697314 2.336684 -3.302885 0
M  V30 18 C -4.994182 1.189129 -3.268159 0
M  V30 19 O -5.666244 0.188702 -3.613847 0
M  V30 20 C -3.677821 1.044180 -2.904778 0
M  V30 21 N -2.815534 0.016801 -2.806554 0
M  V30 22 C -3.140324 -1.340118 -3.096652 0
M  V30 23 C -2.084744 -2.311642 -2.556127 0
M  V30 24 C -2.577554 -3.621341 -3.142847 0
M  V30 25 C -3.300125 -3.247408 -4.425200 0
M  V30 26 C -3.133329 -1.725326 -4.541655 0
M  V30 27 C -1.647302 0.535637 -2.388409 0
M  V30 28 N -0.455326 -0.021335 -2.121861 0
M  V30 29 N 1.122921 -0.524088 0.792386 0
M  V30 30 C 1.326298 -1.076771 2.009519 0
M  V30 31 C 1.621183 -2.540401 4.599902 0
M  V30 32 C 1.649473 -1.779277 5.896315 0
M  V30 33 C 0.342916 -1.036757 6.053616 0
M  V30 34 N 2.710031 -0.800584 5.942773 0
M  V30 35 H 4.880486 0.522984 6.103803 0
M  V30 36 H 4.396108 0.341205 4.407455 0
M  V30 37 H 5.917319 -0.525002 4.966997 0
M  V30 38 H 4.468716 -1.888326 6.481514 0
M  V30 39 H 4.008475 -3.341183 4.762827 0
M  V30 40 H 4.865125 -2.138026 3.780420 0
M  V30 41 H 4.591663 -1.666166 1.826876 0
M  V30 42 H 4.220371 -0.682557 -0.336126 0
M  V30 43 H 2.776276 0.249027 -2.003260 0
M  V30 44 H -0.774790 3.709511 -1.655531 0
M  V30 45 H -3.179843 4.293219 -2.273988 0
M  V30 46 H -5.588536 4.444533 -2.956061 0
M  V30 47 H -6.698476 2.395325 -3.586514 0
M  V30 48 H -4.134711 -1.643012 -2.673229 0
M  V30 49 H -2.047427 -2.295528 -1.461132 0
M  V30 50 H -1.121395 -2.107157 -3.067494 0
M  V30 51 H -3.226242 -4.105677 -2.394646 0
M  V30 52 H -1.718395 -4.282615 -3.402451 0
M  V30 53 H -4.387996 -3.412656 -4.212479 0
M  V30 54 H -2.938916 -3.777511 -5.311689 0
M  V30 55 H -3.955161 -1.310006 -5.147656 0
M  V30 56 H -2.139872 -1.558219 -4.989368 0
M  V30 57 H 0.423012 -1.131000 2.580573 0
M  V30 58 H 0.667998 -2.462367 4.062244 0
M  V30 59 H 1.759481 -3.641374 4.798264 0
M  V30 60 H 1.696143 -2.518185 6.743797 0
M  V30 61 H -0.530320 -1.667619 5.793116 0
M  V30 62 H 0.412317 -0.103534 5.472603 0
M  V30 63 H 0.213450 -0.693483 7.122600 0
M  V30 64 H 2.761363 -0.415949 6.902792 0
M  V30 END ATOM
M  V30 BEGIN BOND
M  V30 1 1 1 2
M  V30 2 1 2 3
M  V30 3 1 3 4
M  V30 4 1 4 5
M  V30 5 2 5 6
M  V30 6 1 6 7
M  V30 7 2 7 8
M  V30 8 1 8 9
M  V30 9 1 9 10
M  V30 10 2 10 11
M  V30 11 1 11 12
M  V30 12 2 12 13
M  V30 13 1 13 14
M  V30 14 1 14 15
M  V30 15 2 15 16
M  V30 16 1 16 17
M  V30 17 1 17 18
M  V30 18 2 18 19
M  V30 19 1 18 20
M  V30 20 1 20 21
M  V30 21 1 21 22
M  V30 22 1 22 23
M  V30 23 1 23 24
M  V30 24 1 24 25
M  V30 25 1 25 26
M  V30 26 1 21 27
M  V30 27 2 27 28
M  V30 28 1 8 29
M  V30 29 2 29 30
M  V30 30 1 4 31
M  V30 31 1 31 32
M  V30 32 1 32 33
M  V30 33 1 32 34
M  V30 34 1 34 2
M  V30 35 1 30 5
M  V30 36 1 28 10
M  V30 37 1 27 13
M  V30 38 2 20 14
M  V30 39 1 26 22
M  V30 40 1 1 35
M  V30 41 1 1 36
M  V30 42 1 1 37
M  V30 43 1 2 38
M  V30 44 1 3 39
M  V30 45 1 3 40
M  V30 46 1 6 41
M  V30 47 1 7 42
M  V30 48 1 9 43
M  V30 49 1 12 44
M  V30 50 1 15 45
M  V30 51 1 16 46
M  V30 52 1 17 47
M  V30 53 1 22 48
M  V30 54 1 23 49
M  V30 55 1 23 50
M  V30 56 1 24 51
M  V30 57 1 24 52
M  V30 58 1 25 53
M  V30 59 1 25 54
M  V30 60 1 26 55
M  V30 61 1 26 56
M  V30 62 1 30 57
M  V30 63 1 31 58
M  V30 64 1 31 59
M  V30 65 1 32 60
M  V30 66 1 33 61
M  V30 67 1 33 62
M  V30 68 1 33 63
M  V30 69 1 34 64
M  V30 END BOND
M  V30 END CTAB
M  END
>  <Dataset>  (289) 
ChEMBL_Kinases

>  <Ligand_Instance>  (289) 
nan

>  <PDB_ID>  (289) 
nan

>  <Standardized_SMILES>  (289) 
CC1CN(c2ccc(Nc3ncc4c5cc[nH]c(=O)c5n(C5CCCC5)c4n3)nc2)CC(C)N1

>  <Name>  (289) 
nan

>  <Pocket>  (289) 
nan

>  <ATP_Site>  (289) 
nan

>  <Peripheral>  (289) 
nan

>  <Num_H_Atoms_ProtBoundConf>  (289) 
nan

>  <Num_Resolved_Atoms>  (289) 
nan

>  <Num_Not_Resolved_Atoms>  (289) 
nan

$$$$
CHEMBL3964451
     RDKit          3D

  0  0  0  0  0  0  0  0  0  0999 V3000
M  V30 BEGIN CTAB
M  V30 COUNTS 46 50 0 0 0
M  V30 BEGIN ATOM
M  V30 1 O 0.408772 2.193273 4.076561 0
M  V30 2 C 0.603723 1.438347 3.103974 0
M  V30 3 N 1.709778 1.890569 2.375601 0
M  V30 4 O 2.779178 2.669159 2.006803 0
M  V30 5 C 2.360331 3.692748 1.173202 0
M  V30 6 C 3.436903 4.571022 0.724605 0
M  V30 7 C 3.826932 5.728276 1.413415 0
M  V30 8 C 4.853699 6.484046 0.918582 0
M  V30 9 C 5.580121 6.210091 -0.246315 0
M  V30 10 C 5.132445 5.041023 -0.876532 0
M  V30 11 C 4.107911 4.254299 -0.416295 0
M  V30 12 C -0.034897 0.238764 2.578342 0
M  V30 13 C 0.121288 -0.384182 1.355388 0
M  V30 14 C -0.597310 -1.528119 1.111270 0
M  V30 15 C -1.472502 -2.124392 1.980447 0
M  V30 16 C -2.244921 -3.251553 1.872487 0
M  V30 17 C -2.424244 -4.211319 0.807281 0
M  V30 18 N -3.263088 -5.264604 0.933874 0
M  V30 19 C -3.288461 -6.031094 -0.155683 0
M  V30 20 C -3.947064 -7.187435 -0.554826 0
M  V30 21 C -3.714916 -7.697865 -1.792122 0
M  V30 22 C -2.856160 -7.139787 -2.699085 0
M  V30 23 C -2.175435 -5.980017 -2.339661 0
M  V30 24 C -2.403774 -5.450777 -1.079973 0
M  V30 25 N -1.946009 -4.387424 -0.422084 0
M  V30 26 N -2.870977 -3.287962 3.073323 0
M  V30 27 N -2.514508 -2.279487 3.837362 0
M  V30 28 C -1.612428 -1.485197 3.196442 0
M  V30 29 C -0.904274 -0.322861 3.488171 0
M  V30 30 H 2.101654 1.408953 1.510120 0
M  V30 31 H 1.865563 3.242403 0.294887 0
M  V30 32 H 1.562654 4.237792 1.746722 0
M  V30 33 H 3.277607 5.955531 2.314659 0
M  V30 34 H 5.119016 7.381733 1.499439 0
M  V30 35 H 6.379077 6.826388 -0.597853 0
M  V30 36 H 5.713228 4.837464 -1.791352 0
M  V30 37 H 3.887044 3.394626 -1.014649 0
M  V30 38 H 0.812352 0.109218 0.692836 0
M  V30 39 H -0.415783 -1.942166 0.140050 0
M  V30 40 H -4.623868 -7.646067 0.134052 0
M  V30 41 H -4.186847 -8.590404 -2.173441 0
M  V30 42 H -2.593176 -7.457005 -3.705570 0
M  V30 43 H -1.464703 -5.457992 -3.002792 0
M  V30 44 H -1.258561 -3.758216 -0.874902 0
M  V30 45 H -2.861254 -2.092002 4.806827 0
M  V30 46 H -1.075820 0.105731 4.464312 0
M  V30 END ATOM
M  V30 BEGIN BOND
M  V30 1 2 1 2
M  V30 2 1 2 3
M  V30 3 1 3 4
M  V30 4 1 4 5
M  V30 5 1 5 6
M  V30 6 2 6 7
M  V30 7 1 7 8
M  V30 8 2 8 9
M  V30 9 1 9 10
M  V30 10 2 10 11
M  V30 11 1 2 12
M  V30 12 2 12 13
M  V30 13 1 13 14
M  V30 14 2 14 15
M  V30 15 1 15 16
M  V30 16 1 16 17
M  V30 17 2 17 18
M  V30 18 1 18 19
M  V30 19 2 19 20
M  V30 20 1 20 21
M  V30 21 2 21 22
M  V30 22 1 22 23
M  V30 23 2 23 24
M  V30 24 1 24 25
M  V30 25 2 16 26
M  V30 26 1 26 27
M  V30 27 1 27 28
M  V30 28 2 28 29
M  V30 29 1 11 6
M  V30 30 1 29 12
M  V30 31 1 28 15
M  V30 32 1 25 17
M  V30 33 1 24 19
M  V30 34 1 3 30
M  V30 35 1 5 31
M  V30 36 1 5 32
M  V30 37 1 7 33
M  V30 38 1 8 34
M  V30 39 1 9 35
M  V30 40 1 10 36
M  V30 41 1 11 37
M  V30 42 1 13 38
M  V30 43 1 14 39
M  V30 44 1 20 40
M  V30 45 1 21 41
M  V30 46 1 22 42
M  V30 47 1 23 43
M  V30 48 1 25 44
M  V30 49 1 27 45
M  V30 50 1 29 46
M  V30 END BOND
M  V30 END CTAB
M  END
>  <Dataset>  (290) 
ChEMBL_Kinases

>  <Ligand_Instance>  (290) 
nan

>  <PDB_ID>  (290) 
nan

>  <Standardized_SMILES>  (290) 
O=C(NOCc1ccccc1)c1ccc2c(-c3nc4ccccc4[nH]3)n[nH]c2c1

>  <Name>  (290) 
nan

>  <Pocket>  (290) 
nan

>  <ATP_Site>  (290) 
nan

>  <Peripheral>  (290) 
nan

>  <Num_H_Atoms_ProtBoundConf>  (290) 
nan

>  <Num_Resolved_Atoms>  (290) 
nan

>  <Num_Not_Resolved_Atoms>  (290) 
nan

$$$$
CHEMBL3702033
     RDKit          3D

  0  0  0  0  0  0  0  0  0  0999 V3000
M  V30 BEGIN CTAB
M  V30 COUNTS 63 68 0 0 0
M  V30 BEGIN ATOM
M  V30 1 C 4.313665 -1.214537 6.152049 0
M  V30 2 C 3.159765 -2.173470 5.838450 0
M  V30 3 C 3.390292 -2.673829 4.429779 0
M  V30 4 N 2.257558 -2.264850 3.626028 0
M  V30 5 C 2.270037 -1.472642 2.450132 0
M  V30 6 C 3.475292 -1.139992 1.877423 0
M  V30 7 C 3.414248 -0.365116 0.738868 0
M  V30 8 C 2.189031 0.023853 0.249438 0
M  V30 9 N 1.992001 0.802598 -0.921551 0
M  V30 10 C 0.750699 1.261544 -1.464706 0
M  V30 11 N 0.657201 2.584855 -1.475531 0
M  V30 12 C -0.481161 3.151792 -1.965014 0
M  V30 13 C -1.503438 2.352178 -2.434345 0
M  V30 14 C -2.740682 2.584581 -2.975805 0
M  V30 15 C -3.327982 3.808671 -3.210944 0
M  V30 16 C -4.590816 3.824628 -3.771665 0
M  V30 17 N -5.190591 2.640096 -4.062928 0
M  V30 18 C -4.615001 1.433593 -3.832441 0
M  V30 19 O -5.186737 0.343389 -4.108964 0
M  V30 20 C -3.339047 1.369889 -3.267135 0
M  V30 21 N -2.493106 0.385401 -2.914924 0
M  V30 22 C -2.799774 -1.001812 -3.072979 0
M  V30 23 C -1.913544 -1.916396 -2.227119 0
M  V30 24 C -2.339991 -3.288889 -2.761886 0
M  V30 25 C -2.848320 -3.040606 -4.179334 0
M  V30 26 C -2.510197 -1.564205 -4.444185 0
M  V30 27 C -1.389118 0.968902 -2.415106 0
M  V30 28 N -0.236727 0.463257 -1.918427 0
M  V30 29 N 1.021519 -0.329001 0.850260 0
M  V30 30 N 1.065283 -1.085282 1.961324 0
M  V30 31 C 1.019010 -2.802097 4.196072 0
M  V30 32 C 0.774392 -2.011580 5.453363 0
M  V30 33 C 0.041597 -2.867739 6.455111 0
M  V30 34 N 1.950876 -1.402340 5.981857 0
M  V30 35 H 5.286879 -1.747239 6.243467 0
M  V30 36 H 4.428926 -0.441287 5.356433 0
M  V30 37 H 4.152512 -0.671929 7.105690 0
M  V30 38 H 3.177293 -2.957775 6.602300 0
M  V30 39 H 4.367913 -2.379747 4.031862 0
M  V30 40 H 3.348922 -3.798896 4.481106 0
M  V30 41 H 4.445433 -1.431696 2.242751 0
M  V30 42 H 4.302839 -0.046418 0.208621 0
M  V30 43 H 2.862745 1.064648 -1.435648 0
M  V30 44 H -0.571886 4.248120 -1.978723 0
M  V30 45 H -2.871985 4.761461 -2.988875 0
M  V30 46 H -5.161802 4.737654 -4.006979 0
M  V30 47 H -6.157197 2.542077 -4.494670 0
M  V30 48 H -3.865256 -1.233152 -2.845050 0
M  V30 49 H -2.106584 -1.831215 -1.150167 0
M  V30 50 H -0.859805 -1.803629 -2.506088 0
M  V30 51 H -3.143112 -3.618170 -2.084176 0
M  V30 52 H -1.470810 -3.959826 -2.721459 0
M  V30 53 H -3.964627 -3.054943 -4.112588 0
M  V30 54 H -2.424955 -3.714573 -4.923165 0
M  V30 55 H -3.104789 -1.142898 -5.252892 0
M  V30 56 H -1.417303 -1.568748 -4.670876 0
M  V30 57 H 0.228971 -2.613194 3.427257 0
M  V30 58 H 1.148734 -3.878915 4.424517 0
M  V30 59 H 0.060557 -1.183600 5.171292 0
M  V30 60 H -0.511159 -2.279715 7.199096 0
M  V30 61 H 0.800126 -3.550134 6.905077 0
M  V30 62 H -0.687512 -3.537388 5.955742 0
M  V30 63 H 1.815231 -1.226286 7.001276 0
M  V30 END ATOM
M  V30 BEGIN BOND
M  V30 1 1 1 2
M  V30 2 1 2 3
M  V30 3 1 3 4
M  V30 4 1 4 5
M  V30 5 2 5 6
M  V30 6 1 6 7
M  V30 7 2 7 8
M  V30 8 1 8 9
M  V30 9 1 9 10
M  V30 10 2 10 11
M  V30 11 1 11 12
M  V30 12 2 12 13
M  V30 13 1 13 14
M  V30 14 1 14 15
M  V30 15 2 15 16
M  V30 16 1 16 17
M  V30 17 1 17 18
M  V30 18 2 18 19
M  V30 19 1 18 20
M  V30 20 1 20 21
M  V30 21 1 21 22
M  V30 22 1 22 23
M  V30 23 1 23 24
M  V30 24 1 24 25
M  V30 25 1 25 26
M  V30 26 1 21 27
M  V30 27 2 27 28
M  V30 28 1 8 29
M  V30 29 2 29 30
M  V30 30 1 4 31
M  V30 31 1 31 32
M  V30 32 1 32 33
M  V30 33 1 32 34
M  V30 34 1 34 2
M  V30 35 1 30 5
M  V30 36 1 28 10
M  V30 37 1 27 13
M  V30 38 2 20 14
M  V30 39 1 26 22
M  V30 40 1 1 35
M  V30 41 1 1 36
M  V30 42 1 1 37
M  V30 43 1 2 38
M  V30 44 1 3 39
M  V30 45 1 3 40
M  V30 46 1 6 41
M  V30 47 1 7 42
M  V30 48 1 9 43
M  V30 49 1 12 44
M  V30 50 1 15 45
M  V30 51 1 16 46
M  V30 52 1 17 47
M  V30 53 1 22 48
M  V30 54 1 23 49
M  V30 55 1 23 50
M  V30 56 1 24 51
M  V30 57 1 24 52
M  V30 58 1 25 53
M  V30 59 1 25 54
M  V30 60 1 26 55
M  V30 61 1 26 56
M  V30 62 1 31 57
M  V30 63 1 31 58
M  V30 64 1 32 59
M  V30 65 1 33 60
M  V30 66 1 33 61
M  V30 67 1 33 62
M  V30 68 1 34 63
M  V30 END BOND
M  V30 END CTAB
M  END
>  <Dataset>  (291) 
ChEMBL_Kinases

>  <Ligand_Instance>  (291) 
nan

>  <PDB_ID>  (291) 
nan

>  <Standardized_SMILES>  (291) 
CC1CN(c2ccc(Nc3ncc4c5cc[nH]c(=O)c5n(C5CCCC5)c4n3)nn2)CC(C)N1

>  <Name>  (291) 
nan

>  <Pocket>  (291) 
nan

>  <ATP_Site>  (291) 
nan

>  <Peripheral>  (291) 
nan

>  <Num_H_Atoms_ProtBoundConf>  (291) 
nan

>  <Num_Resolved_Atoms>  (291) 
nan

>  <Num_Not_Resolved_Atoms>  (291) 
nan

$$$$
CHEMBL3964302
     RDKit          3D

  0  0  0  0  0  0  0  0  0  0999 V3000
M  V30 BEGIN CTAB
M  V30 COUNTS 63 66 0 0 0
M  V30 BEGIN ATOM
M  V30 1 C 1.367235 0.889196 5.421499 0
M  V30 2 C 0.947774 -0.263582 4.535875 0
M  V30 3 C 2.157195 -1.005980 4.092907 0
M  V30 4 N 3.116874 -0.281056 3.351051 0
M  V30 5 C 4.264124 -1.023876 2.943019 0
M  V30 6 C 3.830006 -2.028207 1.861986 0
M  V30 7 N 2.865868 -1.307720 1.060638 0
M  V30 8 C 1.825723 -1.954845 0.396627 0
M  V30 9 O 2.343897 -2.987372 0.887363 0
M  V30 10 N 0.687062 -2.042725 -0.403399 0
M  V30 11 C -0.219322 -1.173400 -1.144056 0
M  V30 12 C -1.552386 -1.661880 -0.637091 0
M  V30 13 C -2.883315 -1.399930 -0.300598 0
M  V30 14 N -3.445808 -0.088560 -0.430489 0
M  V30 15 C -4.018062 0.111758 -1.707938 0
M  V30 16 O -3.861468 -0.960188 -2.385628 0
M  V30 17 C -4.680448 1.304958 -2.215815 0
M  V30 18 C -5.142406 1.177443 -3.531866 0
M  V30 19 C -5.789176 2.216029 -4.154113 0
M  V30 20 C -6.023726 3.428360 -3.541860 0
M  V30 21 F -6.654388 4.487073 -4.102535 0
M  V30 22 C -5.568143 3.551251 -2.246813 0
M  V30 23 C -4.918190 2.517802 -1.611262 0
M  V30 24 F -4.469932 2.614817 -0.360995 0
M  V30 25 N -3.437009 -2.536300 0.121486 0
M  V30 26 N -2.537359 -3.498030 0.071770 0
M  V30 27 C -1.382084 -3.004327 -0.383663 0
M  V30 28 C 0.031729 -3.290702 -0.739365 0
M  V30 29 C 0.139559 -3.508264 -2.236841 0
M  V30 30 C 0.564588 -4.479305 0.023532 0
M  V30 31 C 3.116107 0.140404 1.028102 0 CFG=1
M  V30 32 C 2.497945 0.829212 -0.133446 0
M  V30 33 C 2.633700 0.649500 2.382783 0
M  V30 34 H 0.468032 1.232363 5.960841 0
M  V30 35 H 2.072868 0.431220 6.169343 0
M  V30 36 H 1.935539 1.673345 4.903945 0
M  V30 37 H 0.392813 -0.960424 5.231539 0
M  V30 38 H 0.217779 -0.005985 3.767290 0
M  V30 39 H 2.646940 -1.423492 4.995129 0
M  V30 40 H 1.837178 -1.884717 3.496807 0
M  V30 41 H 4.592295 -1.623600 3.833371 0
M  V30 42 H 5.119826 -0.431469 2.598143 0
M  V30 43 H 3.480435 -2.950961 2.318981 0
M  V30 44 H 4.718478 -2.210569 1.207644 0
M  V30 45 H -0.099000 -0.100242 -0.901924 0
M  V30 46 H -0.199839 -1.366569 -2.222983 0
M  V30 47 H -3.489736 0.699334 0.251901 0
M  V30 48 H -5.010659 0.258056 -4.114564 0
M  V30 49 H -6.136629 2.096032 -5.168039 0
M  V30 50 H -5.685771 4.440868 -1.657416 0
M  V30 51 H -2.689125 -4.494985 0.342667 0
M  V30 52 H 0.322815 -4.598984 -2.377068 0
M  V30 53 H -0.813555 -3.238955 -2.721979 0
M  V30 54 H 0.986993 -2.961386 -2.648800 0
M  V30 55 H 1.540885 -4.790269 -0.343433 0
M  V30 56 H -0.129446 -5.331763 -0.243227 0
M  V30 57 H 0.472165 -4.348171 1.099453 0
M  V30 58 H 4.232212 0.278783 0.926726 0
M  V30 59 H 1.559025 1.324485 0.117690 0
M  V30 60 H 3.195015 1.588781 -0.594599 0
M  V30 61 H 2.398625 0.057054 -0.944598 0
M  V30 62 H 1.539634 0.623618 2.347247 0
M  V30 63 H 3.062580 1.664476 2.479337 0
M  V30 END ATOM
M  V30 BEGIN BOND
M  V30 1 1 1 2
M  V30 2 1 2 3
M  V30 3 1 3 4
M  V30 4 1 4 5
M  V30 5 1 5 6
M  V30 6 1 6 7
M  V30 7 1 7 8
M  V30 8 2 8 9
M  V30 9 1 8 10
M  V30 10 1 10 11
M  V30 11 1 11 12
M  V30 12 1 12 13
M  V30 13 1 13 14
M  V30 14 1 14 15
M  V30 15 2 15 16
M  V30 16 1 15 17
M  V30 17 2 17 18
M  V30 18 1 18 19
M  V30 19 2 19 20
M  V30 20 1 20 21
M  V30 21 1 20 22
M  V30 22 2 22 23
M  V30 23 1 23 24
M  V30 24 2 13 25
M  V30 25 1 25 26
M  V30 26 1 26 27
M  V30 27 1 27 28
M  V30 28 1 28 29
M  V30 29 1 28 30
M  V30 30 1 7 31
M  V30 31 1 31 32
M  V30 32 1 31 33
M  V30 33 1 33 4
M  V30 34 1 28 10
M  V30 35 2 27 12
M  V30 36 1 23 17
M  V30 37 1 1 34
M  V30 38 1 1 35
M  V30 39 1 1 36
M  V30 40 1 2 37
M  V30 41 1 2 38
M  V30 42 1 3 39
M  V30 43 1 3 40
M  V30 44 1 5 41
M  V30 45 1 5 42
M  V30 46 1 6 43
M  V30 47 1 6 44
M  V30 48 1 11 45
M  V30 49 1 11 46
M  V30 50 1 14 47
M  V30 51 1 18 48
M  V30 52 1 19 49
M  V30 53 1 22 50
M  V30 54 1 26 51
M  V30 55 1 29 52
M  V30 56 1 29 53
M  V30 57 1 29 54
M  V30 58 1 30 55
M  V30 59 1 30 56
M  V30 60 1 30 57
M  V30 61 1 31 58 CFG=1
M  V30 62 1 32 59
M  V30 63 1 32 60
M  V30 64 1 32 61
M  V30 65 1 33 62
M  V30 66 1 33 63
M  V30 END BOND
M  V30 END CTAB
M  END
>  <Dataset>  (292) 
ChEMBL_Kinases

>  <Ligand_Instance>  (292) 
nan

>  <PDB_ID>  (292) 
nan

>  <Standardized_SMILES>  (292) 
CCCN1CCN(C(=O)N2Cc3c(NC(=O)c4ccc(F)cc4F)n[nH]c3C2(C)C)[C@@H](C)C1

>  <Name>  (292) 
nan

>  <Pocket>  (292) 
nan

>  <ATP_Site>  (292) 
nan

>  <Peripheral>  (292) 
nan

>  <Num_H_Atoms_ProtBoundConf>  (292) 
nan

>  <Num_Resolved_Atoms>  (292) 
nan

>  <Num_Not_Resolved_Atoms>  (292) 
nan

$$$$
CHEMBL3964039
     RDKit          3D

  0  0  0  0  0  0  0  0  0  0999 V3000
M  V30 BEGIN CTAB
M  V30 COUNTS 50 53 0 0 0
M  V30 BEGIN ATOM
M  V30 1 C 3.806089 -1.644764 4.622139 0
M  V30 2 C 4.451133 -1.253692 3.287048 0
M  V30 3 N 4.086160 -2.160244 2.249006 0
M  V30 4 N 4.806418 -3.275740 2.002029 0
M  V30 5 C 4.255119 -3.986414 1.007374 0
M  V30 6 C 3.143802 -3.243524 0.648219 0
M  V30 7 C 2.247280 -3.613863 -0.340541 0
M  V30 8 C 1.231482 -2.719074 -0.473910 0
M  V30 9 N 1.145695 -1.637414 0.264488 0
M  V30 10 C 1.928293 -1.217615 1.197826 0
M  V30 11 C 3.010514 -2.092607 1.406362 0
M  V30 12 C 1.919867 -0.057348 2.021432 0
M  V30 13 C 0.940476 1.020448 1.744074 0
M  V30 14 C -0.499358 0.872400 1.766382 0
M  V30 15 O -1.157751 0.344007 0.694430 0
M  V30 16 C -1.010773 1.029500 -0.470223 0
M  V30 17 C -1.880783 0.512602 -1.611648 0 CFG=2
M  V30 18 C -3.270406 0.788424 -1.290193 0
M  V30 19 C -3.800345 1.906248 -1.875834 0
M  V30 20 C -5.139177 2.207544 -1.591042 0
M  V30 21 C -5.859290 1.365364 -0.735430 0
M  V30 22 C -5.260816 0.237555 -0.168111 0
M  V30 23 C -3.924106 -0.077754 -0.442397 0
M  V30 24 N -1.750849 -0.897646 -1.923124 0
M  V30 25 C -0.807912 -1.926307 -1.659717 0
M  V30 26 O -0.516639 -0.862875 -1.154483 0
M  V30 27 N 0.115843 -2.934533 -1.401820 0
M  V30 28 H 4.327533 -2.452014 5.132828 0
M  V30 29 H 3.702540 -0.784627 5.308421 0
M  V30 30 H 2.791615 -2.050965 4.355084 0
M  V30 31 H 5.556333 -1.473188 3.512499 0
M  V30 32 H 4.495149 -0.199154 3.097551 0
M  V30 33 H 4.612537 -4.923455 0.594688 0
M  V30 34 H 2.161886 -4.428534 -1.022115 0
M  V30 35 H 1.815841 -0.244598 3.119451 0
M  V30 36 H 2.909243 0.503638 1.839111 0
M  V30 37 H 1.252023 1.529795 0.751546 0
M  V30 38 H 1.223479 1.900762 2.466620 0
M  V30 39 H -0.970846 1.895995 2.026629 0
M  V30 40 H -0.800189 0.300641 2.725635 0
M  V30 41 H 0.049611 1.177817 -0.763417 0
M  V30 42 H -1.365860 2.110613 -0.345181 0
M  V30 43 H -1.461639 1.106940 -2.501347 0
M  V30 44 H -3.244384 2.556869 -2.536621 0
M  V30 45 H -5.609582 3.078070 -2.025958 0
M  V30 46 H -6.894988 1.558956 -0.487496 0
M  V30 47 H -5.824650 -0.403040 0.488781 0
M  V30 48 H -3.423627 -0.940798 -0.024234 0
M  V30 49 H -2.564998 -1.272911 -2.498599 0
M  V30 50 H -0.045473 -3.870929 -1.816943 0
M  V30 END ATOM
M  V30 BEGIN BOND
M  V30 1 1 1 2
M  V30 2 1 2 3
M  V30 3 1 3 4
M  V30 4 2 4 5
M  V30 5 1 5 6
M  V30 6 2 6 7
M  V30 7 1 7 8
M  V30 8 2 8 9
M  V30 9 1 9 10
M  V30 10 2 10 11
M  V30 11 1 10 12
M  V30 12 1 12 13
M  V30 13 1 13 14
M  V30 14 1 14 15
M  V30 15 1 15 16
M  V30 16 1 16 17
M  V30 17 1 17 18
M  V30 18 2 18 19
M  V30 19 1 19 20
M  V30 20 2 20 21
M  V30 21 1 21 22
M  V30 22 2 22 23
M  V30 23 1 17 24
M  V30 24 1 24 25
M  V30 25 2 25 26
M  V30 26 1 25 27
M  V30 27 1 11 3
M  V30 28 1 23 18
M  V30 29 1 11 6
M  V30 30 1 27 8
M  V30 31 1 1 28
M  V30 32 1 1 29
M  V30 33 1 1 30
M  V30 34 1 2 31
M  V30 35 1 2 32
M  V30 36 1 5 33
M  V30 37 1 7 34
M  V30 38 1 12 35
M  V30 39 1 12 36
M  V30 40 1 13 37
M  V30 41 1 13 38
M  V30 42 1 14 39
M  V30 43 1 14 40
M  V30 44 1 16 41
M  V30 45 1 16 42
M  V30 46 1 17 43 CFG=3
M  V30 47 1 19 44
M  V30 48 1 20 45
M  V30 49 1 21 46
M  V30 50 1 22 47
M  V30 51 1 23 48
M  V30 52 1 24 49
M  V30 53 1 27 50
M  V30 END BOND
M  V30 END CTAB
M  END
>  <Dataset>  (293) 
ChEMBL_Kinases

>  <Ligand_Instance>  (293) 
nan

>  <PDB_ID>  (293) 
nan

>  <Standardized_SMILES>  (293) 
CCn1ncc2cc3nc(c21)CCCOC[C@H](c1ccccc1)NC(=O)N3

>  <Name>  (293) 
nan

>  <Pocket>  (293) 
nan

>  <ATP_Site>  (293) 
nan

>  <Peripheral>  (293) 
nan

>  <Num_H_Atoms_ProtBoundConf>  (293) 
nan

>  <Num_Resolved_Atoms>  (293) 
nan

>  <Num_Not_Resolved_Atoms>  (293) 
nan

$$$$
CHEMBL3963803
     RDKit          3D

  0  0  0  0  0  0  0  0  0  0999 V3000
M  V30 BEGIN CTAB
M  V30 COUNTS 39 42 0 0 0
M  V30 BEGIN ATOM
M  V30 1 O 0.974044 -8.058372 4.107188 0
M  V30 2 C 0.679890 -6.799122 3.577181 0
M  V30 3 C 1.596346 -6.336527 2.656065 0
M  V30 4 C 1.326442 -5.082764 2.112295 0
M  V30 5 C 0.188164 -4.419959 2.530679 0
M  V30 6 C -0.093405 -3.098911 1.956901 0
M  V30 7 C 1.021138 -2.351830 1.628710 0
M  V30 8 C 0.805718 -1.092908 1.080275 0
M  V30 9 C -0.495895 -0.624138 0.878570 0
M  V30 10 C -0.903559 0.584521 0.352498 0
M  V30 11 C -0.061697 1.662667 -0.118524 0
M  V30 12 C -0.498738 2.799602 -0.614375 0
M  V30 13 C 0.291743 3.923096 -1.104926 0
M  V30 14 C -0.367876 5.032954 -1.590711 0
M  V30 15 C 0.325728 6.132743 -2.069557 0
M  V30 16 C 1.704248 6.046112 -2.029263 0
M  V30 17 C 2.398532 4.953987 -1.551199 0
M  V30 18 C 1.668189 3.861222 -1.075457 0
M  V30 19 N -2.235879 0.533415 0.377573 0
M  V30 20 N -2.657035 -0.626905 0.884374 0
M  V30 21 C -1.597736 -1.382659 1.211676 0
M  V30 22 C -1.369709 -2.621355 1.751385 0
M  V30 23 C -0.720997 -4.900632 3.456943 0
M  V30 24 N -0.423725 -6.130172 3.967402 0
M  V30 25 H 0.540982 -8.911402 3.745085 0
M  V30 26 H 2.467098 -6.883608 2.359208 0
M  V30 27 H 1.992519 -4.649469 1.385566 0
M  V30 28 H 2.040571 -2.637855 1.751011 0
M  V30 29 H 1.642406 -0.458096 0.801368 0
M  V30 30 H 1.023208 1.544989 -0.068399 0
M  V30 31 H -1.591424 2.841391 -0.632267 0
M  V30 32 H -1.449973 5.128583 -1.634927 0
M  V30 33 H -0.186377 7.002597 -2.449975 0
M  V30 34 H 2.283714 6.893534 -2.398487 0
M  V30 35 H 3.480557 4.931928 -1.539682 0
M  V30 36 H 2.232070 3.030737 -0.711762 0
M  V30 37 H -3.650188 -0.916724 1.013004 0
M  V30 38 H -2.212686 -3.226274 2.016386 0
M  V30 39 H -1.579444 -4.335199 3.734282 0
M  V30 END ATOM
M  V30 BEGIN BOND
M  V30 1 1 1 2
M  V30 2 2 2 3
M  V30 3 1 3 4
M  V30 4 2 4 5
M  V30 5 1 5 6
M  V30 6 2 6 7
M  V30 7 1 7 8
M  V30 8 2 8 9
M  V30 9 1 9 10
M  V30 10 1 10 11
M  V30 11 2 11 12
M  V30 12 1 12 13
M  V30 13 2 13 14
M  V30 14 1 14 15
M  V30 15 2 15 16
M  V30 16 1 16 17
M  V30 17 2 17 18
M  V30 18 2 10 19
M  V30 19 1 19 20
M  V30 20 1 20 21
M  V30 21 2 21 22
M  V30 22 1 5 23
M  V30 23 2 23 24
M  V30 24 1 24 2
M  V30 25 1 22 6
M  V30 26 1 21 9
M  V30 27 1 18 13
M  V30 28 1 1 25
M  V30 29 1 3 26
M  V30 30 1 4 27
M  V30 31 1 7 28
M  V30 32 1 8 29
M  V30 33 1 11 30
M  V30 34 1 12 31
M  V30 35 1 14 32
M  V30 36 1 15 33
M  V30 37 1 16 34
M  V30 38 1 17 35
M  V30 39 1 18 36
M  V30 40 1 20 37
M  V30 41 1 22 38
M  V30 42 1 23 39
M  V30 END BOND
M  V30 END CTAB
M  END
>  <Dataset>  (294) 
ChEMBL_Kinases

>  <Ligand_Instance>  (294) 
nan

>  <PDB_ID>  (294) 
nan

>  <Standardized_SMILES>  (294) 
Oc1ccc(-c2ccc3c(/C=C/c4ccccc4)n[nH]c3c2)cn1

>  <Name>  (294) 
nan

>  <Pocket>  (294) 
nan

>  <ATP_Site>  (294) 
nan

>  <Peripheral>  (294) 
nan

>  <Num_H_Atoms_ProtBoundConf>  (294) 
nan

>  <Num_Resolved_Atoms>  (294) 
nan

>  <Num_Not_Resolved_Atoms>  (294) 
nan

$$$$
CHEMBL4869696
     RDKit          3D

  0  0  0  0  0  0  0  0  0  0999 V3000
M  V30 BEGIN CTAB
M  V30 COUNTS 56 61 0 0 0
M  V30 BEGIN ATOM
M  V30 1 C 4.337726 1.481050 5.408354 0
M  V30 2 O 3.370392 1.900173 4.467510 0
M  V30 3 C 3.128885 1.083109 3.362274 0
M  V30 4 N 3.812262 -0.075691 3.213095 0
M  V30 5 C 3.515346 -0.799047 2.120378 0
M  V30 6 C 2.558477 -0.285033 1.283436 0
M  V30 7 C 1.825685 0.878034 1.367936 0
M  V30 8 C 2.167264 1.576295 2.499023 0
M  V30 9 N 1.503087 2.776159 2.720278 0
M  V30 10 S 0.092455 3.247567 1.862424 0
M  V30 11 O 0.342458 3.483233 0.399378 0
M  V30 12 O -0.430723 4.580833 2.342489 0
M  V30 13 C -1.278213 2.152167 2.091588 0
M  V30 14 C -1.933569 2.043348 3.300905 0
M  V30 15 C -3.011592 1.168612 3.447510 0
M  V30 16 C -3.443829 0.387692 2.366874 0
M  V30 17 C -2.752451 0.525899 1.151382 0
M  V30 18 C -1.708425 1.374583 1.014177 0
M  V30 19 C -3.263836 -0.297103 0.128325 0
M  V30 20 O -3.802046 -1.429236 0.212795 0
M  V30 21 N -3.471356 -0.410747 -1.248960 0
M  V30 22 C -4.069646 -1.461751 -2.058251 0
M  V30 23 C -3.173352 -2.637969 -2.272703 0
M  V30 24 C -3.700133 -3.918306 -2.402461 0
M  V30 25 C -2.907759 -5.045149 -2.611534 0
M  V30 26 C -1.528062 -4.890884 -2.695258 0
M  V30 27 C -1.026502 -3.604682 -2.562604 0
M  V30 28 C -1.797204 -2.473840 -2.354608 0
M  V30 29 C 0.441077 -3.570961 -2.673610 0
M  V30 30 N 1.102422 -4.266941 -3.625025 0
M  V30 31 C 2.465071 -4.107853 -3.568023 0
M  V30 32 N 3.165917 -3.360862 -2.696226 0
M  V30 33 C 2.484194 -2.663223 -1.740411 0
M  V30 34 C 3.115863 -1.879253 -0.810796 0
M  V30 35 C 2.325437 -1.274995 0.041416 0
M  V30 36 S 0.606520 -1.842878 -0.497890 0
M  V30 37 C 1.083534 -2.750749 -1.702706 0
M  V30 38 H 4.360212 0.381984 5.436727 0
M  V30 39 H 5.317655 1.959572 5.239273 0
M  V30 40 H 3.933995 1.784810 6.417955 0
M  V30 41 H 4.012464 -1.736828 1.918798 0
M  V30 42 H 1.137521 1.059755 0.588328 0
M  V30 43 H 1.880125 3.440395 3.454519 0
M  V30 44 H -1.610601 2.641224 4.146905 0
M  V30 45 H -3.512115 1.102937 4.420339 0
M  V30 46 H -4.295580 -0.304610 2.485022 0
M  V30 47 H -1.210459 1.443474 0.060327 0
M  V30 48 H -3.057190 0.507626 -1.509631 0
M  V30 49 H -4.995909 -1.857260 -1.587576 0
M  V30 50 H -4.365031 -1.091667 -3.041666 0
M  V30 51 H -4.785455 -4.062515 -2.339379 0
M  V30 52 H -3.351004 -6.037466 -2.709889 0
M  V30 53 H -0.879609 -5.759623 -2.861644 0
M  V30 54 H -1.292018 -1.540559 -2.269504 0
M  V30 55 H 3.018652 -4.657519 -4.323632 0
M  V30 56 H 4.172478 -1.691198 -0.682911 0
M  V30 END ATOM
M  V30 BEGIN BOND
M  V30 1 1 1 2
M  V30 2 1 2 3
M  V30 3 2 3 4
M  V30 4 1 4 5
M  V30 5 2 5 6
M  V30 6 1 6 7
M  V30 7 2 7 8
M  V30 8 1 8 9
M  V30 9 1 9 10
M  V30 10 2 10 11
M  V30 11 2 10 12
M  V30 12 1 10 13
M  V30 13 2 13 14
M  V30 14 1 14 15
M  V30 15 2 15 16
M  V30 16 1 16 17
M  V30 17 2 17 18
M  V30 18 1 17 19
M  V30 19 2 19 20
M  V30 20 1 19 21
M  V30 21 1 21 22
M  V30 22 1 22 23
M  V30 23 1 23 24
M  V30 24 2 24 25
M  V30 25 1 25 26
M  V30 26 2 26 27
M  V30 27 1 27 28
M  V30 28 1 27 29
M  V30 29 1 29 30
M  V30 30 2 30 31
M  V30 31 1 31 32
M  V30 32 2 32 33
M  V30 33 1 33 34
M  V30 34 2 34 35
M  V30 35 1 35 36
M  V30 36 1 36 37
M  V30 37 1 8 3
M  V30 38 1 18 13
M  V30 39 2 28 23
M  V30 40 2 37 29
M  V30 41 1 35 6
M  V30 42 1 37 33
M  V30 43 1 1 38
M  V30 44 1 1 39
M  V30 45 1 1 40
M  V30 46 1 5 41
M  V30 47 1 7 42
M  V30 48 1 9 43
M  V30 49 1 14 44
M  V30 50 1 15 45
M  V30 51 1 16 46
M  V30 52 1 18 47
M  V30 53 1 21 48
M  V30 54 1 22 49
M  V30 55 1 22 50
M  V30 56 1 24 51
M  V30 57 1 25 52
M  V30 58 1 26 53
M  V30 59 1 28 54
M  V30 60 1 31 55
M  V30 61 1 34 56
M  V30 END BOND
M  V30 END CTAB
M  END
>  <Dataset>  (295) 
ChEMBL_Kinases

>  <Ligand_Instance>  (295) 
nan

>  <PDB_ID>  (295) 
nan

>  <Standardized_SMILES>  (295) 
COc1ncc2cc1NS(=O)(=O)c1cccc(c1)C(=O)NCc1cccc(c1)-c1ncnc3cc-2sc13

>  <Name>  (295) 
nan

>  <Pocket>  (295) 
nan

>  <ATP_Site>  (295) 
nan

>  <Peripheral>  (295) 
nan

>  <Num_H_Atoms_ProtBoundConf>  (295) 
nan

>  <Num_Resolved_Atoms>  (295) 
nan

>  <Num_Not_Resolved_Atoms>  (295) 
nan

$$$$
CHEMBL3702034
     RDKit          3D

  0  0  0  0  0  0  0  0  0  0999 V3000
M  V30 BEGIN CTAB
M  V30 COUNTS 60 65 0 0 0
M  V30 BEGIN ATOM
M  V30 1 N 3.142738 -5.115955 4.642884 0
M  V30 2 C 3.158149 -4.288275 3.439578 0
M  V30 3 C 2.786057 -2.895547 3.838080 0
M  V30 4 C 3.835204 -1.953453 3.350824 0
M  V30 5 N 4.046954 -2.164886 1.937289 0
M  V30 6 C 3.549235 -1.305155 0.923212 0
M  V30 7 C 2.475325 -0.447956 1.239696 0
M  V30 8 C 1.974182 0.414138 0.248999 0
M  V30 9 C 2.523212 0.434300 -1.042666 0
M  V30 10 N 1.996854 1.285967 -2.052864 0
M  V30 11 C 0.868721 2.042320 -1.621202 0
M  V30 12 N 0.570918 3.295243 -1.243865 0
M  V30 13 C -0.678079 3.648522 -0.871420 0
M  V30 14 C -1.706953 2.766108 -0.854193 0
M  V30 15 C -3.053708 2.775738 -0.546396 0
M  V30 16 C -3.836101 3.809176 -0.118169 0
M  V30 17 C -5.178676 3.493362 0.107333 0
M  V30 18 N -5.666799 2.233964 -0.089840 0
M  V30 19 C -4.825393 1.275941 -0.513150 0
M  V30 20 O -5.313765 0.140313 -0.681911 0
M  V30 21 C -3.489126 1.484885 -0.762924 0
M  V30 22 N -2.531907 0.643018 -1.186346 0
M  V30 23 C -2.535794 -0.738589 -1.507431 0
M  V30 24 C -2.747576 -1.692672 -0.356607 0
M  V30 25 C -3.300373 -2.951612 -0.985670 0
M  V30 26 C -3.995753 -2.509844 -2.254613 0
M  V30 27 C -3.376012 -1.184769 -2.648504 0
M  V30 28 C -1.430712 1.477732 -1.234022 0
M  V30 29 N -0.166212 1.200915 -1.591769 0
M  V30 30 N 3.537674 -0.419221 -1.232666 0
M  V30 31 N 4.027366 -1.238364 -0.322741 0
M  V30 32 C 4.803212 -3.375958 1.745934 0
M  V30 33 C 4.510618 -4.412201 2.801241 0
M  V30 34 H 2.568226 -4.665505 5.397416 0
M  V30 35 H 4.130432 -5.267459 4.945800 0
M  V30 36 H 2.330512 -4.698710 2.800327 0
M  V30 37 H 1.821255 -2.592559 3.373765 0
M  V30 38 H 2.735001 -2.814917 4.944851 0
M  V30 39 H 4.798167 -2.052725 3.894139 0
M  V30 40 H 3.481989 -0.907659 3.508688 0
M  V30 41 H 2.007179 -0.415821 2.207237 0
M  V30 42 H 1.139115 1.070730 0.514228 0
M  V30 43 H 2.475273 1.263263 -2.970779 0
M  V30 44 H -0.833803 4.659864 -0.585524 0
M  V30 45 H -3.458358 4.793631 0.036690 0
M  V30 46 H -5.874673 4.255050 0.452058 0
M  V30 47 H -6.673055 2.016387 0.081025 0
M  V30 48 H -1.473937 -1.000734 -1.835713 0
M  V30 49 H -3.344936 -1.293110 0.477144 0
M  V30 50 H -1.795155 -2.018720 0.133320 0
M  V30 51 H -4.024055 -3.391525 -0.286011 0
M  V30 52 H -2.519560 -3.697611 -1.196105 0
M  V30 53 H -5.074647 -2.326852 -2.049507 0
M  V30 54 H -3.935839 -3.279564 -3.046381 0
M  V30 55 H -4.105616 -0.445333 -3.034522 0
M  V30 56 H -2.774954 -1.438689 -3.581680 0
M  V30 57 H 5.881787 -3.126230 1.856634 0
M  V30 58 H 4.681090 -3.826055 0.743579 0
M  V30 59 H 5.275602 -4.441647 3.603663 0
M  V30 60 H 4.546156 -5.429648 2.324424 0
M  V30 END ATOM
M  V30 BEGIN BOND
M  V30 1 1 1 2
M  V30 2 1 2 3
M  V30 3 1 3 4
M  V30 4 1 4 5
M  V30 5 1 5 6
M  V30 6 2 6 7
M  V30 7 1 7 8
M  V30 8 2 8 9
M  V30 9 1 9 10
M  V30 10 1 10 11
M  V30 11 2 11 12
M  V30 12 1 12 13
M  V30 13 2 13 14
M  V30 14 1 14 15
M  V30 15 1 15 16
M  V30 16 2 16 17
M  V30 17 1 17 18
M  V30 18 1 18 19
M  V30 19 2 19 20
M  V30 20 1 19 21
M  V30 21 1 21 22
M  V30 22 1 22 23
M  V30 23 1 23 24
M  V30 24 1 24 25
M  V30 25 1 25 26
M  V30 26 1 26 27
M  V30 27 1 22 28
M  V30 28 2 28 29
M  V30 29 1 9 30
M  V30 30 2 30 31
M  V30 31 1 5 32
M  V30 32 1 32 33
M  V30 33 1 33 2
M  V30 34 1 31 6
M  V30 35 1 29 11
M  V30 36 1 28 14
M  V30 37 2 21 15
M  V30 38 1 27 23
M  V30 39 1 1 34
M  V30 40 1 1 35
M  V30 41 1 2 36
M  V30 42 1 3 37
M  V30 43 1 3 38
M  V30 44 1 4 39
M  V30 45 1 4 40
M  V30 46 1 7 41
M  V30 47 1 8 42
M  V30 48 1 10 43
M  V30 49 1 13 44
M  V30 50 1 16 45
M  V30 51 1 17 46
M  V30 52 1 18 47
M  V30 53 1 23 48
M  V30 54 1 24 49
M  V30 55 1 24 50
M  V30 56 1 25 51
M  V30 57 1 25 52
M  V30 58 1 26 53
M  V30 59 1 26 54
M  V30 60 1 27 55
M  V30 61 1 27 56
M  V30 62 1 32 57
M  V30 63 1 32 58
M  V30 64 1 33 59
M  V30 65 1 33 60
M  V30 END BOND
M  V30 END CTAB
M  END
>  <Dataset>  (296) 
ChEMBL_Kinases

>  <Ligand_Instance>  (296) 
nan

>  <PDB_ID>  (296) 
nan

>  <Standardized_SMILES>  (296) 
NC1CCN(c2ccc(Nc3ncc4c5cc[nH]c(=O)c5n(C5CCCC5)c4n3)nn2)CC1

>  <Name>  (296) 
nan

>  <Pocket>  (296) 
nan

>  <ATP_Site>  (296) 
nan

>  <Peripheral>  (296) 
nan

>  <Num_H_Atoms_ProtBoundConf>  (296) 
nan

>  <Num_Resolved_Atoms>  (296) 
nan

>  <Num_Not_Resolved_Atoms>  (296) 
nan

$$$$
CHEMBL3702035
     RDKit          3D

  0  0  0  0  0  0  0  0  0  0999 V3000
M  V30 BEGIN CTAB
M  V30 COUNTS 66 71 0 0 0
M  V30 BEGIN ATOM
M  V30 1 C 5.269876 4.183394 5.195247 0
M  V30 2 N 4.606892 3.040084 4.657816 0
M  V30 3 C 5.500801 2.048971 4.126569 0
M  V30 4 C 3.561499 3.361432 3.750018 0
M  V30 5 C 2.456963 4.176220 4.364625 0
M  V30 6 C 1.293002 4.231724 3.369307 0
M  V30 7 N 1.705721 3.677284 2.097647 0
M  V30 8 C 1.095507 2.608751 1.396952 0
M  V30 9 C 0.039783 1.895898 1.919051 0
M  V30 10 C -0.440649 0.887537 1.115193 0
M  V30 11 C 0.021866 0.532337 -0.130247 0
M  V30 12 N -0.456282 -0.503799 -0.965411 0
M  V30 13 C -1.508940 -1.413497 -0.702200 0
M  V30 14 N -2.249653 -1.460425 0.412536 0
M  V30 15 C -3.242254 -2.327205 0.657574 0
M  V30 16 C -3.538444 -3.256703 -0.312406 0
M  V30 17 C -4.434477 -4.290949 -0.482531 0
M  V30 18 C -5.427381 -4.753845 0.388978 0
M  V30 19 C -6.216903 -5.818897 -0.002508 0
M  V30 20 N -6.015119 -6.386332 -1.208524 0
M  V30 21 C -5.049302 -5.913508 -2.020183 0
M  V30 22 O -4.932429 -6.502765 -3.125592 0
M  V30 23 C -4.212853 -4.858443 -1.720236 0
M  V30 24 N -3.206418 -4.212144 -2.331196 0
M  V30 25 C -2.760339 -4.601513 -3.653619 0
M  V30 26 C -1.896015 -3.609987 -4.330941 0
M  V30 27 C -0.499035 -3.935426 -3.952423 0
M  V30 28 C -0.569691 -5.176440 -3.061643 0
M  V30 29 C -1.877878 -5.813308 -3.492379 0
M  V30 30 C -2.799566 -3.243054 -1.477874 0
M  V30 31 N -1.829231 -2.335240 -1.622281 0
M  V30 32 N 1.054646 1.297942 -0.539249 0
M  V30 33 N 1.565272 2.281500 0.181239 0
M  V30 34 C 2.877344 4.379698 1.618022 0
M  V30 35 C 4.057266 4.181675 2.553258 0
M  V30 36 H 6.027596 4.531870 4.441054 0
M  V30 37 H 5.883821 3.922095 6.083470 0
M  V30 38 H 4.571932 4.959183 5.505444 0
M  V30 39 H 5.112391 1.031901 4.347411 0
M  V30 40 H 5.651486 2.095689 3.030000 0
M  V30 41 H 6.518681 2.118761 4.565358 0
M  V30 42 H 3.120374 2.431152 3.329036 0
M  V30 43 H 2.802540 5.196265 4.542252 0
M  V30 44 H 2.108340 3.765430 5.343759 0
M  V30 45 H 1.012589 5.307960 3.193022 0
M  V30 46 H 0.432427 3.722898 3.822870 0
M  V30 47 H -0.374674 2.112105 2.877267 0
M  V30 48 H -1.268229 0.326576 1.521595 0
M  V30 49 H 0.035149 -0.606321 -1.896108 0
M  V30 50 H -3.814952 -2.329391 1.573557 0
M  V30 51 H -5.590011 -4.297848 1.358375 0
M  V30 52 H -7.017958 -6.245072 0.617777 0
M  V30 53 H -6.628187 -7.198141 -1.487551 0
M  V30 54 H -3.671698 -4.859823 -4.265426 0
M  V30 55 H -1.995249 -3.768282 -5.435869 0
M  V30 56 H -2.179566 -2.551839 -4.150535 0
M  V30 57 H 0.058564 -3.106622 -3.500473 0
M  V30 58 H 0.126290 -4.242352 -4.847542 0
M  V30 59 H -0.692360 -4.848707 -2.016692 0
M  V30 60 H 0.309003 -5.834881 -3.223812 0
M  V30 61 H -2.222866 -6.525004 -2.715383 0
M  V30 62 H -1.714608 -6.340537 -4.468028 0
M  V30 63 H 2.600067 5.443867 1.483875 0
M  V30 64 H 3.171817 3.933933 0.625605 0
M  V30 65 H 4.329499 5.194971 2.938337 0
M  V30 66 H 4.910994 3.714898 2.052005 0
M  V30 END ATOM
M  V30 BEGIN BOND
M  V30 1 1 1 2
M  V30 2 1 2 3
M  V30 3 1 2 4
M  V30 4 1 4 5
M  V30 5 1 5 6
M  V30 6 1 6 7
M  V30 7 1 7 8
M  V30 8 2 8 9
M  V30 9 1 9 10
M  V30 10 2 10 11
M  V30 11 1 11 12
M  V30 12 1 12 13
M  V30 13 2 13 14
M  V30 14 1 14 15
M  V30 15 2 15 16
M  V30 16 1 16 17
M  V30 17 1 17 18
M  V30 18 2 18 19
M  V30 19 1 19 20
M  V30 20 1 20 21
M  V30 21 2 21 22
M  V30 22 1 21 23
M  V30 23 1 23 24
M  V30 24 1 24 25
M  V30 25 1 25 26
M  V30 26 1 26 27
M  V30 27 1 27 28
M  V30 28 1 28 29
M  V30 29 1 24 30
M  V30 30 2 30 31
M  V30 31 1 11 32
M  V30 32 2 32 33
M  V30 33 1 7 34
M  V30 34 1 34 35
M  V30 35 1 35 4
M  V30 36 1 33 8
M  V30 37 1 31 13
M  V30 38 1 30 16
M  V30 39 2 23 17
M  V30 40 1 29 25
M  V30 41 1 1 36
M  V30 42 1 1 37
M  V30 43 1 1 38
M  V30 44 1 3 39
M  V30 45 1 3 40
M  V30 46 1 3 41
M  V30 47 1 4 42
M  V30 48 1 5 43
M  V30 49 1 5 44
M  V30 50 1 6 45
M  V30 51 1 6 46
M  V30 52 1 9 47
M  V30 53 1 10 48
M  V30 54 1 12 49
M  V30 55 1 15 50
M  V30 56 1 18 51
M  V30 57 1 19 52
M  V30 58 1 20 53
M  V30 59 1 25 54
M  V30 60 1 26 55
M  V30 61 1 26 56
M  V30 62 1 27 57
M  V30 63 1 27 58
M  V30 64 1 28 59
M  V30 65 1 28 60
M  V30 66 1 29 61
M  V30 67 1 29 62
M  V30 68 1 34 63
M  V30 69 1 34 64
M  V30 70 1 35 65
M  V30 71 1 35 66
M  V30 END BOND
M  V30 END CTAB
M  END
>  <Dataset>  (297) 
ChEMBL_Kinases

>  <Ligand_Instance>  (297) 
nan

>  <PDB_ID>  (297) 
nan

>  <Standardized_SMILES>  (297) 
CN(C)C1CCN(c2ccc(Nc3ncc4c5cc[nH]c(=O)c5n(C5CCCC5)c4n3)nn2)CC1

>  <Name>  (297) 
nan

>  <Pocket>  (297) 
nan

>  <ATP_Site>  (297) 
nan

>  <Peripheral>  (297) 
nan

>  <Num_H_Atoms_ProtBoundConf>  (297) 
nan

>  <Num_Resolved_Atoms>  (297) 
nan

>  <Num_Not_Resolved_Atoms>  (297) 
nan

$$$$
CHEMBL3963562
     RDKit          3D

  0  0  0  0  0  0  0  0  0  0999 V3000
M  V30 BEGIN CTAB
M  V30 COUNTS 78 79 0 0 0
M  V30 BEGIN ATOM
M  V30 1 C -1.032272 -11.913589 0.765271 0
M  V30 2 O -1.931458 -10.857967 0.856584 0
M  V30 3 C -1.675649 -9.896046 -0.119610 0
M  V30 4 C -2.710250 -8.781608 0.056561 0
M  V30 5 O -2.539675 -7.758251 -0.877168 0
M  V30 6 C -3.503900 -6.788652 -0.679633 0
M  V30 7 C -3.345455 -5.635981 -1.652164 0
M  V30 8 O -2.131198 -5.010917 -1.532154 0
M  V30 9 C -1.939547 -3.952919 -2.394975 0
M  V30 10 C -2.960287 -2.837310 -2.227600 0
M  V30 11 N -2.893205 -2.307960 -0.849943 0
M  V30 12 C -3.860142 -1.237711 -0.781433 0
M  V30 13 N -3.499728 -0.082754 -1.597516 0
M  V30 14 C -2.461200 0.864743 -1.320852 0
M  V30 15 C -2.161658 1.882404 -2.195481 0
M  V30 16 C -1.171907 2.783170 -1.887584 0
M  V30 17 O -1.005072 3.742964 -2.886494 0
M  V30 18 C -0.447909 2.715202 -0.718141 0
M  V30 19 C -0.734499 1.710184 0.160395 0
M  V30 20 C -1.727519 0.816998 -0.161780 0
M  V30 21 C -0.111979 1.443898 1.442597 0
M  V30 22 C 0.955962 1.853835 2.089878 0
M  V30 23 C 1.511721 1.515148 3.413059 0
M  V30 24 C 2.898666 0.930663 3.390998 0 CFG=2
M  V30 25 O 3.196373 0.669806 4.760586 0
M  V30 26 C 3.954356 1.962418 2.964583 0 CFG=2
M  V30 27 O 3.789767 3.130302 3.707123 0
M  V30 28 C 4.006146 2.115599 1.519804 0
M  V30 29 O 4.252863 0.891113 1.220821 0
M  V30 30 C 4.002414 2.547524 0.132055 0
M  V30 31 C 3.757405 3.833036 -0.185249 0
M  V30 32 C 3.458589 5.037707 0.621438 0 CFG=1
M  V30 33 C 4.513812 6.084865 0.334204 0
M  V30 34 C 2.077939 5.547358 0.128223 0 CFG=2
M  V30 35 C 1.673986 6.798317 0.853851 0
M  V30 36 O 1.157008 4.520453 0.263214 0
M  V30 37 C 0.517610 3.790012 -0.686194 0
M  V30 38 O 1.022743 4.331024 -1.697750 0
M  V30 39 H 0.028387 -11.559396 0.889217 0
M  V30 40 H -1.087555 -12.459143 -0.172993 0
M  V30 41 H -1.161574 -12.637177 1.618713 0
M  V30 42 H -0.655606 -9.520850 -0.052488 0
M  V30 43 H -1.884512 -10.388694 -1.107297 0
M  V30 44 H -3.725404 -9.195932 -0.097204 0
M  V30 45 H -2.666589 -8.397446 1.098190 0
M  V30 46 H -3.488118 -6.343811 0.341479 0
M  V30 47 H -4.506913 -7.239166 -0.829102 0
M  V30 48 H -3.428956 -6.059079 -2.671815 0
M  V30 49 H -4.218951 -4.948983 -1.515584 0
M  V30 50 H -1.984993 -4.357739 -3.429629 0
M  V30 51 H -0.902495 -3.562434 -2.263684 0
M  V30 52 H -2.654769 -2.007472 -2.896227 0
M  V30 53 H -3.960751 -3.183880 -2.495750 0
M  V30 54 H -1.941536 -1.895792 -0.794071 0
M  V30 55 H -4.811620 -1.637895 -1.177769 0
M  V30 56 H -4.062665 -0.928929 0.268703 0
M  V30 57 H -4.054921 0.088131 -2.493086 0
M  V30 58 H -2.747703 1.914386 -3.107735 0
M  V30 59 H -1.631736 4.553668 -2.803521 0
M  V30 60 H -2.010145 0.001020 0.508568 0
M  V30 61 H -0.561838 0.730935 2.156213 0
M  V30 62 H 1.724493 2.558515 1.841538 0
M  V30 63 H 1.512521 2.354442 4.143121 0
M  V30 64 H 0.839984 0.725095 3.839241 0
M  V30 65 H 3.015219 -0.009456 2.862629 0
M  V30 66 H 2.364391 0.327003 5.200715 0
M  V30 67 H 4.971895 1.583533 3.329167 0
M  V30 68 H 4.679391 3.597718 3.747743 0
M  V30 69 H 4.161128 2.043366 -0.788949 0
M  V30 70 H 3.747945 4.204743 -1.203430 0
M  V30 71 H 3.419332 4.862006 1.706164 0
M  V30 72 H 5.403040 5.664252 -0.185543 0
M  V30 73 H 4.891607 6.556447 1.269168 0
M  V30 74 H 4.074042 6.820585 -0.357540 0
M  V30 75 H 2.302032 5.840299 -0.938561 0
M  V30 76 H 1.972512 6.742462 1.911395 0
M  V30 77 H 0.551801 6.839774 0.815261 0
M  V30 78 H 2.121630 7.717350 0.427147 0
M  V30 END ATOM
M  V30 BEGIN BOND
M  V30 1 1 1 2
M  V30 2 1 2 3
M  V30 3 1 3 4
M  V30 4 1 4 5
M  V30 5 1 5 6
M  V30 6 1 6 7
M  V30 7 1 7 8
M  V30 8 1 8 9
M  V30 9 1 9 10
M  V30 10 1 10 11
M  V30 11 1 11 12
M  V30 12 1 12 13
M  V30 13 1 13 14
M  V30 14 2 14 15
M  V30 15 1 15 16
M  V30 16 1 16 17
M  V30 17 2 16 18
M  V30 18 1 18 19
M  V30 19 2 19 20
M  V30 20 1 19 21
M  V30 21 2 21 22
M  V30 22 1 22 23
M  V30 23 1 23 24
M  V30 24 1 24 25
M  V30 25 1 24 26
M  V30 26 1 26 27
M  V30 27 1 26 28
M  V30 28 2 28 29
M  V30 29 1 28 30
M  V30 30 2 30 31
M  V30 31 1 31 32
M  V30 32 1 32 33
M  V30 33 1 32 34
M  V30 34 1 34 35
M  V30 35 1 34 36
M  V30 36 1 36 37
M  V30 37 2 37 38
M  V30 38 1 20 14
M  V30 39 1 37 18
M  V30 40 1 1 39
M  V30 41 1 1 40
M  V30 42 1 1 41
M  V30 43 1 3 42
M  V30 44 1 3 43
M  V30 45 1 4 44
M  V30 46 1 4 45
M  V30 47 1 6 46
M  V30 48 1 6 47
M  V30 49 1 7 48
M  V30 50 1 7 49
M  V30 51 1 9 50
M  V30 52 1 9 51
M  V30 53 1 10 52
M  V30 54 1 10 53
M  V30 55 1 11 54
M  V30 56 1 12 55
M  V30 57 1 12 56
M  V30 58 1 13 57
M  V30 59 1 15 58
M  V30 60 1 17 59
M  V30 61 1 20 60
M  V30 62 1 21 61
M  V30 63 1 22 62
M  V30 64 1 23 63
M  V30 65 1 23 64
M  V30 66 1 24 65 CFG=3
M  V30 67 1 25 66
M  V30 68 1 26 67 CFG=1
M  V30 69 1 27 68
M  V30 70 1 30 69
M  V30 71 1 31 70
M  V30 72 1 32 71 CFG=1
M  V30 73 1 33 72
M  V30 74 1 33 73
M  V30 75 1 33 74
M  V30 76 1 34 75 CFG=3
M  V30 77 1 35 76
M  V30 78 1 35 77
M  V30 79 1 35 78
M  V30 END BOND
M  V30 END CTAB
M  END
>  <Dataset>  (298) 
ChEMBL_Kinases

>  <Ligand_Instance>  (298) 
nan

>  <PDB_ID>  (298) 
nan

>  <Standardized_SMILES>  (298) 
COCCOCCOCCNCNc1cc(O)c2c(c1)/C=C/C[C@H](O)[C@H](O)C(=O)/C=C\[C@@H](C)[C@H](C)OC2=O

>  <Name>  (298) 
nan

>  <Pocket>  (298) 
nan

>  <ATP_Site>  (298) 
nan

>  <Peripheral>  (298) 
nan

>  <Num_H_Atoms_ProtBoundConf>  (298) 
nan

>  <Num_Resolved_Atoms>  (298) 
nan

>  <Num_Not_Resolved_Atoms>  (298) 
nan

$$$$
CHEMBL4869800
     RDKit          3D

  0  0  0  0  0  0  0  0  0  0999 V3000
M  V30 BEGIN CTAB
M  V30 COUNTS 67 71 0 0 0
M  V30 BEGIN ATOM
M  V30 1 C 3.846040 -0.095986 5.122494 0
M  V30 2 O 4.779518 -1.014954 4.602475 0
M  V30 3 C 5.243901 -0.964079 3.294717 0
M  V30 4 C 6.156198 -1.937218 2.941330 0
M  V30 5 C 6.626669 -1.903324 1.652663 0
M  V30 6 F 7.525615 -2.822060 1.221639 0
M  V30 7 C 6.240225 -0.973664 0.733758 0
M  V30 8 C 5.334413 0.005335 1.058837 0
M  V30 9 C 4.735241 1.134570 0.304935 0 CFG=1
M  V30 10 C 5.110708 1.139141 -1.134639 0
M  V30 11 O 6.498625 1.194201 -1.241014 0
M  V30 12 N 3.286981 1.096532 0.532659 0
M  V30 13 C 2.688284 2.185160 1.191709 0
M  V30 14 O 3.378082 3.175575 1.584617 0
M  V30 15 C 1.269602 2.498380 1.591114 0 CFG=1
M  V30 16 C 0.858161 3.895442 1.286909 0
M  V30 17 N 0.431858 1.481073 1.023465 0
M  V30 18 C 0.039029 1.227675 -0.327379 0
M  V30 19 C -0.825321 0.020212 -0.190558 0
M  V30 20 C -1.421532 -0.591181 -1.274243 0
M  V30 21 C -2.217363 -1.712925 -1.015795 0
M  V30 22 C -2.370661 -2.151801 0.276695 0
M  V30 23 C -3.208883 -3.323850 0.500027 0
M  V30 24 N -4.377939 -3.327212 -0.162667 0
M  V30 25 C -5.298840 -4.300357 -0.106018 0
M  V30 26 N -6.533441 -4.299766 -0.807908 0
M  V30 27 C -6.935058 -3.241710 -1.665411 0
M  V30 28 C -6.269230 -2.080574 -1.977727 0
M  V30 29 N -7.054895 -1.389155 -2.835167 0
M  V30 30 N -8.161330 -2.075472 -3.055471 0
M  V30 31 C -9.171131 -1.557041 -3.937292 0
M  V30 32 N -8.088146 -3.187581 -2.352547 0
M  V30 33 N -4.970232 -5.328408 0.693791 0
M  V30 34 C -3.828076 -5.417823 1.396510 0
M  V30 35 C -2.905937 -4.396367 1.311767 0
M  V30 36 Cl -1.371857 -4.347071 2.153689 0
M  V30 37 C -1.761259 -1.523168 1.362556 0
M  V30 38 C -0.976982 -0.418015 1.108136 0
M  V30 39 C -0.171159 0.515247 1.909837 0
M  V30 40 O -0.120109 0.357358 3.166731 0
M  V30 41 C 4.841722 -0.012684 2.371955 0
M  V30 42 H 3.578177 -0.439475 6.150654 0
M  V30 43 H 4.361232 0.896485 5.207747 0
M  V30 44 H 2.961404 -0.002916 4.456672 0
M  V30 45 H 6.483093 -2.688987 3.647183 0
M  V30 46 H 6.563513 -0.891654 -0.284591 0
M  V30 47 H 5.108608 2.103354 0.734708 0
M  V30 48 H 4.726966 2.024285 -1.653269 0
M  V30 49 H 4.702102 0.264463 -1.697182 0
M  V30 50 H 6.818341 0.930450 -2.136087 0
M  V30 51 H 2.579627 0.377190 0.291714 0
M  V30 52 H 1.315460 2.397835 2.723118 0
M  V30 53 H -0.267485 3.888999 1.226257 0
M  V30 54 H 1.271522 4.310479 0.363551 0
M  V30 55 H 1.073299 4.578198 2.144678 0
M  V30 56 H -0.637426 2.090013 -0.610702 0
M  V30 57 H 0.820430 1.151826 -1.072116 0
M  V30 58 H -1.350028 -0.310689 -2.299715 0
M  V30 59 H -2.711820 -2.234621 -1.833666 0
M  V30 60 H -7.165985 -5.117987 -0.680676 0
M  V30 61 H -5.319483 -1.745235 -1.637715 0
M  V30 62 H -8.770452 -1.271634 -4.946155 0
M  V30 63 H -10.013281 -2.268795 -4.078955 0
M  V30 64 H -9.629345 -0.652940 -3.449519 0
M  V30 65 H -3.577252 -6.249572 2.034997 0
M  V30 66 H -1.875691 -1.860039 2.382887 0
M  V30 67 H 4.113743 0.688297 2.809779 0
M  V30 END ATOM
M  V30 BEGIN BOND
M  V30 1 1 1 2
M  V30 2 1 2 3
M  V30 3 2 3 4
M  V30 4 1 4 5
M  V30 5 1 5 6
M  V30 6 2 5 7
M  V30 7 1 7 8
M  V30 8 1 8 9
M  V30 9 1 9 10
M  V30 10 1 10 11
M  V30 11 1 9 12
M  V30 12 1 12 13
M  V30 13 2 13 14
M  V30 14 1 13 15
M  V30 15 1 15 16
M  V30 16 1 15 17
M  V30 17 1 17 18
M  V30 18 1 18 19
M  V30 19 2 19 20
M  V30 20 1 20 21
M  V30 21 2 21 22
M  V30 22 1 22 23
M  V30 23 2 23 24
M  V30 24 1 24 25
M  V30 25 1 25 26
M  V30 26 1 26 27
M  V30 27 1 27 28
M  V30 28 2 28 29
M  V30 29 1 29 30
M  V30 30 1 30 31
M  V30 31 1 30 32
M  V30 32 2 25 33
M  V30 33 1 33 34
M  V30 34 2 34 35
M  V30 35 1 35 36
M  V30 36 1 22 37
M  V30 37 2 37 38
M  V30 38 1 38 39
M  V30 39 2 39 40
M  V30 40 2 8 41
M  V30 41 1 41 3
M  V30 42 1 39 17
M  V30 43 1 38 19
M  V30 44 1 35 23
M  V30 45 2 32 27
M  V30 46 1 1 42
M  V30 47 1 1 43
M  V30 48 1 1 44
M  V30 49 1 4 45
M  V30 50 1 7 46
M  V30 51 1 9 47 CFG=1
M  V30 52 1 10 48
M  V30 53 1 10 49
M  V30 54 1 11 50
M  V30 55 1 12 51
M  V30 56 1 15 52 CFG=1
M  V30 57 1 16 53
M  V30 58 1 16 54
M  V30 59 1 16 55
M  V30 60 1 18 56
M  V30 61 1 18 57
M  V30 62 1 20 58
M  V30 63 1 21 59
M  V30 64 1 26 60
M  V30 65 1 28 61
M  V30 66 1 31 62
M  V30 67 1 31 63
M  V30 68 1 31 64
M  V30 69 1 34 65
M  V30 70 1 37 66
M  V30 71 1 41 67
M  V30 END BOND
M  V30 END CTAB
M  END
>  <Dataset>  (299) 
ChEMBL_Kinases

>  <Ligand_Instance>  (299) 
nan

>  <PDB_ID>  (299) 
nan

>  <Standardized_SMILES>  (299) 
COc1cc(F)cc([C@@H](CO)NC(=O)[C@@H](C)N2Cc3ccc(-c4nc(Nc5cnn(C)n5)ncc4Cl)cc3C2=O)c1

>  <Name>  (299) 
nan

>  <Pocket>  (299) 
nan

>  <ATP_Site>  (299) 
nan

>  <Peripheral>  (299) 
nan

>  <Num_H_Atoms_ProtBoundConf>  (299) 
nan

>  <Num_Resolved_Atoms>  (299) 
nan

>  <Num_Not_Resolved_Atoms>  (299) 
nan

$$$$
CHEMBL3702031
     RDKit          3D

  0  0  0  0  0  0  0  0  0  0999 V3000
M  V30 BEGIN CTAB
M  V30 COUNTS 67 72 0 0 0
M  V30 BEGIN ATOM
M  V30 1 C 4.819484 1.077031 3.639679 0
M  V30 2 N 3.796512 2.029403 3.938370 0
M  V30 3 C 3.074363 1.745228 5.138796 0
M  V30 4 C 4.278416 3.391382 3.837229 0
M  V30 5 C 3.170353 4.366297 4.157497 0
M  V30 6 C 2.063751 4.319045 3.129124 0
M  V30 7 N 2.483816 3.594334 1.939064 0
M  V30 8 C 1.781433 2.548029 1.288262 0
M  V30 9 C 0.519793 2.128184 1.637013 0
M  V30 10 C -0.040773 1.090886 0.920766 0
M  V30 11 C 0.549378 0.422227 -0.128231 0
M  V30 12 N -0.009512 -0.642723 -0.874275 0
M  V30 13 C -1.282754 -1.233085 -0.701694 0
M  V30 14 N -2.216197 -0.893860 0.194919 0
M  V30 15 C -3.416108 -1.466968 0.341580 0
M  V30 16 C -3.746626 -2.506272 -0.496515 0
M  V30 17 C -4.810598 -3.355400 -0.708414 0
M  V30 18 C -6.014343 -3.383558 -0.019625 0
M  V30 19 C -6.977482 -4.324695 -0.386056 0
M  V30 20 N -6.667605 -5.152918 -1.398014 0
M  V30 21 C -5.493357 -5.107393 -2.051907 0
M  V30 22 O -5.296353 -5.925500 -2.987398 0
M  V30 23 C -4.491944 -4.204934 -1.746734 0
M  V30 24 N -3.252630 -3.905953 -2.188328 0
M  V30 25 C -2.689562 -4.669345 -3.284319 0
M  V30 26 C -1.507763 -4.054320 -3.930242 0
M  V30 27 C -0.326029 -4.520090 -3.166043 0
M  V30 28 C -0.847879 -5.482166 -2.096430 0
M  V30 29 C -2.168041 -5.965504 -2.711932 0
M  V30 30 C -2.818580 -2.892266 -1.436273 0
M  V30 31 N -1.648344 -2.248193 -1.494577 0
M  V30 32 N 1.778497 0.882987 -0.415050 0
M  V30 33 C 2.378351 1.885862 0.241754 0
M  V30 34 C 3.743188 4.130082 1.534376 0
M  V30 35 C 4.813493 3.579344 2.458348 0
M  V30 36 H 4.646643 0.129318 4.228683 0
M  V30 37 H 4.734808 0.743902 2.569508 0
M  V30 38 H 5.854118 1.436959 3.773381 0
M  V30 39 H 3.609904 2.041537 6.057859 0
M  V30 40 H 2.026294 2.127350 5.089387 0
M  V30 41 H 2.968238 0.640624 5.200875 0
M  V30 42 H 5.094411 3.566511 4.565538 0
M  V30 43 H 2.750142 4.135938 5.133200 0
M  V30 44 H 3.566222 5.397286 4.180558 0
M  V30 45 H 1.738586 5.339006 2.910966 0
M  V30 46 H 1.196246 3.770201 3.548712 0
M  V30 47 H -0.006867 2.598977 2.442804 0
M  V30 48 H -1.029816 0.802829 1.236895 0
M  V30 49 H 0.593502 -1.027957 -1.634688 0
M  V30 50 H -4.138326 -1.157552 1.082257 0
M  V30 51 H -6.215659 -2.696340 0.787002 0
M  V30 52 H -7.922421 -4.378020 0.123226 0
M  V30 53 H -7.407054 -5.853485 -1.657709 0
M  V30 54 H -3.486342 -4.877689 -4.051136 0
M  V30 55 H -1.570576 -2.951523 -4.041487 0
M  V30 56 H -1.448172 -4.448566 -4.971051 0
M  V30 57 H 0.338330 -5.160289 -3.817214 0
M  V30 58 H 0.324396 -3.749244 -2.743409 0
M  V30 59 H -0.152380 -6.303465 -1.879927 0
M  V30 60 H -1.056734 -4.954932 -1.160495 0
M  V30 61 H -2.810380 -6.432795 -1.962629 0
M  V30 62 H -1.855759 -6.668650 -3.515750 0
M  V30 63 H 3.363113 2.095026 -0.149578 0
M  V30 64 H 4.075997 3.862180 0.512319 0
M  V30 65 H 3.806779 5.247412 1.560932 0
M  V30 66 H 5.249468 2.645098 2.046677 0
M  V30 67 H 5.645704 4.324956 2.464349 0
M  V30 END ATOM
M  V30 BEGIN BOND
M  V30 1 1 1 2
M  V30 2 1 2 3
M  V30 3 1 2 4
M  V30 4 1 4 5
M  V30 5 1 5 6
M  V30 6 1 6 7
M  V30 7 1 7 8
M  V30 8 2 8 9
M  V30 9 1 9 10
M  V30 10 2 10 11
M  V30 11 1 11 12
M  V30 12 1 12 13
M  V30 13 2 13 14
M  V30 14 1 14 15
M  V30 15 2 15 16
M  V30 16 1 16 17
M  V30 17 1 17 18
M  V30 18 2 18 19
M  V30 19 1 19 20
M  V30 20 1 20 21
M  V30 21 2 21 22
M  V30 22 1 21 23
M  V30 23 1 23 24
M  V30 24 1 24 25
M  V30 25 1 25 26
M  V30 26 1 26 27
M  V30 27 1 27 28
M  V30 28 1 28 29
M  V30 29 1 24 30
M  V30 30 2 30 31
M  V30 31 1 11 32
M  V30 32 2 32 33
M  V30 33 1 7 34
M  V30 34 1 34 35
M  V30 35 1 35 4
M  V30 36 1 33 8
M  V30 37 1 31 13
M  V30 38 1 30 16
M  V30 39 2 23 17
M  V30 40 1 29 25
M  V30 41 1 1 36
M  V30 42 1 1 37
M  V30 43 1 1 38
M  V30 44 1 3 39
M  V30 45 1 3 40
M  V30 46 1 3 41
M  V30 47 1 4 42
M  V30 48 1 5 43
M  V30 49 1 5 44
M  V30 50 1 6 45
M  V30 51 1 6 46
M  V30 52 1 9 47
M  V30 53 1 10 48
M  V30 54 1 12 49
M  V30 55 1 15 50
M  V30 56 1 18 51
M  V30 57 1 19 52
M  V30 58 1 20 53
M  V30 59 1 25 54
M  V30 60 1 26 55
M  V30 61 1 26 56
M  V30 62 1 27 57
M  V30 63 1 27 58
M  V30 64 1 28 59
M  V30 65 1 28 60
M  V30 66 1 29 61
M  V30 67 1 29 62
M  V30 68 1 33 63
M  V30 69 1 34 64
M  V30 70 1 34 65
M  V30 71 1 35 66
M  V30 72 1 35 67
M  V30 END BOND
M  V30 END CTAB
M  END
>  <Dataset>  (300) 
ChEMBL_Kinases

>  <Ligand_Instance>  (300) 
nan

>  <PDB_ID>  (300) 
nan

>  <Standardized_SMILES>  (300) 
CN(C)C1CCN(c2ccc(Nc3ncc4c5cc[nH]c(=O)c5n(C5CCCC5)c4n3)nc2)CC1

>  <Name>  (300) 
nan

>  <Pocket>  (300) 
nan

>  <ATP_Site>  (300) 
nan

>  <Peripheral>  (300) 
nan

>  <Num_H_Atoms_ProtBoundConf>  (300) 
nan

>  <Num_Resolved_Atoms>  (300) 
nan

>  <Num_Not_Resolved_Atoms>  (300) 
nan

$$$$
CHEMBL3967012
     RDKit          3D

  0  0  0  0  0  0  0  0  0  0999 V3000
M  V30 BEGIN CTAB
M  V30 COUNTS 56 60 0 0 0
M  V30 BEGIN ATOM
M  V30 1 F 2.367578 0.063506 2.684216 0
M  V30 2 C 3.669309 -0.043156 2.424255 0
M  V30 3 C 4.580571 -0.190818 3.418594 0
M  V30 4 Cl 3.996466 -0.236937 5.049678 0
M  V30 5 C 5.932476 -0.299506 3.115026 0
M  V30 6 C 6.295314 -0.251128 1.783784 0
M  V30 7 C 5.329589 -0.098757 0.796312 0
M  V30 8 C 3.954762 0.013389 1.079036 0
M  V30 9 O 3.296539 0.147772 -0.086040 0
M  V30 10 C 1.942092 0.285834 -0.251927 0 CFG=1
M  V30 11 C 1.549166 1.604296 -0.918404 0
M  V30 12 C 0.187084 1.488120 -1.518455 0
M  V30 13 C -0.741246 0.575889 -0.736389 0 CFG=2
M  V30 14 C -2.039284 0.536905 -1.502227 0
M  V30 15 C -3.063826 -0.314603 -0.860924 0
M  V30 16 C -4.010517 0.105297 0.040162 0
M  V30 17 C -4.955799 -0.727549 0.602420 0
M  V30 18 C -4.984703 -2.064777 0.265512 0
M  V30 19 C -4.023620 -2.459998 -0.641424 0
M  V30 20 N -3.940614 -3.822508 -1.078612 0
M  V30 21 C -3.056001 -4.435616 -0.147373 0
M  V30 22 C -1.680649 -4.465903 -0.372821 0
M  V30 23 C -1.032946 -5.116776 0.675175 0
M  V30 24 N -2.051141 -5.460089 1.505151 0
M  V30 25 N -3.219628 -5.061586 1.020859 0
M  V30 26 N -3.111256 -1.629117 -1.176566 0
M  V30 27 C -0.973595 1.070183 0.611898 0
M  V30 28 N -1.666480 0.532447 1.603227 0
M  V30 29 N -1.583284 1.358760 2.631121 0
M  V30 30 C -0.838320 2.427550 2.304011 0
M  V30 31 S -0.448994 3.717848 3.234807 0
M  V30 32 O -0.482682 2.221494 1.069372 0
M  V30 33 C -0.164876 -0.819639 -0.780295 0
M  V30 34 C 1.327900 -0.792161 -1.134048 0
M  V30 35 H 6.583760 -0.412502 3.946024 0
M  V30 36 H 7.352352 -0.342448 1.648549 0
M  V30 37 H 5.830874 -0.085878 -0.173303 0
M  V30 38 H 1.424027 0.275838 0.698448 0
M  V30 39 H 1.638780 2.453119 -0.222256 0
M  V30 40 H 2.291611 1.734207 -1.746479 0
M  V30 41 H 0.235671 1.119198 -2.563351 0
M  V30 42 H -0.311420 2.494737 -1.519888 0
M  V30 43 H -1.863545 0.119438 -2.515127 0
M  V30 44 H -2.439913 1.571493 -1.621372 0
M  V30 45 H -4.027338 1.137954 0.320767 0
M  V30 46 H -5.676306 -0.332727 1.308922 0
M  V30 47 H -5.702778 -2.756862 0.676601 0
M  V30 48 H -4.313869 -4.432422 -1.820696 0
M  V30 49 H -1.128998 -4.061344 -1.218724 0
M  V30 50 H 0.015367 -5.312728 0.816737 0
M  V30 51 H -1.910210 -5.967033 2.395507 0
M  V30 52 H -2.038029 1.176496 3.538681 0
M  V30 53 H -0.251216 -1.349444 0.167019 0
M  V30 54 H -0.635354 -1.424478 -1.564328 0
M  V30 55 H 1.737478 -1.795210 -0.949482 0
M  V30 56 H 1.453179 -0.473934 -2.188515 0
M  V30 END ATOM
M  V30 BEGIN BOND
M  V30 1 1 1 2
M  V30 2 2 2 3
M  V30 3 1 3 4
M  V30 4 1 3 5
M  V30 5 2 5 6
M  V30 6 1 6 7
M  V30 7 2 7 8
M  V30 8 1 8 9
M  V30 9 1 9 10
M  V30 10 1 10 11
M  V30 11 1 11 12
M  V30 12 1 12 13
M  V30 13 1 13 14 CFG=3
M  V30 14 1 14 15
M  V30 15 2 15 16
M  V30 16 1 16 17
M  V30 17 2 17 18
M  V30 18 1 18 19
M  V30 19 1 19 20
M  V30 20 1 20 21
M  V30 21 1 21 22
M  V30 22 2 22 23
M  V30 23 1 23 24
M  V30 24 1 24 25
M  V30 25 2 19 26
M  V30 26 1 13 27
M  V30 27 2 27 28
M  V30 28 1 28 29
M  V30 29 1 29 30
M  V30 30 2 30 31
M  V30 31 1 30 32
M  V30 32 1 13 33
M  V30 33 1 33 34
M  V30 34 1 8 2
M  V30 35 1 34 10
M  V30 36 1 26 15
M  V30 37 1 32 27
M  V30 38 2 25 21
M  V30 39 1 5 35
M  V30 40 1 6 36
M  V30 41 1 7 37
M  V30 42 1 10 38 CFG=1
M  V30 43 1 11 39
M  V30 44 1 11 40
M  V30 45 1 12 41
M  V30 46 1 12 42
M  V30 47 1 14 43
M  V30 48 1 14 44
M  V30 49 1 16 45
M  V30 50 1 17 46
M  V30 51 1 18 47
M  V30 52 1 20 48
M  V30 53 1 22 49
M  V30 54 1 23 50
M  V30 55 1 24 51
M  V30 56 1 29 52
M  V30 57 1 33 53
M  V30 58 1 33 54
M  V30 59 1 34 55
M  V30 60 1 34 56
M  V30 END BOND
M  V30 END CTAB
M  END
>  <Dataset>  (301) 
ChEMBL_Kinases

>  <Ligand_Instance>  (301) 
nan

>  <PDB_ID>  (301) 
nan

>  <Standardized_SMILES>  (301) 
Fc1c(Cl)cccc1O[C@H]1CC[C@](Cc2cccc(Nc3cc[nH]n3)n2)(c2n[nH]c(=S)o2)CC1

>  <Name>  (301) 
nan

>  <Pocket>  (301) 
nan

>  <ATP_Site>  (301) 
nan

>  <Peripheral>  (301) 
nan

>  <Num_H_Atoms_ProtBoundConf>  (301) 
nan

>  <Num_Resolved_Atoms>  (301) 
nan

>  <Num_Not_Resolved_Atoms>  (301) 
nan

$$$$
CHEMBL3966985
     RDKit          3D

  0  0  0  0  0  0  0  0  0  0999 V3000
M  V30 BEGIN CTAB
M  V30 COUNTS 39 42 0 0 0
M  V30 BEGIN ATOM
M  V30 1 C 0.126283 -4.769741 1.886858 0
M  V30 2 C 1.537011 -4.301537 1.976377 0
M  V30 3 N 2.628318 -4.936276 2.453971 0
M  V30 4 N 3.689675 -4.139834 2.342315 0
M  V30 5 C 3.332051 -2.964822 1.790635 0
M  V30 6 C 4.116075 -1.844681 1.493685 0
M  V30 7 C 3.507452 -0.747166 0.926429 0
M  V30 8 C 2.154964 -0.853969 0.697947 0
M  V30 9 C 1.413684 0.209932 0.102220 0
M  V30 10 O 1.680667 0.088489 -1.143433 0
M  V30 11 N 0.622920 1.283493 -0.198028 0
M  V30 12 C 0.316726 1.904856 -1.458481 0
M  V30 13 C 0.010460 3.179676 -0.679875 0
M  V30 14 C -0.242417 2.271087 0.452197 0 CFG=1
M  V30 15 C -1.640563 1.804798 0.573362 0
M  V30 16 C -1.691977 0.593265 1.216820 0
M  V30 17 C -2.844373 -0.156481 1.495120 0
M  V30 18 C -3.992550 0.498956 1.019980 0
M  V30 19 Cl -5.563838 -0.280668 1.269726 0
M  V30 20 C -4.027909 1.709355 0.368531 0
M  V30 21 C -2.829470 2.344561 0.157951 0
M  V30 22 C 1.376041 -1.979536 0.998258 0
M  V30 23 C 1.991271 -3.079091 1.567666 0
M  V30 24 H -0.554119 -3.904762 1.851060 0
M  V30 25 H -0.107563 -5.272083 2.859581 0
M  V30 26 H -0.063745 -5.393195 1.019319 0
M  V30 27 H 4.672154 -4.363523 2.630026 0
M  V30 28 H 5.178152 -1.806684 1.698781 0
M  V30 29 H 4.005492 0.163886 0.660455 0
M  V30 30 H -0.585228 1.491802 -1.963962 0
M  V30 31 H 1.164575 2.097749 -2.146462 0
M  V30 32 H -0.837709 3.678105 -1.157087 0
M  V30 33 H 0.879657 3.847644 -0.539859 0
M  V30 34 H 0.177967 2.605361 1.426684 0
M  V30 35 H -0.820826 0.037290 1.614556 0
M  V30 36 H -2.878822 -1.092123 1.995032 0
M  V30 37 H -4.932159 2.173949 0.024290 0
M  V30 38 H -2.691944 3.305111 -0.342345 0
M  V30 39 H 0.310581 -2.043997 0.805811 0
M  V30 END ATOM
M  V30 BEGIN BOND
M  V30 1 1 1 2
M  V30 2 2 2 3
M  V30 3 1 3 4
M  V30 4 1 4 5
M  V30 5 2 5 6
M  V30 6 1 6 7
M  V30 7 2 7 8
M  V30 8 1 8 9
M  V30 9 2 9 10
M  V30 10 1 9 11
M  V30 11 1 11 12
M  V30 12 1 12 13
M  V30 13 1 13 14
M  V30 14 1 14 15
M  V30 15 2 15 16
M  V30 16 1 16 17
M  V30 17 2 17 18
M  V30 18 1 18 19
M  V30 19 1 18 20
M  V30 20 2 20 21
M  V30 21 1 8 22
M  V30 22 2 22 23
M  V30 23 1 23 2
M  V30 24 1 23 5
M  V30 25 1 14 11
M  V30 26 1 21 15
M  V30 27 1 1 24
M  V30 28 1 1 25
M  V30 29 1 1 26
M  V30 30 1 4 27
M  V30 31 1 6 28
M  V30 32 1 7 29
M  V30 33 1 12 30
M  V30 34 1 12 31
M  V30 35 1 13 32
M  V30 36 1 13 33
M  V30 37 1 14 34 CFG=1
M  V30 38 1 16 35
M  V30 39 1 17 36
M  V30 40 1 20 37
M  V30 41 1 21 38
M  V30 42 1 22 39
M  V30 END BOND
M  V30 END CTAB
M  END
>  <Dataset>  (302) 
ChEMBL_Kinases

>  <Ligand_Instance>  (302) 
nan

>  <PDB_ID>  (302) 
nan

>  <Standardized_SMILES>  (302) 
Cc1n[nH]c2ccc(C(=O)N3CC[C@H]3c3ccc(Cl)cc3)cc12

>  <Name>  (302) 
nan

>  <Pocket>  (302) 
nan

>  <ATP_Site>  (302) 
nan

>  <Peripheral>  (302) 
nan

>  <Num_H_Atoms_ProtBoundConf>  (302) 
nan

>  <Num_Resolved_Atoms>  (302) 
nan

>  <Num_Not_Resolved_Atoms>  (302) 
nan

$$$$
CHEMBL3966978
     RDKit          3D

  0  0  0  0  0  0  0  0  0  0999 V3000
M  V30 BEGIN CTAB
M  V30 COUNTS 52 55 0 0 0
M  V30 BEGIN ATOM
M  V30 1 C 6.623082 -4.079895 -0.116938 0
M  V30 2 O 6.618131 -2.792877 -0.697974 0
M  V30 3 C 5.601450 -2.708169 -1.666727 0
M  V30 4 C 5.562610 -1.353261 -2.309242 0
M  V30 5 O 5.335324 -0.278093 -1.456646 0
M  V30 6 C 4.217820 -0.074745 -0.710963 0
M  V30 7 C 4.434778 1.116311 0.002957 0
M  V30 8 C 3.484917 1.649818 0.887306 0
M  V30 9 C 2.277310 0.965435 1.061006 0
M  V30 10 C 2.058291 -0.202557 0.363930 0
M  V30 11 C 3.012257 -0.697113 -0.495807 0
M  V30 12 C 0.754104 -0.784948 0.660901 0
M  V30 13 O 0.205416 -1.813565 0.238921 0
M  V30 14 N 0.204826 0.152531 1.611491 0
M  V30 15 C -1.091846 0.033636 2.227972 0
M  V30 16 C -1.205056 -0.655186 3.422412 0
M  V30 17 C -2.479650 -0.744729 3.982434 0
M  V30 18 C -3.541052 -0.152947 3.328503 0
M  V30 19 C -3.414602 0.531935 2.136434 0
M  V30 20 C -4.528351 1.161397 1.435971 0
M  V30 21 N -4.866622 2.448306 1.660444 0
M  V30 22 N -5.900371 2.667936 0.864810 0
M  V30 23 C -6.175848 1.547047 0.182177 0
M  V30 24 N -5.304791 0.576123 0.539019 0
M  V30 25 C -5.301894 -0.745120 0.014275 0
M  V30 26 C -6.364404 -1.608660 0.662061 0
M  V30 27 C -4.005781 -1.463802 0.037398 0
M  V30 28 N -2.148586 0.582679 1.644395 0
M  V30 29 C 1.082267 1.256774 1.908854 0
M  V30 30 H 7.416587 -4.153050 0.642271 0
M  V30 31 H 5.660149 -4.242519 0.420628 0
M  V30 32 H 6.793500 -4.851204 -0.880172 0
M  V30 33 H 5.903704 -3.450256 -2.471795 0
M  V30 34 H 4.652942 -3.096030 -1.289230 0
M  V30 35 H 4.687890 -1.400971 -3.032637 0
M  V30 36 H 6.493186 -1.225372 -2.911199 0
M  V30 37 H 5.300474 1.797162 0.011144 0
M  V30 38 H 3.576537 2.552819 1.467853 0
M  V30 39 H 2.926469 -1.583835 -1.083676 0
M  V30 40 H -0.340645 -1.098347 3.889770 0
M  V30 41 H -2.632620 -1.274676 4.922534 0
M  V30 42 H -4.565797 -0.195028 3.728464 0
M  V30 43 H -6.990645 1.563716 -0.507360 0
M  V30 44 H -5.609864 -0.675182 -1.069994 0
M  V30 45 H -6.194176 -2.652821 0.292418 0
M  V30 46 H -6.311444 -1.545631 1.770885 0
M  V30 47 H -7.379642 -1.339783 0.300424 0
M  V30 48 H -4.137307 -2.365690 -0.630832 0
M  V30 49 H -3.682306 -1.872699 0.997232 0
M  V30 50 H -3.253611 -0.851484 -0.498853 0
M  V30 51 H 1.333398 1.346304 2.977041 0
M  V30 52 H 0.573831 2.183768 1.519401 0
M  V30 END ATOM
M  V30 BEGIN BOND
M  V30 1 1 1 2
M  V30 2 1 2 3
M  V30 3 1 3 4
M  V30 4 1 4 5
M  V30 5 1 5 6
M  V30 6 2 6 7
M  V30 7 1 7 8
M  V30 8 2 8 9
M  V30 9 1 9 10
M  V30 10 2 10 11
M  V30 11 1 10 12
M  V30 12 2 12 13
M  V30 13 1 12 14
M  V30 14 1 14 15
M  V30 15 2 15 16
M  V30 16 1 16 17
M  V30 17 2 17 18
M  V30 18 1 18 19
M  V30 19 1 19 20
M  V30 20 2 20 21
M  V30 21 1 21 22
M  V30 22 2 22 23
M  V30 23 1 23 24
M  V30 24 1 24 25
M  V30 25 1 25 26
M  V30 26 1 25 27
M  V30 27 2 19 28
M  V30 28 1 14 29
M  V30 29 1 11 6
M  V30 30 1 28 15
M  V30 31 1 29 9
M  V30 32 1 24 20
M  V30 33 1 1 30
M  V30 34 1 1 31
M  V30 35 1 1 32
M  V30 36 1 3 33
M  V30 37 1 3 34
M  V30 38 1 4 35
M  V30 39 1 4 36
M  V30 40 1 7 37
M  V30 41 1 8 38
M  V30 42 1 11 39
M  V30 43 1 16 40
M  V30 44 1 17 41
M  V30 45 1 18 42
M  V30 46 1 23 43
M  V30 47 1 25 44
M  V30 48 1 26 45
M  V30 49 1 26 46
M  V30 50 1 26 47
M  V30 51 1 27 48
M  V30 52 1 27 49
M  V30 53 1 27 50
M  V30 54 1 29 51
M  V30 55 1 29 52
M  V30 END BOND
M  V30 END CTAB
M  END
>  <Dataset>  (303) 
ChEMBL_Kinases

>  <Ligand_Instance>  (303) 
nan

>  <PDB_ID>  (303) 
nan

>  <Standardized_SMILES>  (303) 
COCCOc1ccc2c(c1)C(=O)N(c1cccc(-c3nncn3C(C)C)n1)C2

>  <Name>  (303) 
nan

>  <Pocket>  (303) 
nan

>  <ATP_Site>  (303) 
nan

>  <Peripheral>  (303) 
nan

>  <Num_H_Atoms_ProtBoundConf>  (303) 
nan

>  <Num_Resolved_Atoms>  (303) 
nan

>  <Num_Not_Resolved_Atoms>  (303) 
nan

$$$$
CHEMBL3966934
     RDKit          3D

  0  0  0  0  0  0  0  0  0  0999 V3000
M  V30 BEGIN CTAB
M  V30 COUNTS 51 56 0 0 0
M  V30 BEGIN ATOM
M  V30 1 O 1.679127 -4.425526 0.089958 0
M  V30 2 C 2.127339 -3.242385 0.132786 0
M  V30 3 C 3.118440 -2.951507 1.156294 0
M  V30 4 C 3.773605 -3.661614 2.169909 0
M  V30 5 C 4.705125 -3.035673 2.970859 0
M  V30 6 C 5.023916 -1.704731 2.807858 0
M  V30 7 C 4.371835 -0.989377 1.796231 0
M  V30 8 C 3.435816 -1.620204 0.992654 0
M  V30 9 C 2.634370 -0.995688 -0.124310 0
M  V30 10 O 3.549959 -0.438464 -0.974882 0
M  V30 11 C 1.705305 0.018839 0.500650 0
M  V30 12 C 2.145993 1.270077 0.883925 0
M  V30 13 C 1.301781 2.201560 1.463754 0
M  V30 14 C -0.008565 1.852568 1.654984 0
M  V30 15 N -0.987207 2.593439 2.192372 0
M  V30 16 C -2.132343 1.846795 2.184228 0
M  V30 17 N -3.425173 2.208369 2.651919 0
M  V30 18 C -4.619480 1.476292 2.649527 0
M  V30 19 C -4.778055 0.199385 2.165490 0
M  V30 20 C -5.951779 -0.525241 2.160768 0
M  V30 21 C -7.037672 0.140306 2.704020 0
M  V30 22 Cl -8.595314 -0.673913 2.758468 0
M  V30 23 N -6.871347 1.387067 3.173626 0
M  V30 24 N -5.729068 2.034975 3.154831 0
M  V30 25 N -1.804586 0.664488 1.635647 0
M  V30 26 C -0.513742 0.623767 1.296518 0
M  V30 27 C 0.354121 -0.280370 0.721797 0
M  V30 28 N 1.860447 -2.076920 -0.639604 0
M  V30 29 C 0.958303 -2.050700 -1.735456 0
M  V30 30 C 0.215919 -3.098956 -2.172299 0
M  V30 31 C -0.659140 -3.083053 -3.237711 0
M  V30 32 C -0.818125 -1.909412 -3.946238 0
M  V30 33 C -0.089210 -0.808613 -3.549148 0
M  V30 34 Cl -0.334043 0.649471 -4.486289 0
M  V30 35 C 0.768457 -0.895242 -2.473672 0
M  V30 36 F 1.410236 0.260390 -2.214986 0
M  V30 37 H 3.526520 -4.697948 2.297814 0
M  V30 38 H 5.166220 -3.633025 3.722218 0
M  V30 39 H 5.771327 -1.259449 3.472731 0
M  V30 40 H 4.700263 0.036607 1.762190 0
M  V30 41 H 4.279491 -1.082523 -1.090068 0
M  V30 42 H 3.168137 1.558387 0.739909 0
M  V30 43 H 1.675600 3.193669 1.761741 0
M  V30 44 H -0.914354 3.583075 2.564562 0
M  V30 45 H -3.452580 3.191501 3.059540 0
M  V30 46 H -3.925477 -0.313355 1.742352 0
M  V30 47 H -6.031896 -1.524457 1.771090 0
M  V30 48 H -0.038918 -1.267349 0.430880 0
M  V30 49 H 0.270553 -4.053237 -1.686308 0
M  V30 50 H -1.232949 -3.942896 -3.553480 0
M  V30 51 H -1.499480 -1.875906 -4.784987 0
M  V30 END ATOM
M  V30 BEGIN BOND
M  V30 1 2 1 2
M  V30 2 1 2 3
M  V30 3 2 3 4
M  V30 4 1 4 5
M  V30 5 2 5 6
M  V30 6 1 6 7
M  V30 7 2 7 8
M  V30 8 1 8 9
M  V30 9 1 9 10
M  V30 10 1 9 11
M  V30 11 2 11 12
M  V30 12 1 12 13
M  V30 13 2 13 14
M  V30 14 1 14 15
M  V30 15 1 15 16
M  V30 16 1 16 17
M  V30 17 1 17 18
M  V30 18 2 18 19
M  V30 19 1 19 20
M  V30 20 2 20 21
M  V30 21 1 21 22
M  V30 22 1 21 23
M  V30 23 2 23 24
M  V30 24 2 16 25
M  V30 25 1 25 26
M  V30 26 2 26 27
M  V30 27 1 9 28
M  V30 28 1 28 29
M  V30 29 2 29 30
M  V30 30 1 30 31
M  V30 31 2 31 32
M  V30 32 1 32 33
M  V30 33 1 33 34
M  V30 34 2 33 35
M  V30 35 1 35 36
M  V30 36 1 28 2
M  V30 37 1 35 29
M  V30 38 1 8 3
M  V30 39 1 27 11
M  V30 40 1 26 14
M  V30 41 1 24 18
M  V30 42 1 4 37
M  V30 43 1 5 38
M  V30 44 1 6 39
M  V30 45 1 7 40
M  V30 46 1 10 41
M  V30 47 1 12 42
M  V30 48 1 13 43
M  V30 49 1 15 44
M  V30 50 1 17 45
M  V30 51 1 19 46
M  V30 52 1 20 47
M  V30 53 1 27 48
M  V30 54 1 30 49
M  V30 55 1 31 50
M  V30 56 1 32 51
M  V30 END BOND
M  V30 END CTAB
M  END
>  <Dataset>  (304) 
ChEMBL_Kinases

>  <Ligand_Instance>  (304) 
nan

>  <PDB_ID>  (304) 
nan

>  <Standardized_SMILES>  (304) 
O=C1c2ccccc2C(O)(c2ccc3[nH]c(Nc4ccc(Cl)nn4)nc3c2)N1c1cccc(Cl)c1F

>  <Name>  (304) 
nan

>  <Pocket>  (304) 
nan

>  <ATP_Site>  (304) 
nan

>  <Peripheral>  (304) 
nan

>  <Num_H_Atoms_ProtBoundConf>  (304) 
nan

>  <Num_Resolved_Atoms>  (304) 
nan

>  <Num_Not_Resolved_Atoms>  (304) 
nan

$$$$
CHEMBL3966844
     RDKit          3D

  0  0  0  0  0  0  0  0  0  0999 V3000
M  V30 BEGIN CTAB
M  V30 COUNTS 41 46 0 0 0
M  V30 BEGIN ATOM
M  V30 1 C 0.960011 -4.503532 1.733047 0
M  V30 2 C 0.988770 -3.245415 1.150169 0
M  V30 3 C 1.567110 -3.027980 -0.073174 0
M  V30 4 C 1.626503 -1.731377 -0.732129 0
M  V30 5 C 1.114726 -0.559088 -0.220738 0
M  V30 6 C 1.219845 0.615568 -0.918170 0
M  V30 7 C 1.837926 0.660706 -2.147217 0
M  V30 8 C 2.344276 -0.515348 -2.646408 0
M  V30 9 N 2.228320 -1.653350 -1.943096 0
M  V30 10 N 1.956252 1.809307 -2.859606 0
M  V30 11 C 1.463372 2.967005 -2.379108 0
M  V30 12 C 0.830790 2.965863 -1.140081 0
M  V30 13 N 0.258908 3.927895 -0.422996 0
M  V30 14 C -0.199039 3.356620 0.712731 0
M  V30 15 N 0.082859 2.040235 0.711727 0
M  V30 16 C -0.326418 1.276131 1.832916 0
M  V30 17 C 0.446717 1.062425 2.984769 0
M  V30 18 C -0.030956 0.316244 4.041915 0
M  V30 19 C -1.284775 -0.253598 4.019656 0
M  V30 20 N -2.006751 -1.012373 4.874203 0
M  V30 21 C -3.209369 -1.276981 4.284956 0
M  V30 22 N -3.261638 -0.701724 3.077566 0
M  V30 23 C -2.090188 -0.078752 2.915951 0
M  V30 24 C -1.592347 0.670673 1.871090 0
M  V30 25 C 0.723089 1.787402 -0.435998 0
M  V30 26 C 2.104732 -4.138469 -0.661004 0
M  V30 27 C 2.071060 -5.384658 -0.073497 0
M  V30 28 N 1.502901 -5.572432 1.117496 0
M  V30 29 H 0.507733 -4.695915 2.699088 0
M  V30 30 H 0.541669 -2.449339 1.692357 0
M  V30 31 H 0.649206 -0.670403 0.737291 0
M  V30 32 H 2.851174 -0.552217 -3.623441 0
M  V30 33 H 1.527686 3.914609 -2.901624 0
M  V30 34 H -0.701336 3.991134 1.430644 0
M  V30 35 H 1.418712 1.531700 2.946601 0
M  V30 36 H 0.598081 0.178179 4.906951 0
M  V30 37 H -3.975596 -1.883482 4.791522 0
M  V30 38 H -4.080566 -0.753661 2.418008 0
M  V30 39 H -2.208224 0.826465 0.982624 0
M  V30 40 H 2.588449 -4.089115 -1.628737 0
M  V30 41 H 2.509160 -6.245004 -0.571172 0
M  V30 END ATOM
M  V30 BEGIN BOND
M  V30 1 2 1 2
M  V30 2 1 2 3
M  V30 3 1 3 4
M  V30 4 2 4 5
M  V30 5 1 5 6
M  V30 6 2 6 7
M  V30 7 1 7 8
M  V30 8 2 8 9
M  V30 9 1 7 10
M  V30 10 2 10 11
M  V30 11 1 11 12
M  V30 12 1 12 13
M  V30 13 2 13 14
M  V30 14 1 14 15
M  V30 15 1 15 16
M  V30 16 2 16 17
M  V30 17 1 17 18
M  V30 18 2 18 19
M  V30 19 1 19 20
M  V30 20 2 20 21
M  V30 21 1 21 22
M  V30 22 1 22 23
M  V30 23 2 23 24
M  V30 24 1 15 25
M  V30 25 2 3 26
M  V30 26 1 26 27
M  V30 27 2 27 28
M  V30 28 1 28 1
M  V30 29 1 9 4
M  V30 30 2 25 12
M  V30 31 1 25 6
M  V30 32 1 24 16
M  V30 33 1 23 19
M  V30 34 1 1 29
M  V30 35 1 2 30
M  V30 36 1 5 31
M  V30 37 1 8 32
M  V30 38 1 11 33
M  V30 39 1 14 34
M  V30 40 1 17 35
M  V30 41 1 18 36
M  V30 42 1 21 37
M  V30 43 1 22 38
M  V30 44 1 24 39
M  V30 45 1 26 40
M  V30 46 1 27 41
M  V30 END BOND
M  V30 END CTAB
M  END
>  <Dataset>  (305) 
ChEMBL_Kinases

>  <Ligand_Instance>  (305) 
nan

>  <PDB_ID>  (305) 
nan

>  <Standardized_SMILES>  (305) 
c1cc(-c2cc3c(cn2)ncc2ncn(-c4ccc5nc[nH]c5c4)c23)ccn1

>  <Name>  (305) 
nan

>  <Pocket>  (305) 
nan

>  <ATP_Site>  (305) 
nan

>  <Peripheral>  (305) 
nan

>  <Num_H_Atoms_ProtBoundConf>  (305) 
nan

>  <Num_Resolved_Atoms>  (305) 
nan

>  <Num_Not_Resolved_Atoms>  (305) 
nan

$$$$
CHEMBL3966740
     RDKit          3D

  0  0  0  0  0  0  0  0  0  0999 V3000
M  V30 BEGIN CTAB
M  V30 COUNTS 56 59 0 0 0
M  V30 BEGIN ATOM
M  V30 1 O 3.640946 -1.011016 -1.571042 0
M  V30 2 C 2.719704 -1.488707 -0.879195 0
M  V30 3 O 3.231412 -2.616880 -0.169055 0
M  V30 4 C 1.267023 -1.448678 -0.413424 0 CFG=2
M  V30 5 C 1.311735 -1.237408 1.056204 0
M  V30 6 C 2.014087 -0.001523 1.460092 0
M  V30 7 C 2.096543 0.303548 2.804242 0
M  V30 8 C 2.736618 1.436772 3.241993 0
M  V30 9 C 3.314453 2.295645 2.312084 0
M  V30 10 C 3.198645 1.938184 0.987103 0
M  V30 11 N 3.799657 2.850592 0.049540 0
M  V30 12 C 2.754537 3.567991 -0.630098 0
M  V30 13 C 2.031819 4.574808 -0.011742 0
M  V30 14 C 1.122605 5.038868 -0.948165 0
M  V30 15 N 1.307957 4.333006 -2.068175 0
M  V30 16 N 2.277901 3.449905 -1.898877 0
M  V30 17 N 2.574514 0.831154 0.530888 0
M  V30 18 C 0.690003 -2.806762 -0.740410 0
M  V30 19 C -0.595596 -2.730343 -1.502518 0
M  V30 20 C -1.545832 -1.697843 -0.887309 0 CFG=1
M  V30 21 O -2.009878 -2.154719 0.365966 0
M  V30 22 C -3.162501 -2.867500 0.532756 0
M  V30 23 C -4.101012 -3.288887 -0.381701 0
M  V30 24 C -5.208402 -4.021203 0.051089 0
M  V30 25 C -5.332381 -4.304402 1.390448 0
M  V30 26 C -4.417879 -3.901605 2.335070 0
M  V30 27 C -4.655953 -4.276924 3.752081 0
M  V30 28 F -5.812422 -5.001805 3.905154 0
M  V30 29 F -4.696766 -3.142132 4.523077 0
M  V30 30 F -3.571153 -5.058723 4.173169 0
M  V30 31 C -3.311590 -3.164723 1.874862 0
M  V30 32 F -2.499145 -2.827060 2.914457 0
M  V30 33 C -0.916291 -0.351714 -0.841740 0
M  V30 34 C 0.548200 -0.422615 -1.201100 0
M  V30 35 H 4.235031 -2.859628 -0.209384 0
M  V30 36 H 0.314305 -1.208014 1.547387 0
M  V30 37 H 1.837846 -2.091609 1.521402 0
M  V30 38 H 1.679809 -0.300449 3.597794 0
M  V30 39 H 2.807434 1.692047 4.299399 0
M  V30 40 H 3.839975 3.212282 2.622329 0
M  V30 41 H 4.673492 3.224118 -0.354078 0
M  V30 42 H 2.090948 4.978254 0.976089 0
M  V30 43 H 0.400497 5.834783 -0.780894 0
M  V30 44 H 0.803390 4.406850 -2.992046 0
M  V30 45 H 0.565190 -3.353171 0.236258 0
M  V30 46 H 1.407460 -3.405004 -1.331370 0
M  V30 47 H -0.433000 -2.487140 -2.562048 0
M  V30 48 H -1.105675 -3.701708 -1.440039 0
M  V30 49 H -2.400779 -1.695884 -1.578685 0
M  V30 50 H -3.904146 -3.010755 -1.396241 0
M  V30 51 H -5.864157 -4.288898 -0.760665 0
M  V30 52 H -6.229585 -4.878365 1.570851 0
M  V30 53 H -1.112482 0.110348 0.132442 0
M  V30 54 H -1.364093 0.350807 -1.611654 0
M  V30 55 H 0.987245 0.594878 -1.196122 0
M  V30 56 H 0.593243 -0.726909 -2.283605 0
M  V30 END ATOM
M  V30 BEGIN BOND
M  V30 1 2 1 2
M  V30 2 1 2 3
M  V30 3 1 2 4
M  V30 4 1 4 5 CFG=1
M  V30 5 1 5 6
M  V30 6 2 6 7
M  V30 7 1 7 8
M  V30 8 2 8 9
M  V30 9 1 9 10
M  V30 10 1 10 11
M  V30 11 1 11 12
M  V30 12 1 12 13
M  V30 13 2 13 14
M  V30 14 1 14 15
M  V30 15 1 15 16
M  V30 16 2 10 17
M  V30 17 1 4 18
M  V30 18 1 18 19
M  V30 19 1 19 20
M  V30 20 1 20 21
M  V30 21 1 21 22
M  V30 22 2 22 23
M  V30 23 1 23 24
M  V30 24 2 24 25
M  V30 25 1 25 26
M  V30 26 1 26 27
M  V30 27 1 27 28
M  V30 28 1 27 29
M  V30 29 1 27 30
M  V30 30 2 26 31
M  V30 31 1 31 32
M  V30 32 1 20 33
M  V30 33 1 33 34
M  V30 34 1 34 4
M  V30 35 1 17 6
M  V30 36 1 31 22
M  V30 37 2 16 12
M  V30 38 1 3 35
M  V30 39 1 5 36
M  V30 40 1 5 37
M  V30 41 1 7 38
M  V30 42 1 8 39
M  V30 43 1 9 40
M  V30 44 1 11 41
M  V30 45 1 13 42
M  V30 46 1 14 43
M  V30 47 1 15 44
M  V30 48 1 18 45
M  V30 49 1 18 46
M  V30 50 1 19 47
M  V30 51 1 19 48
M  V30 52 1 20 49 CFG=3
M  V30 53 1 23 50
M  V30 54 1 24 51
M  V30 55 1 25 52
M  V30 56 1 33 53
M  V30 57 1 33 54
M  V30 58 1 34 55
M  V30 59 1 34 56
M  V30 END BOND
M  V30 END CTAB
M  END
>  <Dataset>  (306) 
ChEMBL_Kinases

>  <Ligand_Instance>  (306) 
nan

>  <PDB_ID>  (306) 
nan

>  <Standardized_SMILES>  (306) 
O=C(O)[C@]1(Cc2cccc(Nc3cc[nH]n3)n2)CC[C@@H](Oc2cccc(C(F)(F)F)c2F)CC1

>  <Name>  (306) 
nan

>  <Pocket>  (306) 
nan

>  <ATP_Site>  (306) 
nan

>  <Peripheral>  (306) 
nan

>  <Num_H_Atoms_ProtBoundConf>  (306) 
nan

>  <Num_Resolved_Atoms>  (306) 
nan

>  <Num_Not_Resolved_Atoms>  (306) 
nan

$$$$
CHEMBL3966726
     RDKit          3D

  0  0  0  0  0  0  0  0  0  0999 V3000
M  V30 BEGIN CTAB
M  V30 COUNTS 39 43 0 0 0
M  V30 BEGIN ATOM
M  V30 1 N 0.123852 -4.583866 2.121319 0
M  V30 2 C 0.489255 -3.490185 1.268842 0
M  V30 3 N 1.283740 -3.734883 0.204888 0
M  V30 4 C 1.635176 -2.714099 -0.606158 0
M  V30 5 C 1.218143 -1.405396 -0.403456 0
M  V30 6 C 1.600556 -0.304766 -1.282812 0
M  V30 7 C 1.719236 0.947435 -0.685262 0
M  V30 8 C 2.073031 2.086304 -1.381830 0
M  V30 9 C 2.328375 2.014892 -2.738348 0
M  V30 10 N 2.685525 2.916748 -3.677571 0
M  V30 11 C 2.791898 2.251740 -4.849165 0
M  V30 12 C 2.500946 0.912762 -4.661162 0
M  V30 13 C 2.206958 0.767607 -3.317651 0
M  V30 14 C 1.856687 -0.375475 -2.642587 0
M  V30 15 C 0.411367 -1.166743 0.679985 0
M  V30 16 C 0.049360 -2.206248 1.511834 0
M  V30 17 C -0.809563 -1.929568 2.659797 0
M  V30 18 N -1.261333 -2.807946 3.573735 0
M  V30 19 N -2.023703 -2.167011 4.472900 0
M  V30 20 C -2.032405 -0.883011 4.096486 0
M  V30 21 C -2.768310 0.182048 4.829220 0
M  V30 22 C -2.559754 0.071788 6.355344 0
M  V30 23 C -3.885853 -0.108091 5.716044 0
M  V30 24 O -1.300888 -0.770104 3.013339 0
M  V30 25 H 0.766481 -4.815912 2.909287 0
M  V30 26 H -0.793950 -4.987791 1.775590 0
M  V30 27 H 2.268014 -2.923471 -1.449495 0
M  V30 28 H 1.538594 1.103390 0.375156 0
M  V30 29 H 2.161576 3.054952 -0.902088 0
M  V30 30 H 2.836701 3.932337 -3.469485 0
M  V30 31 H 3.076662 2.810167 -5.750969 0
M  V30 32 H 2.521676 0.186826 -5.459364 0
M  V30 33 H 1.758627 -1.349274 -3.078121 0
M  V30 34 H 0.051839 -0.189743 0.900398 0
M  V30 35 H -2.660326 1.185795 4.372343 0
M  V30 36 H -2.231552 1.007662 6.821611 0
M  V30 37 H -2.075510 -0.814961 6.769644 0
M  V30 38 H -4.368178 -1.092810 5.797514 0
M  V30 39 H -4.595985 0.748098 5.876364 0
M  V30 END ATOM
M  V30 BEGIN BOND
M  V30 1 1 1 2
M  V30 2 2 2 3
M  V30 3 1 3 4
M  V30 4 2 4 5
M  V30 5 1 5 6
M  V30 6 2 6 7
M  V30 7 1 7 8
M  V30 8 2 8 9
M  V30 9 1 9 10
M  V30 10 1 10 11
M  V30 11 2 11 12
M  V30 12 1 12 13
M  V30 13 2 13 14
M  V30 14 1 5 15
M  V30 15 2 15 16
M  V30 16 1 16 17
M  V30 17 2 17 18
M  V30 18 1 18 19
M  V30 19 2 19 20
M  V30 20 1 20 21
M  V30 21 1 21 22
M  V30 22 1 22 23
M  V30 23 1 20 24
M  V30 24 1 16 2
M  V30 25 1 24 17
M  V30 26 1 14 6
M  V30 27 1 23 21
M  V30 28 1 13 9
M  V30 29 1 1 25
M  V30 30 1 1 26
M  V30 31 1 4 27
M  V30 32 1 7 28
M  V30 33 1 8 29
M  V30 34 1 10 30
M  V30 35 1 11 31
M  V30 36 1 12 32
M  V30 37 1 14 33
M  V30 38 1 15 34
M  V30 39 1 21 35
M  V30 40 1 22 36
M  V30 41 1 22 37
M  V30 42 1 23 38
M  V30 43 1 23 39
M  V30 END BOND
M  V30 END CTAB
M  END
>  <Dataset>  (307) 
ChEMBL_Kinases

>  <Ligand_Instance>  (307) 
nan

>  <PDB_ID>  (307) 
nan

>  <Standardized_SMILES>  (307) 
Nc1ncc(-c2ccc3[nH]ccc3c2)cc1-c1nnc(C2CC2)o1

>  <Name>  (307) 
nan

>  <Pocket>  (307) 
nan

>  <ATP_Site>  (307) 
nan

>  <Peripheral>  (307) 
nan

>  <Num_H_Atoms_ProtBoundConf>  (307) 
nan

>  <Num_Resolved_Atoms>  (307) 
nan

>  <Num_Not_Resolved_Atoms>  (307) 
nan

$$$$
CHEMBL3966673
     RDKit          3D

  0  0  0  0  0  0  0  0  0  0999 V3000
M  V30 BEGIN CTAB
M  V30 COUNTS 58 61 0 0 0
M  V30 BEGIN ATOM
M  V30 1 C 3.106088 4.027981 2.943165 0
M  V30 2 N 2.786892 3.063205 3.929452 0
M  V30 3 C 3.221864 1.748716 3.631993 0
M  V30 4 C 2.506898 1.009919 2.536040 0
M  V30 5 N 2.613506 1.624958 1.293237 0
M  V30 6 C 3.933454 1.551810 0.755979 0
M  V30 7 C 1.542389 1.727862 0.394534 0
M  V30 8 C 0.484197 2.693858 0.672108 0
M  V30 9 C -0.208781 3.007472 1.813834 0
M  V30 10 C -1.191156 3.960463 1.927560 0
M  V30 11 C -1.562445 4.703426 0.837689 0
M  V30 12 Cl -2.817730 5.900165 1.034496 0
M  V30 13 C -0.934377 4.480491 -0.380906 0
M  V30 14 C 0.040035 3.502514 -0.396901 0
M  V30 15 C 0.887677 0.418211 0.082890 0
M  V30 16 C 1.555324 -0.760337 -0.256021 0
M  V30 17 C 0.867135 -1.924471 -0.518480 0
M  V30 18 C -0.510074 -1.975113 -0.457634 0
M  V30 19 C -1.200149 -3.231030 -0.738910 0
M  V30 20 N -2.526670 -3.451190 -0.712574 0
M  V30 21 C -2.795400 -4.731374 -1.022574 0
M  V30 22 C -3.962230 -5.460505 -1.133735 0
M  V30 23 C -3.812913 -6.785551 -1.478586 0
M  V30 24 C -5.030702 -7.568191 -1.594044 0
M  V30 25 N -5.119213 -8.945390 -1.944886 0
M  V30 26 O -6.260011 -7.749137 -1.552954 0
M  V30 27 C -2.644314 -7.471576 -1.726299 0
M  V30 28 C -1.519921 -6.685485 -1.598410 0
M  V30 29 C -1.587752 -5.351335 -1.256034 0
M  V30 30 N -0.629771 -4.404603 -1.074161 0
M  V30 31 C -1.236165 -0.853439 -0.130229 0
M  V30 32 C -0.492585 0.279883 0.121300 0
M  V30 33 H 2.619920 5.008687 3.260854 0
M  V30 34 H 4.207928 4.195723 2.827095 0
M  V30 35 H 2.727920 3.869761 1.928071 0
M  V30 36 H 1.784599 3.074792 4.209680 0
M  V30 37 H 3.272939 1.128883 4.572242 0
M  V30 38 H 4.332624 1.851642 3.372606 0
M  V30 39 H 1.497175 0.744436 2.913861 0
M  V30 40 H 3.036921 -0.022076 2.544267 0
M  V30 41 H 4.334017 0.499043 0.864459 0
M  V30 42 H 4.014059 1.868034 -0.316405 0
M  V30 43 H 4.607000 2.232171 1.311251 0
M  V30 44 H 2.005276 2.019905 -0.606351 0
M  V30 45 H 0.042622 2.455972 2.696614 0
M  V30 46 H -1.666242 4.115720 2.889375 0
M  V30 47 H -1.210961 5.049473 -1.237790 0
M  V30 48 H 0.485633 3.383282 -1.381490 0
M  V30 49 H 2.633989 -0.702712 -0.301219 0
M  V30 50 H 1.456640 -2.817797 -0.779815 0
M  V30 51 H -4.934729 -5.025214 -0.962766 0
M  V30 52 H -4.442185 -9.694278 -2.137394 0
M  V30 53 H -4.404304 -9.687853 -2.135797 0
M  V30 54 H -2.648474 -8.519661 -1.991920 0
M  V30 55 H -0.540872 -7.147473 -1.777605 0
M  V30 56 H 0.386900 -4.619822 -1.192296 0
M  V30 57 H -2.308161 -0.828135 -0.065073 0
M  V30 58 H -1.048724 1.177437 0.381873 0
M  V30 END ATOM
M  V30 BEGIN BOND
M  V30 1 1 1 2
M  V30 2 1 2 3
M  V30 3 1 3 4
M  V30 4 1 4 5
M  V30 5 1 5 6
M  V30 6 1 5 7
M  V30 7 1 7 8
M  V30 8 2 8 9
M  V30 9 1 9 10
M  V30 10 2 10 11
M  V30 11 1 11 12
M  V30 12 1 11 13
M  V30 13 2 13 14
M  V30 14 1 7 15
M  V30 15 2 15 16
M  V30 16 1 16 17
M  V30 17 2 17 18
M  V30 18 1 18 19
M  V30 19 2 19 20
M  V30 20 1 20 21
M  V30 21 2 21 22
M  V30 22 1 22 23
M  V30 23 1 23 24
M  V30 24 1 24 25
M  V30 25 2 24 26
M  V30 26 2 23 27
M  V30 27 1 27 28
M  V30 28 2 28 29
M  V30 29 1 29 30
M  V30 30 1 18 31
M  V30 31 2 31 32
M  V30 32 1 14 8
M  V30 33 1 32 15
M  V30 34 1 30 19
M  V30 35 1 29 21
M  V30 36 1 1 33
M  V30 37 1 1 34
M  V30 38 1 1 35
M  V30 39 1 2 36
M  V30 40 1 3 37
M  V30 41 1 3 38
M  V30 42 1 4 39
M  V30 43 1 4 40
M  V30 44 1 6 41
M  V30 45 1 6 42
M  V30 46 1 6 43
M  V30 47 1 7 44
M  V30 48 1 9 45
M  V30 49 1 10 46
M  V30 50 1 13 47
M  V30 51 1 14 48
M  V30 52 1 16 49
M  V30 53 1 17 50
M  V30 54 1 22 51
M  V30 55 1 25 52
M  V30 56 1 25 53
M  V30 57 1 27 54
M  V30 58 1 28 55
M  V30 59 1 30 56
M  V30 60 1 31 57
M  V30 61 1 32 58
M  V30 END BOND
M  V30 END CTAB
M  END
>  <Dataset>  (308) 
ChEMBL_Kinases

>  <Ligand_Instance>  (308) 
nan

>  <PDB_ID>  (308) 
nan

>  <Standardized_SMILES>  (308) 
CNCCN(C)C(c1ccc(Cl)cc1)c1ccc(-c2nc3cc(C(N)=O)ccc3[nH]2)cc1

>  <Name>  (308) 
nan

>  <Pocket>  (308) 
nan

>  <ATP_Site>  (308) 
nan

>  <Peripheral>  (308) 
nan

>  <Num_H_Atoms_ProtBoundConf>  (308) 
nan

>  <Num_Resolved_Atoms>  (308) 
nan

>  <Num_Not_Resolved_Atoms>  (308) 
nan

$$$$
CHEMBL3966378
     RDKit          3D

  0  0  0  0  0  0  0  0  0  0999 V3000
M  V30 BEGIN CTAB
M  V30 COUNTS 49 53 0 0 0
M  V30 BEGIN ATOM
M  V30 1 C 3.573709 -6.553900 4.940379 0
M  V30 2 O 4.138390 -5.805579 3.876220 0
M  V30 3 C 3.446108 -4.809833 3.207397 0
M  V30 4 O 2.299186 -4.742222 3.731931 0
M  V30 5 N 3.949718 -4.023609 2.134652 0
M  V30 6 C 2.975664 -3.086861 1.668102 0
M  V30 7 N 2.712946 -1.811718 2.052495 0
M  V30 8 C 1.694775 -1.315681 1.322631 0
M  V30 9 C 1.001250 -0.124004 1.252138 0
M  V30 10 C -0.035866 0.114356 0.375639 0
M  V30 11 C -0.740921 1.446998 0.358747 0
M  V30 12 O -1.063619 1.848362 1.659909 0
M  V30 13 C 0.103227 2.473225 -0.285478 0
M  V30 14 C 1.331070 2.996765 0.030907 0
M  V30 15 C 1.961521 3.959651 -0.728682 0
M  V30 16 C 1.350871 4.445721 -1.877802 0
M  V30 17 C 0.103414 3.901478 -2.182483 0
M  V30 18 C -0.524906 2.937233 -1.418677 0
M  V30 19 C -1.800444 2.239260 -1.518529 0
M  V30 20 O -2.582939 2.465061 -2.460031 0
M  V30 21 N -1.928676 1.346738 -0.421546 0
M  V30 22 C -3.026224 0.501796 -0.130998 0
M  V30 23 C -4.165048 0.403638 -0.900277 0
M  V30 24 C -5.245674 -0.408879 -0.633697 0
M  V30 25 C -5.184162 -1.192988 0.501501 0
M  V30 26 Br -6.648952 -2.348790 0.938830 0
M  V30 27 C -4.083409 -1.158364 1.328682 0
M  V30 28 C -3.036346 -0.310617 0.986592 0
M  V30 29 C -0.379660 -0.933960 -0.478274 0
M  V30 30 C 0.292872 -2.136692 -0.433391 0
M  V30 31 C 1.329911 -2.340065 0.460749 0
M  V30 32 N 2.108160 -3.421631 0.668003 0
M  V30 33 H 2.859404 -5.888855 5.509041 0
M  V30 34 H 4.375462 -6.816717 5.641624 0
M  V30 35 H 2.996158 -7.432765 4.612719 0
M  V30 36 H 4.930822 -4.230882 1.841088 0
M  V30 37 H 1.341439 0.630752 1.956456 0
M  V30 38 H -0.273907 2.088581 2.191561 0
M  V30 39 H 1.909434 2.704780 0.896189 0
M  V30 40 H 2.924637 4.404580 -0.525517 0
M  V30 41 H 1.790567 5.187266 -2.500484 0
M  V30 42 H -0.394451 4.274311 -3.088659 0
M  V30 43 H -4.254222 0.998472 -1.795355 0
M  V30 44 H -6.116492 -0.447162 -1.273622 0
M  V30 45 H -4.053818 -1.780890 2.214338 0
M  V30 46 H -2.204194 -0.337007 1.686798 0
M  V30 47 H -1.187343 -0.787500 -1.183403 0
M  V30 48 H -0.022656 -2.901880 -1.118683 0
M  V30 49 H 2.046118 -4.327426 0.155865 0
M  V30 END ATOM
M  V30 BEGIN BOND
M  V30 1 1 1 2
M  V30 2 1 2 3
M  V30 3 2 3 4
M  V30 4 1 3 5
M  V30 5 1 5 6
M  V30 6 2 6 7
M  V30 7 1 7 8
M  V30 8 2 8 9
M  V30 9 1 9 10
M  V30 10 1 10 11
M  V30 11 1 11 12
M  V30 12 1 11 13
M  V30 13 2 13 14
M  V30 14 1 14 15
M  V30 15 2 15 16
M  V30 16 1 16 17
M  V30 17 2 17 18
M  V30 18 1 18 19
M  V30 19 2 19 20
M  V30 20 1 19 21
M  V30 21 1 21 22
M  V30 22 2 22 23
M  V30 23 1 23 24
M  V30 24 2 24 25
M  V30 25 1 25 26
M  V30 26 1 25 27
M  V30 27 2 27 28
M  V30 28 2 10 29
M  V30 29 1 29 30
M  V30 30 2 30 31
M  V30 31 1 31 32
M  V30 32 1 32 6
M  V30 33 1 31 8
M  V30 34 1 21 11
M  V30 35 1 28 22
M  V30 36 1 18 13
M  V30 37 1 1 33
M  V30 38 1 1 34
M  V30 39 1 1 35
M  V30 40 1 5 36
M  V30 41 1 9 37
M  V30 42 1 12 38
M  V30 43 1 14 39
M  V30 44 1 15 40
M  V30 45 1 16 41
M  V30 46 1 17 42
M  V30 47 1 23 43
M  V30 48 1 24 44
M  V30 49 1 27 45
M  V30 50 1 28 46
M  V30 51 1 29 47
M  V30 52 1 30 48
M  V30 53 1 32 49
M  V30 END BOND
M  V30 END CTAB
M  END
>  <Dataset>  (309) 
ChEMBL_Kinases

>  <Ligand_Instance>  (309) 
nan

>  <PDB_ID>  (309) 
nan

>  <Standardized_SMILES>  (309) 
COC(=O)Nc1nc2cc(C3(O)c4ccccc4C(=O)N3c3ccc(Br)cc3)ccc2[nH]1

>  <Name>  (309) 
nan

>  <Pocket>  (309) 
nan

>  <ATP_Site>  (309) 
nan

>  <Peripheral>  (309) 
nan

>  <Num_H_Atoms_ProtBoundConf>  (309) 
nan

>  <Num_Resolved_Atoms>  (309) 
nan

>  <Num_Not_Resolved_Atoms>  (309) 
nan

$$$$
CHEMBL3966317
     RDKit          3D

  0  0  0  0  0  0  0  0  0  0999 V3000
M  V30 BEGIN CTAB
M  V30 COUNTS 30 33 0 0 0
M  V30 BEGIN ATOM
M  V30 1 O -0.280523 1.987465 2.452622 0
M  V30 2 C 0.559763 1.546631 1.638669 0
M  V30 3 N 1.591710 2.244658 1.102038 0
M  V30 4 C 2.322711 1.481781 0.252232 0
M  V30 5 C 3.440072 1.777676 -0.500600 0
M  V30 6 O 4.043531 3.027867 -0.499883 0
M  V30 7 C 3.919413 0.732303 -1.261467 0
M  V30 8 C 3.379533 -0.535074 -1.317732 0
M  V30 9 C 2.247891 -0.763655 -0.528718 0
M  V30 10 C 1.718897 0.229885 0.251155 0
M  V30 11 N 0.671690 0.320474 1.094161 0
M  V30 12 C -0.248858 -0.718688 1.417298 0
M  V30 13 N -0.339427 -1.615067 2.428650 0
M  V30 14 C -1.422013 -2.385299 2.251329 0
M  V30 15 C -1.988813 -3.431157 2.951126 0
M  V30 16 C -3.157883 -4.079511 2.533412 0
M  V30 17 C -3.736067 -3.621860 1.366796 0
M  V30 18 C -3.220500 -2.581288 0.620168 0
M  V30 19 C -2.065696 -1.982198 1.083791 0
M  V30 20 N -1.308814 -0.954810 0.604730 0
M  V30 21 H 1.804432 3.229606 1.305589 0
M  V30 22 H 3.867252 3.674031 0.257910 0
M  V30 23 H 4.809689 0.912096 -1.882209 0
M  V30 24 H 3.799139 -1.310099 -1.931461 0
M  V30 25 H 1.776802 -1.739558 -0.529266 0
M  V30 26 H -1.494376 -3.741377 3.848664 0
M  V30 27 H -3.546171 -4.892725 3.132132 0
M  V30 28 H -4.649751 -4.116692 1.025660 0
M  V30 29 H -3.710095 -2.250035 -0.298283 0
M  V30 30 H -1.580664 -0.462518 -0.285609 0
M  V30 END ATOM
M  V30 BEGIN BOND
M  V30 1 2 1 2
M  V30 2 1 2 3
M  V30 3 1 3 4
M  V30 4 2 4 5
M  V30 5 1 5 6
M  V30 6 1 5 7
M  V30 7 2 7 8
M  V30 8 1 8 9
M  V30 9 2 9 10
M  V30 10 1 10 11
M  V30 11 1 11 12
M  V30 12 2 12 13
M  V30 13 1 13 14
M  V30 14 2 14 15
M  V30 15 1 15 16
M  V30 16 2 16 17
M  V30 17 1 17 18
M  V30 18 2 18 19
M  V30 19 1 19 20
M  V30 20 1 11 2
M  V30 21 1 20 12
M  V30 22 1 10 4
M  V30 23 1 19 14
M  V30 24 1 3 21
M  V30 25 1 6 22
M  V30 26 1 7 23
M  V30 27 1 8 24
M  V30 28 1 9 25
M  V30 29 1 15 26
M  V30 30 1 16 27
M  V30 31 1 17 28
M  V30 32 1 18 29
M  V30 33 1 20 30
M  V30 END BOND
M  V30 END CTAB
M  END
>  <Dataset>  (310) 
ChEMBL_Kinases

>  <Ligand_Instance>  (310) 
nan

>  <PDB_ID>  (310) 
nan

>  <Standardized_SMILES>  (310) 
O=c1[nH]c2c(O)cccc2n1-c1nc2ccccc2[nH]1

>  <Name>  (310) 
nan

>  <Pocket>  (310) 
nan

>  <ATP_Site>  (310) 
nan

>  <Peripheral>  (310) 
nan

>  <Num_H_Atoms_ProtBoundConf>  (310) 
nan

>  <Num_Resolved_Atoms>  (310) 
nan

>  <Num_Not_Resolved_Atoms>  (310) 
nan

$$$$
CHEMBL3966303
     RDKit          3D

  0  0  0  0  0  0  0  0  0  0999 V3000
M  V30 BEGIN CTAB
M  V30 COUNTS 46 48 0 0 0
M  V30 BEGIN ATOM
M  V30 1 C -1.512093 -3.750815 2.399971 0
M  V30 2 C -0.906445 -3.630486 1.050496 0
M  V30 3 C 0.033111 -2.722873 0.597659 0
M  V30 4 C 0.338136 -2.946857 -0.728756 0
M  V30 5 N 1.224703 -2.263895 -1.565173 0
M  V30 6 C 1.977156 -1.127392 -1.193230 0
M  V30 7 C 2.883102 -0.571090 -2.105849 0
M  V30 8 C 3.655128 0.535171 -1.834914 0
M  V30 9 C 4.606505 1.099193 -2.825717 0
M  V30 10 C 3.512327 1.109452 -0.593317 0
M  V30 11 C 4.274827 2.268853 -0.214020 0
M  V30 12 N 4.889336 3.211189 0.078596 0
M  V30 13 C 2.624247 0.580353 0.327515 0
M  V30 14 N 2.492143 1.190485 1.627244 0
M  V30 15 C 1.562468 0.670601 2.614463 0
M  V30 16 C 0.126689 0.798467 2.120188 0
M  V30 17 O -0.814957 0.304408 3.041258 0
M  V30 18 C -2.182339 0.343856 2.746366 0
M  V30 19 C -2.633053 0.864830 1.552174 0
M  V30 20 C -3.959296 0.931226 1.205114 0
M  V30 21 C -4.851727 0.433327 2.143174 0
M  V30 22 C -4.458535 -0.102921 3.361475 0
M  V30 23 C -3.097568 -0.139978 3.650589 0
M  V30 24 N 1.890368 -0.514366 -0.001341 0
M  V30 25 N -0.434654 -3.995384 -1.042760 0
M  V30 26 N -1.154519 -4.388861 -0.008961 0
M  V30 27 H -0.710902 -3.749308 3.194537 0
M  V30 28 H -2.085899 -4.695857 2.449265 0
M  V30 29 H -2.195611 -2.923935 2.612678 0
M  V30 30 H 0.448529 -1.955562 1.241775 0
M  V30 31 H 1.343996 -2.624915 -2.558341 0
M  V30 32 H 2.985505 -1.037279 -3.087637 0
M  V30 33 H 4.795009 2.181341 -2.647310 0
M  V30 34 H 4.162355 1.061681 -3.848876 0
M  V30 35 H 5.531615 0.492331 -2.860583 0
M  V30 36 H 3.086048 2.017822 1.836266 0
M  V30 37 H 1.676925 1.269142 3.537678 0
M  V30 38 H 1.787205 -0.374499 2.897698 0
M  V30 39 H -0.010475 0.370069 1.124368 0
M  V30 40 H -0.110431 1.899546 2.008379 0
M  V30 41 H -1.863373 1.226012 0.889931 0
M  V30 42 H -4.291323 1.347031 0.255160 0
M  V30 43 H -5.901631 0.482498 1.874229 0
M  V30 44 H -5.196989 -0.467266 4.036287 0
M  V30 45 H -2.830693 -0.558834 4.594991 0
M  V30 46 H -1.816623 -5.192980 -0.064836 0
M  V30 END ATOM
M  V30 BEGIN BOND
M  V30 1 1 1 2
M  V30 2 2 2 3
M  V30 3 1 3 4
M  V30 4 1 4 5
M  V30 5 1 5 6
M  V30 6 2 6 7
M  V30 7 1 7 8
M  V30 8 1 8 9
M  V30 9 2 8 10
M  V30 10 1 10 11
M  V30 11 3 11 12
M  V30 12 1 10 13
M  V30 13 1 13 14
M  V30 14 1 14 15
M  V30 15 1 15 16
M  V30 16 1 16 17
M  V30 17 1 17 18
M  V30 18 2 18 19
M  V30 19 1 19 20
M  V30 20 2 20 21
M  V30 21 1 21 22
M  V30 22 2 22 23
M  V30 23 2 13 24
M  V30 24 2 4 25
M  V30 25 1 25 26
M  V30 26 1 26 2
M  V30 27 1 24 6
M  V30 28 1 23 18
M  V30 29 1 1 27
M  V30 30 1 1 28
M  V30 31 1 1 29
M  V30 32 1 3 30
M  V30 33 1 5 31
M  V30 34 1 7 32
M  V30 35 1 9 33
M  V30 36 1 9 34
M  V30 37 1 9 35
M  V30 38 1 14 36
M  V30 39 1 15 37
M  V30 40 1 15 38
M  V30 41 1 16 39
M  V30 42 1 16 40
M  V30 43 1 19 41
M  V30 44 1 20 42
M  V30 45 1 21 43
M  V30 46 1 22 44
M  V30 47 1 23 45
M  V30 48 1 26 46
M  V30 END BOND
M  V30 END CTAB
M  END
>  <Dataset>  (311) 
ChEMBL_Kinases

>  <Ligand_Instance>  (311) 
nan

>  <PDB_ID>  (311) 
nan

>  <Standardized_SMILES>  (311) 
Cc1cc(Nc2cc(C)c(C#N)c(NCCOc3ccccc3)n2)n[nH]1

>  <Name>  (311) 
nan

>  <Pocket>  (311) 
nan

>  <ATP_Site>  (311) 
nan

>  <Peripheral>  (311) 
nan

>  <Num_H_Atoms_ProtBoundConf>  (311) 
nan

>  <Num_Resolved_Atoms>  (311) 
nan

>  <Num_Not_Resolved_Atoms>  (311) 
nan

$$$$
CHEMBL3965116
     RDKit          3D

  0  0  0  0  0  0  0  0  0  0999 V3000
M  V30 BEGIN CTAB
M  V30 COUNTS 70 74 0 0 0
M  V30 BEGIN ATOM
M  V30 1 C 5.703958 -1.491389 6.492059 0
M  V30 2 C 5.052370 -1.619204 5.166953 0
M  V30 3 N 4.776174 -1.026722 4.150013 0
M  V30 4 C 4.132726 -1.543454 3.136162 0
M  V30 5 C 3.813726 -0.820858 1.911766 0
M  V30 6 O 3.125794 -1.297159 0.966343 0
M  V30 7 N 4.232862 0.503999 1.622159 0
M  V30 8 C 3.665484 0.755158 0.315571 0
M  V30 9 N 4.163589 0.487117 -0.913401 0
M  V30 10 N 3.301759 0.887251 -1.834550 0
M  V30 11 C 2.200238 1.434824 -1.248042 0
M  V30 12 C 2.427983 1.353683 0.110277 0
M  V30 13 C 1.220276 1.971327 0.731365 0
M  V30 14 N 0.182462 1.739734 -0.243720 0
M  V30 15 C -1.162920 1.336830 -0.102053 0
M  V30 16 O -0.580583 1.488379 0.989562 0
M  V30 17 N -2.489653 0.940296 -0.003371 0
M  V30 18 C -3.314837 0.659436 -1.180401 0
M  V30 19 C -4.077773 -0.632657 -0.944647 0
M  V30 20 N -3.611947 -1.303131 0.184279 0
M  V30 21 C -3.129116 -2.596195 0.214688 0
M  V30 22 C -1.828439 -2.950100 -0.417116 0
M  V30 23 C -1.531447 -4.461459 -0.196552 0
M  V30 24 C -2.125245 -5.291241 -1.310132 0
M  V30 25 O -3.125887 -4.597346 -2.001841 0
M  V30 26 C -2.538370 -3.562715 -2.736395 0
M  V30 27 C -1.688330 -2.670593 -1.876744 0
M  V30 28 C -3.716015 -0.595734 1.422529 0
M  V30 29 C -3.177854 0.789493 1.280648 0 CFG=2
M  V30 30 C -4.279461 1.819587 1.404465 0
M  V30 31 C 0.876701 2.064361 -1.467510 0
M  V30 32 C 0.134432 1.435541 -2.619548 0
M  V30 33 C 1.050785 3.540028 -1.668942 0
M  V30 34 C 3.711804 -2.944357 3.234611 0
M  V30 35 S 4.347961 -3.336702 4.883209 0
M  V30 36 H 4.994385 -1.799091 7.317218 0
M  V30 37 H 6.559446 -2.181137 6.520773 0
M  V30 38 H 5.941352 -0.427645 6.635216 0
M  V30 39 H 4.812786 1.003941 2.327014 0
M  V30 40 H 3.416109 0.808436 -2.876501 0
M  V30 41 H 1.344645 3.091197 0.804123 0
M  V30 42 H 1.042985 1.607525 1.739057 0
M  V30 43 H -4.013683 1.500485 -1.318730 0
M  V30 44 H -2.698012 0.613572 -2.105878 0
M  V30 45 H -5.164238 -0.307185 -0.759184 0
M  V30 46 H -4.143382 -1.253275 -1.844533 0
M  V30 47 H -3.898990 -3.318833 -0.188837 0
M  V30 48 H -3.062469 -2.915862 1.308826 0
M  V30 49 H -1.014638 -2.430691 0.123130 0
M  V30 50 H -0.439056 -4.640146 -0.183927 0
M  V30 51 H -1.916993 -4.781085 0.789962 0
M  V30 52 H -1.326691 -5.519654 -2.053758 0
M  V30 53 H -2.567657 -6.229061 -0.907954 0
M  V30 54 H -1.931286 -3.983540 -3.591366 0
M  V30 55 H -3.344595 -2.990249 -3.223902 0
M  V30 56 H -0.588609 -2.848624 -2.126081 0
M  V30 57 H -1.850485 -1.622980 -2.108087 0
M  V30 58 H -4.753658 -0.646781 1.818023 0
M  V30 59 H -3.063109 -1.130692 2.171637 0
M  V30 60 H -2.437850 1.030810 2.060221 0
M  V30 61 H -5.214256 1.505687 0.914776 0
M  V30 62 H -4.506836 1.911944 2.499679 0
M  V30 63 H -3.922591 2.811872 1.055770 0
M  V30 64 H 0.897505 1.332577 -3.436691 0
M  V30 65 H -0.173313 0.395362 -2.391753 0
M  V30 66 H -0.705817 2.048988 -2.972874 0
M  V30 67 H 0.381396 3.830368 -2.531354 0
M  V30 68 H 2.061838 3.844627 -1.956054 0
M  V30 69 H 0.653059 4.095239 -0.814038 0
M  V30 70 H 3.171271 -3.506451 2.472889 0
M  V30 END ATOM
M  V30 BEGIN BOND
M  V30 1 1 1 2
M  V30 2 2 2 3
M  V30 3 1 3 4
M  V30 4 1 4 5
M  V30 5 2 5 6
M  V30 6 1 5 7
M  V30 7 1 7 8
M  V30 8 2 8 9
M  V30 9 1 9 10
M  V30 10 1 10 11
M  V30 11 2 11 12
M  V30 12 1 12 13
M  V30 13 1 13 14
M  V30 14 1 14 15
M  V30 15 2 15 16
M  V30 16 1 15 17
M  V30 17 1 17 18
M  V30 18 1 18 19
M  V30 19 1 19 20
M  V30 20 1 20 21
M  V30 21 1 21 22
M  V30 22 1 22 23
M  V30 23 1 23 24
M  V30 24 1 24 25
M  V30 25 1 25 26
M  V30 26 1 26 27
M  V30 27 1 20 28
M  V30 28 1 28 29
M  V30 29 1 29 30
M  V30 30 1 14 31
M  V30 31 1 31 32
M  V30 32 1 31 33
M  V30 33 2 4 34
M  V30 34 1 34 35
M  V30 35 1 35 2
M  V30 36 1 12 8
M  V30 37 1 29 17
M  V30 38 1 31 11
M  V30 39 1 27 22
M  V30 40 1 1 36
M  V30 41 1 1 37
M  V30 42 1 1 38
M  V30 43 1 7 39
M  V30 44 1 10 40
M  V30 45 1 13 41
M  V30 46 1 13 42
M  V30 47 1 18 43
M  V30 48 1 18 44
M  V30 49 1 19 45
M  V30 50 1 19 46
M  V30 51 1 21 47
M  V30 52 1 21 48
M  V30 53 1 22 49
M  V30 54 1 23 50
M  V30 55 1 23 51
M  V30 56 1 24 52
M  V30 57 1 24 53
M  V30 58 1 26 54
M  V30 59 1 26 55
M  V30 60 1 27 56
M  V30 61 1 27 57
M  V30 62 1 28 58
M  V30 63 1 28 59
M  V30 64 1 29 60 CFG=1
M  V30 65 1 30 61
M  V30 66 1 30 62
M  V30 67 1 30 63
M  V30 68 1 32 64
M  V30 69 1 32 65
M  V30 70 1 32 66
M  V30 71 1 33 67
M  V30 72 1 33 68
M  V30 73 1 33 69
M  V30 74 1 34 70
M  V30 END BOND
M  V30 END CTAB
M  END
>  <Dataset>  (312) 
ChEMBL_Kinases

>  <Ligand_Instance>  (312) 
nan

>  <PDB_ID>  (312) 
nan

>  <Standardized_SMILES>  (312) 
Cc1nc(C(=O)Nc2n[nH]c3c2CN(C(=O)N2CCN(CC4CCOCC4)C[C@@H]2C)C3(C)C)cs1

>  <Name>  (312) 
nan

>  <Pocket>  (312) 
nan

>  <ATP_Site>  (312) 
nan

>  <Peripheral>  (312) 
nan

>  <Num_H_Atoms_ProtBoundConf>  (312) 
nan

>  <Num_Resolved_Atoms>  (312) 
nan

>  <Num_Not_Resolved_Atoms>  (312) 
nan

$$$$
CHEMBL3965978
     RDKit          3D

  0  0  0  0  0  0  0  0  0  0999 V3000
M  V30 BEGIN CTAB
M  V30 COUNTS 61 66 0 0 0
M  V30 BEGIN ATOM
M  V30 1 C 4.873088 -5.808907 5.061300 0
M  V30 2 O 4.366103 -4.518564 5.366126 0
M  V30 3 C 3.764915 -3.796603 4.330240 0
M  V30 4 O 3.605344 -4.137227 3.133047 0
M  V30 5 N 3.260364 -2.513949 4.634905 0
M  V30 6 C 2.608652 -1.559316 3.808219 0
M  V30 7 N 1.337847 -1.242730 3.432083 0
M  V30 8 C 1.386368 -0.194032 2.606090 0
M  V30 9 C 0.364884 0.502844 1.959655 0
M  V30 10 C 0.608263 1.562092 1.150757 0
M  V30 11 C -0.398969 2.373532 0.437681 0
M  V30 12 O 0.195654 3.193159 -0.510684 0
M  V30 13 C -1.247953 3.155914 1.367138 0
M  V30 14 C -0.764375 4.170401 2.164406 0
M  V30 15 C -1.600519 4.847415 3.027068 0
M  V30 16 C -2.937883 4.476843 3.067391 0
M  V30 17 C -3.380761 3.460718 2.256548 0
M  V30 18 C -2.575722 2.761980 1.382054 0
M  V30 19 C -2.650746 1.690160 0.391146 0
M  V30 20 O -3.815061 1.181726 0.253740 0
M  V30 21 N -1.345049 1.479812 -0.192365 0
M  V30 22 C -1.378166 0.482757 -1.205169 0
M  V30 23 C -1.632035 1.096678 -2.442400 0
M  V30 24 C -1.720230 0.324129 -3.606454 0
M  V30 25 C -1.546673 -1.035622 -3.458195 0
M  V30 26 C -1.297776 -1.660868 -2.256867 0
M  V30 27 C -1.143030 -3.100336 -2.099865 0
M  V30 28 O -0.467557 -3.524408 -1.098112 0
M  V30 29 C -1.669683 -4.155607 -2.954603 0
M  V30 30 C -2.770052 -4.002971 -3.767623 0
M  V30 31 C -3.280871 -4.982564 -4.602396 0
M  V30 32 C -2.657575 -6.212012 -4.638319 0
M  V30 33 C -1.547084 -6.398411 -3.831074 0
M  V30 34 C -1.072787 -5.396100 -3.016356 0
M  V30 35 C -1.214018 -0.881896 -1.123988 0
M  V30 36 C 1.948044 1.922889 0.995517 0
M  V30 37 C 2.991642 1.265728 1.612715 0
M  V30 38 C 2.716972 0.198283 2.426051 0
M  V30 39 N 3.433011 -0.674148 3.187580 0
M  V30 40 H 5.184758 -6.288883 6.006681 0
M  V30 41 H 4.072004 -6.441177 4.617545 0
M  V30 42 H 5.750571 -5.734073 4.405791 0
M  V30 43 H 3.317136 -2.079969 5.603894 0
M  V30 44 H -0.646507 0.198819 2.100716 0
M  V30 45 H 0.576743 4.015676 -0.077258 0
M  V30 46 H 0.254311 4.527576 2.202442 0
M  V30 47 H -1.280619 5.654429 3.679189 0
M  V30 48 H -3.682397 4.938898 3.705060 0
M  V30 49 H -4.425943 3.153585 2.271392 0
M  V30 50 H -1.778270 2.159298 -2.629094 0
M  V30 51 H -1.915040 0.769129 -4.581605 0
M  V30 52 H -1.605343 -1.611218 -4.366312 0
M  V30 53 H -3.320603 -3.082302 -3.791535 0
M  V30 54 H -4.158998 -4.805844 -5.227702 0
M  V30 55 H -3.068023 -6.971280 -5.296802 0
M  V30 56 H -1.114161 -7.386660 -3.914441 0
M  V30 57 H -0.207185 -5.607637 -2.416656 0
M  V30 58 H -1.025714 -1.216888 -0.114563 0
M  V30 59 H 2.197403 2.765260 0.356134 0
M  V30 60 H 4.014573 1.568265 1.473472 0
M  V30 61 H 4.486914 -0.536411 3.182096 0
M  V30 END ATOM
M  V30 BEGIN BOND
M  V30 1 1 1 2
M  V30 2 1 2 3
M  V30 3 2 3 4
M  V30 4 1 3 5
M  V30 5 1 5 6
M  V30 6 2 6 7
M  V30 7 1 7 8
M  V30 8 2 8 9
M  V30 9 1 9 10
M  V30 10 1 10 11
M  V30 11 1 11 12
M  V30 12 1 11 13
M  V30 13 2 13 14
M  V30 14 1 14 15
M  V30 15 2 15 16
M  V30 16 1 16 17
M  V30 17 2 17 18
M  V30 18 1 18 19
M  V30 19 2 19 20
M  V30 20 1 19 21
M  V30 21 1 21 22
M  V30 22 2 22 23
M  V30 23 1 23 24
M  V30 24 2 24 25
M  V30 25 1 25 26
M  V30 26 1 26 27
M  V30 27 2 27 28
M  V30 28 1 27 29
M  V30 29 2 29 30
M  V30 30 1 30 31
M  V30 31 2 31 32
M  V30 32 1 32 33
M  V30 33 2 33 34
M  V30 34 2 26 35
M  V30 35 2 10 36
M  V30 36 1 36 37
M  V30 37 2 37 38
M  V30 38 1 38 39
M  V30 39 1 39 6
M  V30 40 1 38 8
M  V30 41 1 21 11
M  V30 42 1 35 22
M  V30 43 1 18 13
M  V30 44 1 34 29
M  V30 45 1 1 40
M  V30 46 1 1 41
M  V30 47 1 1 42
M  V30 48 1 5 43
M  V30 49 1 9 44
M  V30 50 1 12 45
M  V30 51 1 14 46
M  V30 52 1 15 47
M  V30 53 1 16 48
M  V30 54 1 17 49
M  V30 55 1 23 50
M  V30 56 1 24 51
M  V30 57 1 25 52
M  V30 58 1 30 53
M  V30 59 1 31 54
M  V30 60 1 32 55
M  V30 61 1 33 56
M  V30 62 1 34 57
M  V30 63 1 35 58
M  V30 64 1 36 59
M  V30 65 1 37 60
M  V30 66 1 39 61
M  V30 END BOND
M  V30 END CTAB
M  END
>  <Dataset>  (313) 
ChEMBL_Kinases

>  <Ligand_Instance>  (313) 
nan

>  <PDB_ID>  (313) 
nan

>  <Standardized_SMILES>  (313) 
COC(=O)Nc1nc2cc(C3(O)c4ccccc4C(=O)N3c3cccc(C(=O)c4ccccc4)c3)ccc2[nH]1

>  <Name>  (313) 
nan

>  <Pocket>  (313) 
nan

>  <ATP_Site>  (313) 
nan

>  <Peripheral>  (313) 
nan

>  <Num_H_Atoms_ProtBoundConf>  (313) 
nan

>  <Num_Resolved_Atoms>  (313) 
nan

>  <Num_Not_Resolved_Atoms>  (313) 
nan

$$$$
CHEMBL3965842
     RDKit          3D

  0  0  0  0  0  0  0  0  0  0999 V3000
M  V30 BEGIN CTAB
M  V30 COUNTS 47 50 0 0 0
M  V30 BEGIN ATOM
M  V30 1 C 1.806450 -6.850452 3.229797 0
M  V30 2 O 2.412835 -6.861956 1.964213 0
M  V30 3 C 2.592567 -5.704327 1.222023 0
M  V30 4 C 2.167424 -4.476617 1.723748 0
M  V30 5 C 2.361208 -3.336634 0.957722 0
M  V30 6 C 2.972272 -3.438099 -0.289227 0
M  V30 7 C 3.167191 -2.186851 -1.092795 0
M  V30 8 O 2.769473 -2.519329 -2.397879 0
M  V30 9 C 2.330858 -1.083487 -0.576699 0
M  V30 10 C 2.732704 0.058605 0.105608 0
M  V30 11 C 1.792204 0.984247 0.510656 0
M  V30 12 C 0.458089 0.776021 0.238932 0
M  V30 13 C -0.524617 1.765009 0.674285 0
M  V30 14 N -1.855433 1.705395 0.485596 0
M  V30 15 C -2.454524 2.788549 1.018154 0
M  V30 16 C -3.795551 3.117737 1.044562 0
M  V30 17 C -4.164485 4.297219 1.657599 0
M  V30 18 C -5.540949 4.768836 1.759097 0
M  V30 19 N -6.563959 3.960883 1.190159 0
M  V30 20 O -5.936946 5.831586 2.303961 0
M  V30 21 C -3.161828 5.083328 2.212096 0
M  V30 22 C -1.814736 4.726883 2.171234 0
M  V30 23 C -1.437555 3.546248 1.558517 0
M  V30 24 N -0.255333 2.903862 1.339312 0
M  V30 25 C 0.034204 -0.350367 -0.437214 0
M  V30 26 C 0.972488 -1.279199 -0.844294 0
M  V30 27 C 3.397696 -4.644151 -0.798388 0
M  V30 28 C 3.195377 -5.778525 -0.016269 0
M  V30 29 H 2.453468 -6.379590 4.002690 0
M  V30 30 H 0.833120 -6.324606 3.195130 0
M  V30 31 H 1.652809 -7.923452 3.528435 0
M  V30 32 H 1.685329 -4.393144 2.706428 0
M  V30 33 H 2.051313 -2.340704 1.291506 0
M  V30 34 H 4.246728 -1.952744 -1.091517 0
M  V30 35 H 3.546937 -2.770864 -2.967238 0
M  V30 36 H 3.793066 0.104375 0.254969 0
M  V30 37 H 2.162032 1.854967 1.038254 0
M  V30 38 H -4.561037 2.496163 0.609313 0
M  V30 39 H -7.585663 4.086055 1.361162 0
M  V30 40 H -6.492021 3.151354 0.543094 0
M  V30 41 H -3.421320 6.017490 2.701455 0
M  V30 42 H -1.052959 5.360328 2.612648 0
M  V30 43 H 0.669424 3.267194 1.649510 0
M  V30 44 H -1.028418 -0.448824 -0.616148 0
M  V30 45 H 0.556623 -2.141080 -1.372352 0
M  V30 46 H 3.875490 -4.714130 -1.776346 0
M  V30 47 H 3.548039 -6.697474 -0.463901 0
M  V30 END ATOM
M  V30 BEGIN BOND
M  V30 1 1 1 2
M  V30 2 1 2 3
M  V30 3 2 3 4
M  V30 4 1 4 5
M  V30 5 2 5 6
M  V30 6 1 6 7
M  V30 7 1 7 8
M  V30 8 1 7 9
M  V30 9 2 9 10
M  V30 10 1 10 11
M  V30 11 2 11 12
M  V30 12 1 12 13
M  V30 13 2 13 14
M  V30 14 1 14 15
M  V30 15 2 15 16
M  V30 16 1 16 17
M  V30 17 1 17 18
M  V30 18 1 18 19
M  V30 19 2 18 20
M  V30 20 2 17 21
M  V30 21 1 21 22
M  V30 22 2 22 23
M  V30 23 1 23 24
M  V30 24 1 12 25
M  V30 25 2 25 26
M  V30 26 1 6 27
M  V30 27 2 27 28
M  V30 28 1 28 3
M  V30 29 1 26 9
M  V30 30 1 24 13
M  V30 31 1 23 15
M  V30 32 1 1 29
M  V30 33 1 1 30
M  V30 34 1 1 31
M  V30 35 1 4 32
M  V30 36 1 5 33
M  V30 37 1 7 34
M  V30 38 1 8 35
M  V30 39 1 10 36
M  V30 40 1 11 37
M  V30 41 1 16 38
M  V30 42 1 19 39
M  V30 43 1 19 40
M  V30 44 1 21 41
M  V30 45 1 22 42
M  V30 46 1 24 43
M  V30 47 1 25 44
M  V30 48 1 26 45
M  V30 49 1 27 46
M  V30 50 1 28 47
M  V30 END BOND
M  V30 END CTAB
M  END
>  <Dataset>  (314) 
ChEMBL_Kinases

>  <Ligand_Instance>  (314) 
nan

>  <PDB_ID>  (314) 
nan

>  <Standardized_SMILES>  (314) 
COc1ccc(C(O)c2ccc(-c3nc4cc(C(N)=O)ccc4[nH]3)cc2)cc1

>  <Name>  (314) 
nan

>  <Pocket>  (314) 
nan

>  <ATP_Site>  (314) 
nan

>  <Peripheral>  (314) 
nan

>  <Num_H_Atoms_ProtBoundConf>  (314) 
nan

>  <Num_Resolved_Atoms>  (314) 
nan

>  <Num_Not_Resolved_Atoms>  (314) 
nan

$$$$
CHEMBL3965798
     RDKit          3D

  0  0  0  0  0  0  0  0  0  0999 V3000
M  V30 BEGIN CTAB
M  V30 COUNTS 43 47 0 0 0
M  V30 BEGIN ATOM
M  V30 1 C -1.193973 -2.936462 2.994980 0
M  V30 2 C 0.026090 -3.137905 2.607720 0
M  V30 3 C 0.997637 -2.528519 1.740155 0
M  V30 4 N 2.238175 -3.083943 1.600863 0
M  V30 5 N 2.949949 -2.364331 0.766983 0
M  V30 6 C 2.277184 -1.304477 0.291627 0
M  V30 7 C 2.565429 -0.276111 -0.581139 0
M  V30 8 C 1.585349 0.661788 -0.833420 0
M  V30 9 C 1.980417 1.709704 -1.768111 0
M  V30 10 C 2.638871 1.320861 -2.924240 0
M  V30 11 C 3.072791 2.198648 -3.902188 0
M  V30 12 C 2.847177 3.550666 -3.738235 0
M  V30 13 C 2.191160 3.951379 -2.588852 0
M  V30 14 N 1.824858 5.168576 -2.135391 0
M  V30 15 C 1.196390 5.075571 -0.942747 0
M  V30 16 C 1.144575 3.722660 -0.588732 0
M  V30 17 C 1.767528 3.065421 -1.628570 0
M  V30 18 C 0.362127 0.536028 -0.207102 0
M  V30 19 C 0.093193 -0.497554 0.661021 0
M  V30 20 C 1.059937 -1.434094 0.918188 0
M  V30 21 C -2.044662 -3.682851 3.909227 0
M  V30 22 C -3.321742 -3.223062 4.133357 0
M  V30 23 C -4.163324 -3.895642 4.990095 0
M  V30 24 C -3.760561 -5.036359 5.643080 0
M  V30 25 C -2.487160 -5.526086 5.442320 0
M  V30 26 C -1.677674 -4.821461 4.576323 0
M  V30 27 H -1.598025 -2.054129 2.530723 0
M  V30 28 H 0.316252 -4.056523 3.148148 0
M  V30 29 H 3.933090 -2.641783 0.538422 0
M  V30 30 H 3.560914 -0.305423 -0.995305 0
M  V30 31 H 2.859013 0.280847 -3.137335 0
M  V30 32 H 3.584788 1.864452 -4.795134 0
M  V30 33 H 3.136865 4.313739 -4.424913 0
M  V30 34 H 1.967044 6.115221 -2.581299 0
M  V30 35 H 0.773305 5.820704 -0.293360 0
M  V30 36 H 0.708455 3.301648 0.307484 0
M  V30 37 H -0.369996 1.296978 -0.440288 0
M  V30 38 H -0.871543 -0.548133 1.119721 0
M  V30 39 H -3.691277 -2.321647 3.639748 0
M  V30 40 H -5.174646 -3.498130 5.143304 0
M  V30 41 H -4.465880 -5.521097 6.303760 0
M  V30 42 H -2.171401 -6.412079 5.948247 0
M  V30 43 H -0.691735 -5.226471 4.439658 0
M  V30 END ATOM
M  V30 BEGIN BOND
M  V30 1 2 1 2
M  V30 2 1 2 3
M  V30 3 2 3 4
M  V30 4 1 4 5
M  V30 5 1 5 6
M  V30 6 2 6 7
M  V30 7 1 7 8
M  V30 8 1 8 9
M  V30 9 2 9 10
M  V30 10 1 10 11
M  V30 11 2 11 12
M  V30 12 1 12 13
M  V30 13 1 13 14
M  V30 14 1 14 15
M  V30 15 2 15 16
M  V30 16 1 16 17
M  V30 17 2 8 18
M  V30 18 1 18 19
M  V30 19 2 19 20
M  V30 20 1 1 21
M  V30 21 2 21 22
M  V30 22 1 22 23
M  V30 23 2 23 24
M  V30 24 1 24 25
M  V30 25 2 25 26
M  V30 26 1 20 3
M  V30 27 1 26 21
M  V30 28 1 20 6
M  V30 29 1 17 9
M  V30 30 2 17 13
M  V30 31 1 1 27
M  V30 32 1 2 28
M  V30 33 1 5 29
M  V30 34 1 7 30
M  V30 35 1 10 31
M  V30 36 1 11 32
M  V30 37 1 12 33
M  V30 38 1 14 34
M  V30 39 1 15 35
M  V30 40 1 16 36
M  V30 41 1 18 37
M  V30 42 1 19 38
M  V30 43 1 22 39
M  V30 44 1 23 40
M  V30 45 1 24 41
M  V30 46 1 25 42
M  V30 47 1 26 43
M  V30 END BOND
M  V30 END CTAB
M  END
>  <Dataset>  (315) 
ChEMBL_Kinases

>  <Ligand_Instance>  (315) 
nan

>  <PDB_ID>  (315) 
nan

>  <Standardized_SMILES>  (315) 
C(=C/c1n[nH]c2cc(-c3cccc4[nH]ccc34)ccc12)\c1ccccc1

>  <Name>  (315) 
nan

>  <Pocket>  (315) 
nan

>  <ATP_Site>  (315) 
nan

>  <Peripheral>  (315) 
nan

>  <Num_H_Atoms_ProtBoundConf>  (315) 
nan

>  <Num_Resolved_Atoms>  (315) 
nan

>  <Num_Not_Resolved_Atoms>  (315) 
nan

$$$$
CHEMBL3965786
     RDKit          3D

  0  0  0  0  0  0  0  0  0  0999 V3000
M  V30 BEGIN CTAB
M  V30 COUNTS 48 52 0 0 0
M  V30 BEGIN ATOM
M  V30 1 N 1.468639 -8.446034 -0.901194 0
M  V30 2 C 2.666477 -7.728466 -1.162410 0
M  V30 3 O 3.583565 -8.502377 -1.482816 0
M  V30 4 C 2.745978 -6.278057 -1.052110 0
M  V30 5 C 3.943513 -5.649452 -1.317606 0
M  V30 6 C 4.009461 -4.275610 -1.210286 0
M  V30 7 C 2.893907 -3.512275 -0.840147 0
M  V30 8 N 2.653066 -2.201696 -0.655966 0
M  V30 9 C 1.364239 -2.069498 -0.296767 0
M  V30 10 C 0.676116 -0.814090 0.004051 0
M  V30 11 C 1.374533 0.374116 -0.067512 0
M  V30 12 C 0.746952 1.572855 0.210787 0
M  V30 13 C -0.587426 1.581213 0.562496 0
M  V30 14 C -1.477961 2.719722 0.907317 0
M  V30 15 C -1.843618 2.708273 2.349596 0
M  V30 16 C -0.892565 2.893215 3.329877 0
M  V30 17 C -1.334832 2.864428 4.644278 0
M  V30 18 C -2.675587 2.658602 4.960654 0
M  V30 19 C -3.620254 2.474425 3.972942 0
M  V30 20 C -3.173160 2.503617 2.647192 0
M  V30 21 O -0.685586 3.872239 0.710684 0
M  V30 22 C -1.627547 4.874618 0.763587 0
M  V30 23 C -2.817325 4.254386 0.086949 0
M  V30 24 O -2.561919 2.866291 0.083115 0
M  V30 25 C -1.290764 0.373916 0.633480 0
M  V30 26 C -0.661388 -0.833417 0.354021 0
M  V30 27 N 0.801467 -3.301076 -0.257207 0
M  V30 28 C 1.742175 -4.226156 -0.594802 0
M  V30 29 C 1.607591 -5.601250 -0.683756 0
M  V30 30 H 1.217190 -9.131241 -0.154739 0
M  V30 31 H 0.535151 -8.455411 -1.408629 0
M  V30 32 H 4.853977 -6.187133 -1.612252 0
M  V30 33 H 4.955054 -3.748248 -1.416896 0
M  V30 34 H 3.344628 -1.448829 -0.773900 0
M  V30 35 H 2.422428 0.445699 -0.336535 0
M  V30 36 H 1.169702 2.567735 0.193576 0
M  V30 37 H 0.145184 3.053168 3.097853 0
M  V30 38 H -0.674503 2.997561 5.474369 0
M  V30 39 H -3.066427 2.628247 5.970076 0
M  V30 40 H -4.666070 2.312690 4.180772 0
M  V30 41 H -3.957808 2.352498 1.888942 0
M  V30 42 H -1.822910 5.148250 1.821747 0
M  V30 43 H -1.229858 5.766764 0.271704 0
M  V30 44 H -3.713878 4.443558 0.739268 0
M  V30 45 H -2.977211 4.577856 -0.951675 0
M  V30 46 H -2.333377 0.230128 0.893969 0
M  V30 47 H -1.147923 -1.796801 0.390950 0
M  V30 48 H 0.662930 -6.076164 -0.472324 0
M  V30 END ATOM
M  V30 BEGIN BOND
M  V30 1 1 1 2
M  V30 2 2 2 3
M  V30 3 1 2 4
M  V30 4 2 4 5
M  V30 5 1 5 6
M  V30 6 2 6 7
M  V30 7 1 7 8
M  V30 8 1 8 9
M  V30 9 1 9 10
M  V30 10 2 10 11
M  V30 11 1 11 12
M  V30 12 2 12 13
M  V30 13 1 13 14
M  V30 14 1 14 15
M  V30 15 2 15 16
M  V30 16 1 16 17
M  V30 17 2 17 18
M  V30 18 1 18 19
M  V30 19 2 19 20
M  V30 20 1 14 21
M  V30 21 1 21 22
M  V30 22 1 22 23
M  V30 23 1 23 24
M  V30 24 1 13 25
M  V30 25 2 25 26
M  V30 26 2 9 27
M  V30 27 1 27 28
M  V30 28 2 28 29
M  V30 29 1 29 4
M  V30 30 1 28 7
M  V30 31 1 26 10
M  V30 32 1 24 14
M  V30 33 1 20 15
M  V30 34 1 1 30
M  V30 35 1 1 31
M  V30 36 1 5 32
M  V30 37 1 6 33
M  V30 38 1 8 34
M  V30 39 1 11 35
M  V30 40 1 12 36
M  V30 41 1 16 37
M  V30 42 1 17 38
M  V30 43 1 18 39
M  V30 44 1 19 40
M  V30 45 1 20 41
M  V30 46 1 22 42
M  V30 47 1 22 43
M  V30 48 1 23 44
M  V30 49 1 23 45
M  V30 50 1 25 46
M  V30 51 1 26 47
M  V30 52 1 29 48
M  V30 END BOND
M  V30 END CTAB
M  END
>  <Dataset>  (316) 
ChEMBL_Kinases

>  <Ligand_Instance>  (316) 
nan

>  <PDB_ID>  (316) 
nan

>  <Standardized_SMILES>  (316) 
NC(=O)c1ccc2[nH]c(-c3ccc(C4(c5ccccc5)OCCO4)cc3)nc2c1

>  <Name>  (316) 
nan

>  <Pocket>  (316) 
nan

>  <ATP_Site>  (316) 
nan

>  <Peripheral>  (316) 
nan

>  <Num_H_Atoms_ProtBoundConf>  (316) 
nan

>  <Num_Resolved_Atoms>  (316) 
nan

>  <Num_Not_Resolved_Atoms>  (316) 
nan

$$$$
CHEMBL3702028
     RDKit          3D

  0  0  0  0  0  0  0  0  0  0999 V3000
M  V30 BEGIN CTAB
M  V30 COUNTS 57 62 0 0 0
M  V30 BEGIN ATOM
M  V30 1 C 1.954952 -2.936284 4.931540 0
M  V30 2 C 2.668284 -4.131875 4.332336 0
M  V30 3 C 4.191524 -3.985337 4.441316 0
M  V30 4 C 4.607036 -3.968301 2.964724 0
M  V30 5 N 3.508203 -3.239144 2.369591 0
M  V30 6 C 3.323318 -2.084566 1.578200 0
M  V30 7 C 4.319229 -1.369995 0.958843 0
M  V30 8 C 4.079218 -0.245707 0.203555 0
M  V30 9 C 2.784714 0.203629 0.047229 0
M  V30 10 N 2.333747 1.349425 -0.704946 0
M  V30 11 C 0.957155 1.703107 -0.753225 0
M  V30 12 N 0.701653 2.961914 -0.334606 0
M  V30 13 C -0.535413 3.496035 -0.292333 0
M  V30 14 C -1.601839 2.714910 -0.698838 0
M  V30 15 C -2.961853 2.891307 -0.792502 0
M  V30 16 C -3.767862 3.971069 -0.500038 0
M  V30 17 C -5.151735 3.880010 -0.690335 0
M  V30 18 N -5.675446 2.714819 -1.164567 0
M  V30 19 C -4.831451 1.701814 -1.428876 0
M  V30 20 C -3.477523 1.687430 -1.279829 0
M  V30 21 N -2.513063 0.791823 -1.487949 0
M  V30 22 C -2.614589 -0.530678 -1.968068 0
M  V30 23 C -3.329660 -1.495540 -1.058635 0
M  V30 24 C -3.133699 -2.763524 -1.906589 0
M  V30 25 C -3.565839 -2.236401 -3.273602 0
M  V30 26 C -3.234831 -0.758061 -3.295428 0
M  V30 27 C -1.353716 1.425330 -1.129331 0
M  V30 28 N -0.092023 0.956561 -1.145655 0
M  V30 29 N 1.843798 -0.529277 0.672043 0
M  V30 30 N 2.081325 -1.606960 1.395062 0
M  V30 31 C 2.407788 -4.108132 2.824829 0
M  V30 32 H 1.753901 -3.117113 6.014193 0
M  V30 33 H 2.563142 -2.004235 4.789309 0
M  V30 34 H 0.982038 -2.739740 4.421824 0
M  V30 35 H 2.372430 -5.079336 4.781072 0
M  V30 36 H 4.646566 -4.827194 4.989303 0
M  V30 37 H 4.470867 -3.014009 4.867841 0
M  V30 38 H 5.593551 -3.485274 2.830603 0
M  V30 39 H 4.610918 -5.027132 2.587416 0
M  V30 40 H 5.331124 -1.708801 1.073135 0
M  V30 41 H 4.834098 0.343288 -0.299141 0
M  V30 42 H 3.134710 1.827312 -1.167407 0
M  V30 43 H -0.769210 4.481100 0.031450 0
M  V30 44 H -3.347676 4.909712 -0.117293 0
M  V30 45 H -5.728296 4.761415 -0.442055 0
M  V30 46 H -5.304187 0.811964 -1.796017 0
M  V30 47 H -1.585007 -0.998401 -2.053162 0
M  V30 48 H -4.409496 -1.357191 -0.973068 0
M  V30 49 H -2.909613 -1.589566 -0.054680 0
M  V30 50 H -2.030032 -2.964396 -1.948690 0
M  V30 51 H -3.716603 -3.611380 -1.557212 0
M  V30 52 H -3.065137 -2.789900 -4.087900 0
M  V30 53 H -4.682154 -2.318158 -3.316830 0
M  V30 54 H -2.449049 -0.576650 -4.089703 0
M  V30 55 H -4.073533 -0.133916 -3.582725 0
M  V30 56 H 1.419766 -3.669725 2.602420 0
M  V30 57 H 2.497495 -5.095826 2.374490 0
M  V30 END ATOM
M  V30 BEGIN BOND
M  V30 1 1 1 2
M  V30 2 1 2 3
M  V30 3 1 3 4
M  V30 4 1 4 5
M  V30 5 1 5 6
M  V30 6 2 6 7
M  V30 7 1 7 8
M  V30 8 2 8 9
M  V30 9 1 9 10
M  V30 10 1 10 11
M  V30 11 2 11 12
M  V30 12 1 12 13
M  V30 13 2 13 14
M  V30 14 1 14 15
M  V30 15 2 15 16
M  V30 16 1 16 17
M  V30 17 2 17 18
M  V30 18 1 18 19
M  V30 19 2 19 20
M  V30 20 1 20 21
M  V30 21 1 21 22
M  V30 22 1 22 23
M  V30 23 1 23 24
M  V30 24 1 24 25
M  V30 25 1 25 26
M  V30 26 1 21 27
M  V30 27 2 27 28
M  V30 28 1 9 29
M  V30 29 2 29 30
M  V30 30 1 5 31
M  V30 31 1 31 2
M  V30 32 1 30 6
M  V30 33 1 28 11
M  V30 34 1 27 14
M  V30 35 1 20 15
M  V30 36 1 26 22
M  V30 37 1 1 32
M  V30 38 1 1 33
M  V30 39 1 1 34
M  V30 40 1 2 35
M  V30 41 1 3 36
M  V30 42 1 3 37
M  V30 43 1 4 38
M  V30 44 1 4 39
M  V30 45 1 7 40
M  V30 46 1 8 41
M  V30 47 1 10 42
M  V30 48 1 13 43
M  V30 49 1 16 44
M  V30 50 1 17 45
M  V30 51 1 19 46
M  V30 52 1 22 47
M  V30 53 1 23 48
M  V30 54 1 23 49
M  V30 55 1 24 50
M  V30 56 1 24 51
M  V30 57 1 25 52
M  V30 58 1 25 53
M  V30 59 1 26 54
M  V30 60 1 26 55
M  V30 61 1 31 56
M  V30 62 1 31 57
M  V30 END BOND
M  V30 END CTAB
M  END
>  <Dataset>  (317) 
ChEMBL_Kinases

>  <Ligand_Instance>  (317) 
nan

>  <PDB_ID>  (317) 
nan

>  <Standardized_SMILES>  (317) 
CC1CCN(c2ccc(Nc3ncc4c5ccncc5n(C5CCCC5)c4n3)nn2)C1

>  <Name>  (317) 
nan

>  <Pocket>  (317) 
nan

>  <ATP_Site>  (317) 
nan

>  <Peripheral>  (317) 
nan

>  <Num_H_Atoms_ProtBoundConf>  (317) 
nan

>  <Num_Resolved_Atoms>  (317) 
nan

>  <Num_Not_Resolved_Atoms>  (317) 
nan

$$$$
CHEMBL3965720
     RDKit          3D

  0  0  0  0  0  0  0  0  0  0999 V3000
M  V30 BEGIN CTAB
M  V30 COUNTS 52 56 0 0 0
M  V30 BEGIN ATOM
M  V30 1 C 3.582637 3.616256 1.740477 0
M  V30 2 O 3.162495 2.747909 0.707913 0
M  V30 3 C 3.851684 1.573874 0.472959 0
M  V30 4 C 4.951554 1.241809 1.242273 0
M  V30 5 C 5.558895 0.043597 0.913780 0
M  V30 6 C 5.134209 -0.797583 -0.102835 0
M  V30 7 F 5.755213 -1.956274 -0.389369 0
M  V30 8 C 4.023049 -0.394249 -0.829673 0
M  V30 9 C 3.361406 0.797046 -0.556468 0
M  V30 10 C 2.205734 1.154162 -1.358699 0
M  V30 11 C 2.254416 1.893437 -2.529310 0
M  V30 12 C 1.093134 2.189026 -3.234399 0
M  V30 13 N -0.087839 1.769800 -2.802119 0
M  V30 14 C -0.220506 1.049130 -1.678078 0
M  V30 15 N -1.290433 0.541121 -1.081742 0
M  V30 16 C -0.853858 -0.101831 0.032490 0
M  V30 17 C -1.658716 -0.820220 1.017950 0
M  V30 18 C -1.134616 -1.429448 2.095892 0
M  V30 19 C -1.938713 -2.620819 2.551486 0
M  V30 20 C -3.032618 -2.066819 3.446153 0
M  V30 21 C -4.282938 -2.131759 2.595192 0
M  V30 22 C -3.690757 -2.259067 1.207766 0
M  V30 23 C -3.148885 -0.880787 0.815510 0
M  V30 24 N -2.562184 -3.119687 1.362552 0
M  V30 25 S -2.959097 -4.780273 1.408230 0
M  V30 26 C -3.721585 -5.212440 -0.137423 0
M  V30 27 O -3.983689 -5.079698 2.491026 0
M  V30 28 O -1.739381 -5.598110 1.640696 0
M  V30 29 C 0.523688 0.020495 0.113722 0
M  V30 30 C 0.939735 0.763119 -0.988486 0
M  V30 31 H 4.473711 4.199535 1.473959 0
M  V30 32 H 3.709171 3.090914 2.698968 0
M  V30 33 H 2.741080 4.350710 1.906848 0
M  V30 34 H 5.319804 1.867536 2.046837 0
M  V30 35 H 6.428464 -0.310870 1.453777 0
M  V30 36 H 3.667466 -1.032736 -1.632009 0
M  V30 37 H 3.243504 2.229076 -2.866641 0
M  V30 38 H 1.137948 2.762826 -4.141568 0
M  V30 39 H -2.297494 0.595300 -1.370420 0
M  V30 40 H -0.209772 -0.971476 2.477028 0
M  V30 41 H -1.319564 -3.354307 3.077266 0
M  V30 42 H -3.139484 -2.627291 4.392193 0
M  V30 43 H -2.868881 -1.006306 3.710154 0
M  V30 44 H -4.863048 -1.195616 2.623986 0
M  V30 45 H -4.908334 -2.970156 2.902498 0
M  V30 46 H -4.457484 -2.600658 0.497546 0
M  V30 47 H -3.339013 -0.790679 -0.274855 0
M  V30 48 H -3.632307 -0.085643 1.406224 0
M  V30 49 H -4.348555 -6.121635 -0.051769 0
M  V30 50 H -2.905129 -5.324386 -0.894841 0
M  V30 51 H -4.338739 -4.379605 -0.492188 0
M  V30 52 H 1.178963 -0.372794 0.873231 0
M  V30 END ATOM
M  V30 BEGIN BOND
M  V30 1 1 1 2
M  V30 2 1 2 3
M  V30 3 2 3 4
M  V30 4 1 4 5
M  V30 5 2 5 6
M  V30 6 1 6 7
M  V30 7 1 6 8
M  V30 8 2 8 9
M  V30 9 1 9 10
M  V30 10 2 10 11
M  V30 11 1 11 12
M  V30 12 2 12 13
M  V30 13 1 13 14
M  V30 14 1 14 15
M  V30 15 1 15 16
M  V30 16 1 16 17
M  V30 17 2 17 18
M  V30 18 1 18 19
M  V30 19 1 19 20
M  V30 20 1 20 21
M  V30 21 1 21 22
M  V30 22 1 22 23
M  V30 23 1 22 24
M  V30 24 1 24 25
M  V30 25 1 25 26
M  V30 26 2 25 27
M  V30 27 2 25 28
M  V30 28 2 16 29
M  V30 29 1 29 30
M  V30 30 1 9 3
M  V30 31 1 30 10
M  V30 32 2 30 14
M  V30 33 1 23 17
M  V30 34 1 24 19
M  V30 35 1 1 31
M  V30 36 1 1 32
M  V30 37 1 1 33
M  V30 38 1 4 34
M  V30 39 1 5 35
M  V30 40 1 8 36
M  V30 41 1 11 37
M  V30 42 1 12 38
M  V30 43 1 15 39
M  V30 44 1 18 40
M  V30 45 1 19 41
M  V30 46 1 20 42
M  V30 47 1 20 43
M  V30 48 1 21 44
M  V30 49 1 21 45
M  V30 50 1 22 46
M  V30 51 1 23 47
M  V30 52 1 23 48
M  V30 53 1 26 49
M  V30 54 1 26 50
M  V30 55 1 26 51
M  V30 56 1 29 52
M  V30 END BOND
M  V30 END CTAB
M  END
>  <Dataset>  (318) 
ChEMBL_Kinases

>  <Ligand_Instance>  (318) 
nan

>  <PDB_ID>  (318) 
nan

>  <Standardized_SMILES>  (318) 
COc1ccc(F)cc1-c1ccnc2[nH]c(C3=CC4CCC(C3)N4S(C)(=O)=O)cc12

>  <Name>  (318) 
nan

>  <Pocket>  (318) 
nan

>  <ATP_Site>  (318) 
nan

>  <Peripheral>  (318) 
nan

>  <Num_H_Atoms_ProtBoundConf>  (318) 
nan

>  <Num_Resolved_Atoms>  (318) 
nan

>  <Num_Not_Resolved_Atoms>  (318) 
nan

$$$$
CHEMBL3965716
     RDKit          3D

  0  0  0  0  0  0  0  0  0  0999 V3000
M  V30 BEGIN CTAB
M  V30 COUNTS 41 44 0 0 0
M  V30 BEGIN ATOM
M  V30 1 O 6.306080 -6.072559 0.704299 0
M  V30 2 C 5.143823 -6.546254 0.703886 0
M  V30 3 O 5.302326 -7.903334 0.852285 0
M  V30 4 C 3.889761 -5.804544 0.572715 0
M  V30 5 C 2.658128 -6.460617 0.588363 0
M  V30 6 C 1.516076 -5.688325 0.458801 0
M  V30 7 C 1.614408 -4.308585 0.319039 0
M  V30 8 N 0.676423 -3.359320 0.179747 0
M  V30 9 C 1.268176 -2.152183 0.079146 0
M  V30 10 C 0.598714 -0.853404 -0.085102 0
M  V30 11 C 1.338920 0.331200 -0.177046 0
M  V30 12 C 0.679850 1.534930 -0.330925 0
M  V30 13 C -0.698573 1.586832 -0.395391 0
M  V30 14 O -1.482999 2.722835 -0.547574 0
M  V30 15 C -1.959921 3.462562 0.527597 0
M  V30 16 C -1.693310 3.129296 1.840222 0
M  V30 17 C -2.222525 3.941794 2.834367 0
M  V30 18 C -2.991986 5.050482 2.547515 0
M  V30 19 N -3.524388 5.868221 3.555453 0 CHG=1 VAL=4
M  V30 20 O -3.330728 5.636963 4.766163 0
M  V30 21 O -4.284091 6.960124 3.207487 0 CHG=-1 VAL=1
M  V30 22 C -3.240372 5.356713 1.223350 0
M  V30 23 C -2.727347 4.566419 0.196328 0
M  V30 24 C -1.430143 0.395919 -0.302420 0
M  V30 25 C -0.781945 -0.825950 -0.147113 0
M  V30 26 N 2.588309 -2.371774 0.158675 0
M  V30 27 C 2.849216 -3.694983 0.307957 0
M  V30 28 C 4.022361 -4.438335 0.435835 0
M  V30 29 H 5.769020 -8.378658 1.602297 0
M  V30 30 H 2.646514 -7.533661 0.699837 0
M  V30 31 H 0.547027 -6.173498 0.467872 0
M  V30 32 H -0.327514 -3.566464 0.158310 0
M  V30 33 H 2.418997 0.309652 -0.128528 0
M  V30 34 H 1.188065 2.485867 -0.408414 0
M  V30 35 H -1.094384 2.266127 2.058954 0
M  V30 36 H -2.012833 3.679331 3.858222 0
M  V30 37 H -3.840596 6.221320 0.994108 0
M  V30 38 H -2.948430 4.845606 -0.824850 0
M  V30 39 H -2.513396 0.375222 -0.346657 0
M  V30 40 H -1.348400 -1.744014 -0.075555 0
M  V30 41 H 4.984522 -3.947006 0.425827 0
M  V30 END ATOM
M  V30 BEGIN BOND
M  V30 1 2 1 2
M  V30 2 1 2 3
M  V30 3 1 2 4
M  V30 4 2 4 5
M  V30 5 1 5 6
M  V30 6 2 6 7
M  V30 7 1 7 8
M  V30 8 1 8 9
M  V30 9 1 9 10
M  V30 10 2 10 11
M  V30 11 1 11 12
M  V30 12 2 12 13
M  V30 13 1 13 14
M  V30 14 1 14 15
M  V30 15 2 15 16
M  V30 16 1 16 17
M  V30 17 2 17 18
M  V30 18 1 18 19
M  V30 19 2 19 20
M  V30 20 1 19 21
M  V30 21 1 18 22
M  V30 22 2 22 23
M  V30 23 1 13 24
M  V30 24 2 24 25
M  V30 25 2 9 26
M  V30 26 1 26 27
M  V30 27 2 27 28
M  V30 28 1 28 4
M  V30 29 1 27 7
M  V30 30 1 25 10
M  V30 31 1 23 15
M  V30 32 1 3 29
M  V30 33 1 5 30
M  V30 34 1 6 31
M  V30 35 1 8 32
M  V30 36 1 11 33
M  V30 37 1 12 34
M  V30 38 1 16 35
M  V30 39 1 17 36
M  V30 40 1 22 37
M  V30 41 1 23 38
M  V30 42 1 24 39
M  V30 43 1 25 40
M  V30 44 1 28 41
M  V30 END BOND
M  V30 END CTAB
M  END
>  <Dataset>  (319) 
ChEMBL_Kinases

>  <Ligand_Instance>  (319) 
nan

>  <PDB_ID>  (319) 
nan

>  <Standardized_SMILES>  (319) 
O=C(O)c1ccc2[nH]c(-c3ccc(Oc4ccc([N+](=O)[O-])cc4)cc3)nc2c1

>  <Name>  (319) 
nan

>  <Pocket>  (319) 
nan

>  <ATP_Site>  (319) 
nan

>  <Peripheral>  (319) 
nan

>  <Num_H_Atoms_ProtBoundConf>  (319) 
nan

>  <Num_Resolved_Atoms>  (319) 
nan

>  <Num_Not_Resolved_Atoms>  (319) 
nan

$$$$
CHEMBL3965583
     RDKit          3D

  0  0  0  0  0  0  0  0  0  0999 V3000
M  V30 BEGIN CTAB
M  V30 COUNTS 128 131 0 0 0
M  V30 BEGIN ATOM
M  V30 1 C 3.769547 -4.577289 -0.147097 0
M  V30 2 C 3.537882 -3.514288 0.867882 0
M  V30 3 O 2.972644 -3.785306 1.975383 0
M  V30 4 N 3.994919 -2.195286 0.497957 0
M  V30 5 C 4.643647 -1.756362 -0.714926 0
M  V30 6 C 5.622325 -0.722637 -0.228566 0
M  V30 7 C 5.059555 -0.228361 1.068452 0
M  V30 8 C 3.837119 -1.060814 1.389952 0 CFG=1
M  V30 9 C 2.644548 -0.253404 1.121740 0
M  V30 10 O 2.694464 0.707910 1.933589 0
M  V30 11 N 1.591462 -0.407072 0.186416 0
M  V30 12 C 0.462479 0.488692 0.051097 0 CFG=1
M  V30 13 C 0.793139 1.562781 -1.002051 0
M  V30 14 C -0.271460 2.556786 -1.247995 0
M  V30 15 C -0.705952 3.360970 -0.067117 0
M  V30 16 C 0.351450 3.600755 -2.217981 0
M  V30 17 C -0.674108 -0.267296 -0.446267 0
M  V30 18 O -1.682135 0.474360 -0.517694 0
M  V30 19 N -0.898592 -1.582308 -0.865030 0
M  V30 20 C -1.751571 -2.493670 -1.405208 0 CFG=1
M  V30 21 C -1.990673 -3.831121 -0.946434 0
M  V30 22 C -2.545988 -4.360117 0.222883 0
M  V30 23 C -3.945721 -4.550315 -0.006471 0
M  V30 24 N -4.580389 -5.116140 1.082340 0
M  V30 25 C -3.555218 -5.272668 1.986130 0
M  V30 26 N -2.402444 -4.809797 1.416576 0
M  V30 27 C -1.360536 -4.880985 2.365208 0
M  V30 28 C -1.557939 -4.060727 3.570391 0
M  V30 29 C -1.650598 -2.604534 3.594038 0
M  V30 30 C -0.398689 -1.884182 3.203197 0
M  V30 31 C -0.591449 -0.395220 3.335822 0
M  V30 32 C -0.997935 0.034614 4.736710 0
M  V30 33 C -1.124854 1.517744 4.773934 0
M  V30 34 C -2.349737 2.145949 4.754870 0
M  V30 35 C -2.412623 3.520091 4.767180 0
M  V30 36 C -1.223271 4.218321 4.798893 0
M  V30 37 C 0.010456 3.555938 4.818192 0
M  V30 38 C 0.086231 2.152588 4.806417 0
M  V30 39 O 1.391785 1.781944 4.831226 0
M  V30 40 C 2.104197 1.080040 5.754526 0
M  V30 41 C 1.805523 0.547570 7.006687 0
M  V30 42 C 2.765752 -0.133037 7.719324 0
M  V30 43 C 4.043829 -0.323299 7.248932 0
M  V30 44 C 4.390280 0.194331 5.994946 0
M  V30 45 C 3.414757 0.871777 5.300203 0
M  V30 46 C -3.076071 -1.897744 -1.976330 0
M  V30 47 O -4.334955 -2.131378 -2.100239 0
M  V30 48 N -3.038321 -0.656600 -2.647080 0
M  V30 49 C -4.110428 0.096767 -3.249617 0 CFG=1
M  V30 50 C -4.228084 1.507348 -2.695146 0
M  V30 51 O -4.475964 1.480227 -1.344989 0
M  V30 52 C -3.829527 0.177445 -4.732475 0
M  V30 53 O -4.744417 0.821170 -5.350586 0
M  V30 54 N -2.735791 -0.349948 -5.445520 0
M  V30 55 C -2.680486 -0.147647 -6.878630 0 CFG=2
M  V30 56 C -2.526666 -1.431382 -7.608475 0
M  V30 57 N -2.429007 -2.783973 -7.118842 0
M  V30 58 O -2.470064 -1.340148 -8.882356 0
M  V30 59 C -1.513872 0.726428 -7.303071 0 CFG=1
M  V30 60 C -0.182788 0.221371 -6.845613 0
M  V30 61 O -1.478057 0.900891 -8.676247 0
M  V30 62 P -1.736260 2.519256 -9.096668 0
M  V30 63 O -3.102360 2.602102 -9.743769 0
M  V30 64 O -1.747065 3.486811 -7.706089 0
M  V30 65 O -0.529461 3.105679 -10.114123 0
M  V30 66 H 4.881677 -4.526535 -0.356007 0
M  V30 67 H 3.465449 -5.555524 0.239891 0
M  V30 68 H 3.256547 -4.290018 -1.085975 0
M  V30 69 H 5.236058 -2.575817 -1.207256 0
M  V30 70 H 3.926897 -1.359104 -1.467945 0
M  V30 71 H 5.666516 0.081365 -1.007164 0
M  V30 72 H 6.617891 -1.186927 -0.076525 0
M  V30 73 H 5.773988 -0.382353 1.904959 0
M  V30 74 H 4.787276 0.857609 0.936131 0
M  V30 75 H 3.839092 -1.392784 2.452262 0
M  V30 76 H 1.801708 -1.284610 -0.368268 0
M  V30 77 H 0.253448 0.969206 1.002584 0
M  V30 78 H 0.978485 1.038404 -1.969159 0
M  V30 79 H 1.775926 2.057952 -0.785730 0
M  V30 80 H -1.123512 2.168471 -1.827605 0
M  V30 81 H -0.046110 4.270594 0.063349 0
M  V30 82 H -1.717297 3.783057 -0.246911 0
M  V30 83 H -0.726364 2.853281 0.898540 0
M  V30 84 H 0.786470 3.133975 -3.099553 0
M  V30 85 H 1.158326 4.071068 -1.625817 0
M  V30 86 H -0.393694 4.397915 -2.408760 0
M  V30 87 H -0.002870 -2.138890 -0.671450 0
M  V30 88 H -1.222325 -2.699121 -2.497501 0
M  V30 89 H -2.305704 -4.495830 -1.883584 0
M  V30 90 H -0.877483 -4.338910 -0.936795 0
M  V30 91 H -4.741423 -4.411866 -0.771746 0
M  V30 92 H -3.858154 -5.718206 2.937481 0
M  V30 93 H -0.347404 -4.673524 1.900061 0
M  V30 94 H -1.226171 -5.950792 2.714534 0
M  V30 95 H -2.508601 -4.444338 4.112409 0
M  V30 96 H -0.776662 -4.361468 4.371056 0
M  V30 97 H -2.506248 -2.230150 2.976395 0
M  V30 98 H -1.889255 -2.311893 4.663328 0
M  V30 99 H -0.183856 -2.091638 2.145645 0
M  V30 100 H 0.445054 -2.195363 3.860444 0
M  V30 101 H 0.392211 0.130559 3.135790 0
M  V30 102 H -1.301025 -0.043939 2.591938 0
M  V30 103 H -0.388331 -0.385474 5.520291 0
M  V30 104 H -2.044848 -0.359805 4.933470 0
M  V30 105 H -3.194682 1.486667 4.730965 0
M  V30 106 H -3.371870 3.996499 4.751851 0
M  V30 107 H -1.342395 5.291143 4.805438 0
M  V30 108 H 0.829500 4.281812 4.842349 0
M  V30 109 H 0.777345 0.765135 7.267521 0
M  V30 110 H 2.461967 -0.509625 8.669982 0
M  V30 111 H 4.774707 -0.864394 7.841101 0
M  V30 112 H 5.393602 0.015228 5.686652 0
M  V30 113 H 3.836904 1.219170 4.342359 0
M  V30 114 H -2.183615 -0.065696 -2.877620 0
M  V30 115 H -5.111055 -0.350174 -3.135160 0
M  V30 116 H -5.086311 1.998417 -3.204870 0
M  V30 117 H -3.322823 2.108603 -2.930144 0
M  V30 118 H -4.639815 0.583367 -0.967849 0
M  V30 119 H -2.054227 -0.849025 -4.851954 0
M  V30 120 H -3.600393 0.413437 -7.194527 0
M  V30 121 H -3.403064 -2.825094 -6.746931 0
M  V30 122 H -1.462927 -3.175377 -7.319904 0
M  V30 123 H -1.690103 1.706485 -6.825255 0
M  V30 124 H -0.178567 -0.187334 -5.823627 0
M  V30 125 H 0.320057 -0.469132 -7.573615 0
M  V30 126 H 0.513790 1.111441 -6.806186 0
M  V30 127 H -2.660288 3.884637 -7.542878 0
M  V30 128 H 0.097547 3.733374 -9.657862 0
M  V30 END ATOM
M  V30 BEGIN BOND
M  V30 1 1 1 2
M  V30 2 2 2 3
M  V30 3 1 2 4
M  V30 4 1 4 5
M  V30 5 1 5 6
M  V30 6 1 6 7
M  V30 7 1 7 8
M  V30 8 1 8 9
M  V30 9 2 9 10
M  V30 10 1 9 11
M  V30 11 1 11 12
M  V30 12 1 12 13
M  V30 13 1 13 14
M  V30 14 1 14 15
M  V30 15 1 14 16
M  V30 16 1 12 17
M  V30 17 2 17 18
M  V30 18 1 17 19
M  V30 19 1 19 20
M  V30 20 1 20 21
M  V30 21 1 21 22
M  V30 22 2 22 23
M  V30 23 1 23 24
M  V30 24 2 24 25
M  V30 25 1 25 26
M  V30 26 1 26 27
M  V30 27 1 27 28
M  V30 28 1 28 29
M  V30 29 1 29 30
M  V30 30 1 30 31
M  V30 31 1 31 32
M  V30 32 1 32 33
M  V30 33 2 33 34
M  V30 34 1 34 35
M  V30 35 2 35 36
M  V30 36 1 36 37
M  V30 37 2 37 38
M  V30 38 1 38 39
M  V30 39 1 39 40
M  V30 40 2 40 41
M  V30 41 1 41 42
M  V30 42 2 42 43
M  V30 43 1 43 44
M  V30 44 2 44 45
M  V30 45 1 20 46
M  V30 46 2 46 47
M  V30 47 1 46 48
M  V30 48 1 48 49
M  V30 49 1 49 50
M  V30 50 1 50 51
M  V30 51 1 49 52
M  V30 52 2 52 53
M  V30 53 1 52 54
M  V30 54 1 54 55
M  V30 55 1 55 56
M  V30 56 1 56 57
M  V30 57 2 56 58
M  V30 58 1 55 59
M  V30 59 1 59 60
M  V30 60 1 59 61
M  V30 61 1 61 62
M  V30 62 2 62 63
M  V30 63 1 62 64
M  V30 64 1 62 65
M  V30 65 1 8 4
M  V30 66 1 26 22
M  V30 67 1 38 33
M  V30 68 1 45 40
M  V30 69 1 1 66
M  V30 70 1 1 67
M  V30 71 1 1 68
M  V30 72 1 5 69
M  V30 73 1 5 70
M  V30 74 1 6 71
M  V30 75 1 6 72
M  V30 76 1 7 73
M  V30 77 1 7 74
M  V30 78 1 8 75 CFG=1
M  V30 79 1 11 76
M  V30 80 1 12 77 CFG=1
M  V30 81 1 13 78
M  V30 82 1 13 79
M  V30 83 1 14 80
M  V30 84 1 15 81
M  V30 85 1 15 82
M  V30 86 1 15 83
M  V30 87 1 16 84
M  V30 88 1 16 85
M  V30 89 1 16 86
M  V30 90 1 19 87
M  V30 91 1 20 88 CFG=3
M  V30 92 1 21 89
M  V30 93 1 21 90
M  V30 94 1 23 91
M  V30 95 1 25 92
M  V30 96 1 27 93
M  V30 97 1 27 94
M  V30 98 1 28 95
M  V30 99 1 28 96
M  V30 100 1 29 97
M  V30 101 1 29 98
M  V30 102 1 30 99
M  V30 103 1 30 100
M  V30 104 1 31 101
M  V30 105 1 31 102
M  V30 106 1 32 103
M  V30 107 1 32 104
M  V30 108 1 34 105
M  V30 109 1 35 106
M  V30 110 1 36 107
M  V30 111 1 37 108
M  V30 112 1 41 109
M  V30 113 1 42 110
M  V30 114 1 43 111
M  V30 115 1 44 112
M  V30 116 1 45 113
M  V30 117 1 48 114
M  V30 118 1 49 115 CFG=3
M  V30 119 1 50 116
M  V30 120 1 50 117
M  V30 121 1 51 118
M  V30 122 1 54 119
M  V30 123 1 55 120 CFG=3
M  V30 124 1 57 121
M  V30 125 1 57 122
M  V30 126 1 59 123 CFG=1
M  V30 127 1 60 124
M  V30 128 1 60 125
M  V30 129 1 60 126
M  V30 130 1 64 127
M  V30 131 1 65 128
M  V30 END BOND
M  V30 END CTAB
M  END
>  <Dataset>  (320) 
ChEMBL_Kinases

>  <Ligand_Instance>  (320) 
nan

>  <PDB_ID>  (320) 
nan

>  <Standardized_SMILES>  (320) 
CC(=O)N1CCC[C@H]1C(=O)N[C@@H](CC(C)C)C(=O)N[C@@H](Cc1cncn1CCCCCCc1ccccc1Oc1ccccc1)C(=O)N[C@@H](CO)C(=O)N[C@H](C(N)=O)[C@@H](C)OP(=O)(O)O

>  <Name>  (320) 
nan

>  <Pocket>  (320) 
nan

>  <ATP_Site>  (320) 
nan

>  <Peripheral>  (320) 
nan

>  <Num_H_Atoms_ProtBoundConf>  (320) 
nan

>  <Num_Resolved_Atoms>  (320) 
nan

>  <Num_Not_Resolved_Atoms>  (320) 
nan

$$$$
CHEMBL396536
     RDKit          3D

  0  0  0  0  0  0  0  0  0  0999 V3000
M  V30 BEGIN CTAB
M  V30 COUNTS 62 66 0 0 0
M  V30 BEGIN ATOM
M  V30 1 C 1.937678 4.207712 7.667495 0
M  V30 2 N 2.614562 2.917652 7.526768 0
M  V30 3 C 3.192820 2.258437 8.693045 0
M  V30 4 C 2.727862 2.273721 6.262135 0
M  V30 5 C 3.364987 1.054215 6.113245 0
M  V30 6 C 3.468627 0.431605 4.863635 0
M  V30 7 C 2.915849 1.060975 3.754416 0
M  V30 8 C 3.074960 0.332638 2.495532 0
M  V30 9 N 4.175118 -0.283726 1.993574 0
M  V30 10 N 3.901862 -0.830736 0.819334 0
M  V30 11 C 2.620609 -0.616120 0.470226 0
M  V30 12 C 2.099394 0.115512 1.523701 0
M  V30 13 C 0.686433 0.427853 1.279514 0
M  V30 14 C 0.449601 -0.209556 -0.042846 0
M  V30 15 C -0.694179 -0.280746 -0.843677 0
M  V30 16 C -0.740462 -0.929732 -2.076133 0
M  V30 17 C -2.048641 -0.899229 -2.784791 0
M  V30 18 N -2.879285 -2.025627 -2.430372 0
M  V30 19 C -4.133480 -1.966957 -3.118123 0 CFG=1
M  V30 20 C -3.970814 -1.984931 -4.619808 0
M  V30 21 C -3.129002 -3.110431 -5.086060 0
M  V30 22 C -2.953255 -4.266156 -4.179159 0 CFG=2
M  V30 23 C -2.964346 -5.589997 -4.960428 0
M  V30 24 C -3.807022 -4.346971 -2.973325 0
M  V30 25 C -4.844541 -3.292022 -2.806297 0
M  V30 26 C 0.409640 -1.538433 -2.534279 0
M  V30 27 C 1.564250 -1.482836 -1.756024 0
M  V30 28 C 1.583912 -0.833414 -0.538377 0
M  V30 29 C 2.279917 2.279099 3.905413 0
M  V30 30 C 2.181170 2.887021 5.138673 0
M  V30 31 H 0.937588 4.084656 7.168108 0
M  V30 32 H 1.749271 4.405598 8.730794 0
M  V30 33 H 2.481678 4.992318 7.129879 0
M  V30 34 H 4.267812 2.443716 8.813696 0
M  V30 35 H 2.706131 2.691735 9.599940 0
M  V30 36 H 2.942402 1.171274 8.726191 0
M  V30 37 H 3.801904 0.554736 6.983477 0
M  V30 38 H 3.988898 -0.533038 4.832554 0
M  V30 39 H 4.594495 -1.363268 0.235269 0
M  V30 40 H -0.020026 0.160420 2.044027 0
M  V30 41 H 0.556110 1.528353 1.094406 0
M  V30 42 H -1.575877 0.207425 -0.452363 0
M  V30 43 H -2.606356 0.020863 -2.514602 0
M  V30 44 H -1.837911 -0.855532 -3.867258 0
M  V30 45 H -3.080684 -1.969505 -1.407100 0
M  V30 46 H -4.793475 -1.139388 -2.827716 0
M  V30 47 H -3.555483 -1.020104 -4.950578 0
M  V30 48 H -4.988442 -2.045888 -5.067636 0
M  V30 49 H -3.589979 -3.515615 -6.036400 0
M  V30 50 H -2.146963 -2.690835 -5.458291 0
M  V30 51 H -1.884061 -4.208825 -3.809883 0
M  V30 52 H -2.325446 -5.422941 -5.867361 0
M  V30 53 H -3.992244 -5.908657 -5.216518 0
M  V30 54 H -2.421513 -6.334230 -4.341897 0
M  V30 55 H -3.218352 -4.358232 -2.007485 0
M  V30 56 H -4.366332 -5.329334 -3.014146 0
M  V30 57 H -5.188039 -3.287550 -1.759002 0
M  V30 58 H -5.710114 -3.409239 -3.500593 0
M  V30 59 H 0.354265 -2.030588 -3.480988 0
M  V30 60 H 2.472900 -1.963599 -2.117854 0
M  V30 61 H 1.880114 2.705683 3.020884 0
M  V30 62 H 1.682322 3.838529 5.245149 0
M  V30 END ATOM
M  V30 BEGIN BOND
M  V30 1 1 1 2
M  V30 2 1 2 3
M  V30 3 1 2 4
M  V30 4 2 4 5
M  V30 5 1 5 6
M  V30 6 2 6 7
M  V30 7 1 7 8
M  V30 8 2 8 9
M  V30 9 1 9 10
M  V30 10 1 10 11
M  V30 11 2 11 12
M  V30 12 1 12 13
M  V30 13 1 13 14
M  V30 14 2 14 15
M  V30 15 1 15 16
M  V30 16 1 16 17
M  V30 17 1 17 18
M  V30 18 1 18 19
M  V30 19 1 19 20
M  V30 20 1 20 21
M  V30 21 1 21 22
M  V30 22 1 22 23
M  V30 23 1 22 24
M  V30 24 1 24 25
M  V30 25 2 16 26
M  V30 26 1 26 27
M  V30 27 2 27 28
M  V30 28 1 7 29
M  V30 29 2 29 30
M  V30 30 1 30 4
M  V30 31 1 12 8
M  V30 32 1 28 14
M  V30 33 1 28 11
M  V30 34 1 25 19
M  V30 35 1 1 31
M  V30 36 1 1 32
M  V30 37 1 1 33
M  V30 38 1 3 34
M  V30 39 1 3 35
M  V30 40 1 3 36
M  V30 41 1 5 37
M  V30 42 1 6 38
M  V30 43 1 10 39
M  V30 44 1 13 40
M  V30 45 1 13 41
M  V30 46 1 15 42
M  V30 47 1 17 43
M  V30 48 1 17 44
M  V30 49 1 18 45
M  V30 50 1 19 46 CFG=3
M  V30 51 1 20 47
M  V30 52 1 20 48
M  V30 53 1 21 49
M  V30 54 1 21 50
M  V30 55 1 22 51 CFG=1
M  V30 56 1 23 52
M  V30 57 1 23 53
M  V30 58 1 23 54
M  V30 59 1 24 55
M  V30 60 1 24 56
M  V30 61 1 25 57
M  V30 62 1 25 58
M  V30 63 1 26 59
M  V30 64 1 27 60
M  V30 65 1 29 61
M  V30 66 1 30 62
M  V30 END BOND
M  V30 END CTAB
M  END
>  <Dataset>  (321) 
ChEMBL_Kinases

>  <Ligand_Instance>  (321) 
nan

>  <PDB_ID>  (321) 
nan

>  <Standardized_SMILES>  (321) 
CN(C)c1ccc(-c2n[nH]c3c2Cc2cc(CN[C@H]4CC[C@H](C)CC4)ccc2-3)cc1

>  <Name>  (321) 
nan

>  <Pocket>  (321) 
nan

>  <ATP_Site>  (321) 
nan

>  <Peripheral>  (321) 
nan

>  <Num_H_Atoms_ProtBoundConf>  (321) 
nan

>  <Num_Resolved_Atoms>  (321) 
nan

>  <Num_Not_Resolved_Atoms>  (321) 
nan

$$$$
CHEMBL396523
     RDKit          3D

  0  0  0  0  0  0  0  0  0  0999 V3000
M  V30 BEGIN CTAB
M  V30 COUNTS 40 43 0 0 0
M  V30 BEGIN ATOM
M  V30 1 O 5.607652 -2.990302 -2.226023 0
M  V30 2 C 4.627825 -2.306059 -1.819362 0
M  V30 3 O 4.435002 -2.099824 -3.169485 0
M  V30 4 C 4.088530 -1.983688 -0.502502 0
M  V30 5 C 4.833058 -2.556951 0.492552 0
M  V30 6 C 4.465971 -2.347945 1.795468 0
M  V30 7 C 3.364214 -1.572390 2.054778 0
M  V30 8 C 2.665041 -1.030171 1.003441 0
M  V30 9 C 2.973637 -1.195582 -0.317279 0
M  V30 10 N 2.274565 -0.665583 -1.404050 0
M  V30 11 C 1.115437 0.124103 -1.383811 0
M  V30 12 C 0.555313 0.559824 -2.580399 0
M  V30 13 C -0.575637 1.322235 -2.730782 0
M  V30 14 N -1.198486 1.679831 -1.583951 0
M  V30 15 C -0.676773 1.271048 -0.391353 0
M  V30 16 N -1.433086 1.700814 0.728443 0
M  V30 17 C -2.149521 0.885185 1.631724 0
M  V30 18 C -2.108218 -0.486404 1.644223 0
M  V30 19 C -2.834166 -1.250919 2.561751 0
M  V30 20 C -3.633239 -0.656095 3.505279 0
M  V30 21 N -4.451534 -1.002592 4.517647 0
M  V30 22 N -4.982287 0.048280 5.113734 0
M  V30 23 C -4.526482 1.154761 4.507494 0
M  V30 24 C -3.669611 0.731723 3.484828 0
M  V30 25 C -2.951007 1.478895 2.576859 0
M  V30 26 N 0.431447 0.527005 -0.310994 0
M  V30 27 H 3.730503 -2.550494 -3.750343 0
M  V30 28 H 5.705181 -3.174687 0.365671 0
M  V30 29 H 5.005873 -2.767847 2.644437 0
M  V30 30 H 3.076802 -1.411151 3.087243 0
M  V30 31 H 1.814796 -0.437078 1.294685 0
M  V30 32 H 2.659649 -0.888994 -2.353868 0
M  V30 33 H 1.027465 0.295235 -3.531592 0
M  V30 34 H -0.958998 1.629583 -3.684681 0
M  V30 35 H -1.408461 2.722454 0.821735 0
M  V30 36 H -1.493296 -1.005924 0.919303 0
M  V30 37 H -2.805440 -2.328760 2.577749 0
M  V30 38 H -4.623065 -2.013882 4.776717 0
M  V30 39 H -4.765562 2.184629 4.747543 0
M  V30 40 H -3.009615 2.559275 2.592997 0
M  V30 END ATOM
M  V30 BEGIN BOND
M  V30 1 2 1 2
M  V30 2 1 2 3
M  V30 3 1 2 4
M  V30 4 2 4 5
M  V30 5 1 5 6
M  V30 6 2 6 7
M  V30 7 1 7 8
M  V30 8 2 8 9
M  V30 9 1 9 10
M  V30 10 1 10 11
M  V30 11 2 11 12
M  V30 12 1 12 13
M  V30 13 2 13 14
M  V30 14 1 14 15
M  V30 15 1 15 16
M  V30 16 1 16 17
M  V30 17 2 17 18
M  V30 18 1 18 19
M  V30 19 2 19 20
M  V30 20 1 20 21
M  V30 21 1 21 22
M  V30 22 2 22 23
M  V30 23 1 23 24
M  V30 24 2 24 25
M  V30 25 2 15 26
M  V30 26 1 9 4
M  V30 27 1 26 11
M  V30 28 1 25 17
M  V30 29 1 24 20
M  V30 30 1 3 27
M  V30 31 1 5 28
M  V30 32 1 6 29
M  V30 33 1 7 30
M  V30 34 1 8 31
M  V30 35 1 10 32
M  V30 36 1 12 33
M  V30 37 1 13 34
M  V30 38 1 16 35
M  V30 39 1 18 36
M  V30 40 1 19 37
M  V30 41 1 21 38
M  V30 42 1 23 39
M  V30 43 1 25 40
M  V30 END BOND
M  V30 END CTAB
M  END
>  <Dataset>  (322) 
ChEMBL_Kinases

>  <Ligand_Instance>  (322) 
nan

>  <PDB_ID>  (322) 
nan

>  <Standardized_SMILES>  (322) 
O=C(O)c1ccccc1Nc1ccnc(Nc2ccc3[nH]ncc3c2)n1

>  <Name>  (322) 
nan

>  <Pocket>  (322) 
nan

>  <ATP_Site>  (322) 
nan

>  <Peripheral>  (322) 
nan

>  <Num_H_Atoms_ProtBoundConf>  (322) 
nan

>  <Num_Resolved_Atoms>  (322) 
nan

>  <Num_Not_Resolved_Atoms>  (322) 
nan

$$$$
CHEMBL396522
     RDKit          3D

  0  0  0  0  0  0  0  0  0  0999 V3000
M  V30 BEGIN CTAB
M  V30 COUNTS 47 51 0 0 0
M  V30 BEGIN ATOM
M  V30 1 C 0.248862 -6.430005 3.874090 0
M  V30 2 N -0.139150 -5.501669 2.823494 0
M  V30 3 C -1.342730 -5.468662 2.226065 0
M  V30 4 C -1.426390 -4.482815 1.264958 0
M  V30 5 C -0.177177 -3.875161 1.284877 0
M  V30 6 C 0.327331 -2.837250 0.551956 0
M  V30 7 C 1.628039 -2.433428 0.786685 0
M  V30 8 C 2.325053 -1.351565 0.103276 0
M  V30 9 O 2.917541 -1.800835 -0.920260 0
M  V30 10 N 2.268599 -0.024916 0.615922 0
M  V30 11 C 1.582477 0.494762 1.800983 0
M  V30 12 C 0.398951 1.287634 1.290269 0
M  V30 13 C 0.734063 1.862547 -0.036778 0
M  V30 14 C 1.893972 1.815840 -0.784465 0
M  V30 15 C 1.658387 2.527540 -1.958550 0
M  V30 16 N 0.389299 2.968111 -1.875894 0
M  V30 17 N -0.173554 2.582948 -0.742994 0
M  V30 18 C -1.518605 3.035925 -0.629007 0
M  V30 19 C -1.564232 4.315504 -0.093455 0
M  V30 20 C -2.773432 4.968312 0.112296 0
M  V30 21 C -3.929454 4.311227 -0.229825 0
M  V30 22 C -3.895461 3.039254 -0.762842 0
M  V30 23 C -2.694032 2.395052 -0.965416 0
M  V30 24 Cl -2.463159 0.790383 -1.627129 0
M  V30 25 C 2.975879 1.035012 -0.089724 0
M  V30 26 C 2.376100 -3.084257 1.747327 0
M  V30 27 Cl 4.047545 -2.629499 2.108963 0
M  V30 28 C 1.887185 -4.149425 2.513070 0
M  V30 29 C 0.567092 -4.527322 2.244974 0
M  V30 30 H 0.747616 -5.924374 4.723091 0
M  V30 31 H -0.648094 -6.922887 4.281590 0
M  V30 32 H 0.958055 -7.205804 3.510872 0
M  V30 33 H -2.200264 -6.110012 2.422025 0
M  V30 34 H -2.267944 -4.231822 0.634128 0
M  V30 35 H -0.208633 -2.308165 -0.195008 0
M  V30 36 H 2.237146 1.190232 2.366608 0
M  V30 37 H 1.294755 -0.299163 2.514803 0
M  V30 38 H 0.156872 2.083974 2.004951 0
M  V30 39 H -0.487925 0.596801 1.223174 0
M  V30 40 H 2.450411 2.605619 -2.676756 0
M  V30 41 H -0.708461 4.928521 0.213047 0
M  V30 42 H -2.884101 5.949391 0.518614 0
M  V30 43 H -4.911404 4.776504 -0.090006 0
M  V30 44 H -4.762589 2.459870 -1.055841 0
M  V30 45 H 3.511701 1.691423 0.630939 0
M  V30 46 H 3.693094 0.587570 -0.798261 0
M  V30 47 H 2.490856 -4.645191 3.260758 0
M  V30 END ATOM
M  V30 BEGIN BOND
M  V30 1 1 1 2
M  V30 2 1 2 3
M  V30 3 2 3 4
M  V30 4 1 4 5
M  V30 5 2 5 6
M  V30 6 1 6 7
M  V30 7 1 7 8
M  V30 8 2 8 9
M  V30 9 1 8 10
M  V30 10 1 10 11
M  V30 11 1 11 12
M  V30 12 1 12 13
M  V30 13 2 13 14
M  V30 14 1 14 15
M  V30 15 2 15 16
M  V30 16 1 16 17
M  V30 17 1 17 18
M  V30 18 2 18 19
M  V30 19 1 19 20
M  V30 20 2 20 21
M  V30 21 1 21 22
M  V30 22 2 22 23
M  V30 23 1 23 24
M  V30 24 1 14 25
M  V30 25 2 7 26
M  V30 26 1 26 27
M  V30 27 1 26 28
M  V30 28 2 28 29
M  V30 29 1 29 2
M  V30 30 1 29 5
M  V30 31 1 25 10
M  V30 32 1 17 13
M  V30 33 1 23 18
M  V30 34 1 1 30
M  V30 35 1 1 31
M  V30 36 1 1 32
M  V30 37 1 3 33
M  V30 38 1 4 34
M  V30 39 1 6 35
M  V30 40 1 11 36
M  V30 41 1 11 37
M  V30 42 1 12 38
M  V30 43 1 12 39
M  V30 44 1 15 40
M  V30 45 1 19 41
M  V30 46 1 20 42
M  V30 47 1 21 43
M  V30 48 1 22 44
M  V30 49 1 25 45
M  V30 50 1 25 46
M  V30 51 1 28 47
M  V30 END BOND
M  V30 END CTAB
M  END
>  <Dataset>  (323) 
ChEMBL_Kinases

>  <Ligand_Instance>  (323) 
nan

>  <PDB_ID>  (323) 
nan

>  <Standardized_SMILES>  (323) 
Cn1ccc2cc(C(=O)N3CCc4c(cnn4-c4ccccc4Cl)C3)c(Cl)cc21

>  <Name>  (323) 
nan

>  <Pocket>  (323) 
nan

>  <ATP_Site>  (323) 
nan

>  <Peripheral>  (323) 
nan

>  <Num_H_Atoms_ProtBoundConf>  (323) 
nan

>  <Num_Resolved_Atoms>  (323) 
nan

>  <Num_Not_Resolved_Atoms>  (323) 
nan

$$$$
CHEMBL3966216
     RDKit          3D

  0  0  0  0  0  0  0  0  0  0999 V3000
M  V30 BEGIN CTAB
M  V30 COUNTS 56 60 0 0 0
M  V30 BEGIN ATOM
M  V30 1 O -0.973921 -3.229511 -4.553338 0
M  V30 2 C -1.410823 -2.761219 -3.462882 0
M  V30 3 N -2.525691 -3.026138 -2.787126 0
M  V30 4 N -2.518487 -2.278637 -1.714456 0
M  V30 5 C -1.392831 -1.534735 -1.712462 0
M  V30 6 C -1.309542 -0.643883 -0.506629 0 CFG=2
M  V30 7 C -2.103232 0.607632 -0.777332 0
M  V30 8 C -2.140136 1.569589 0.335795 0
M  V30 9 C -3.230237 1.495823 1.214394 0
M  V30 10 C -3.501974 2.292146 2.289676 0
M  V30 11 C -2.598217 3.287800 2.543138 0
M  V30 12 C -1.520615 3.395380 1.711578 0
M  V30 13 N -0.547593 4.428163 1.921797 0
M  V30 14 C 0.699307 4.685264 1.253824 0
M  V30 15 C 1.777361 4.206983 2.003064 0
M  V30 16 C 2.938679 4.489782 1.285559 0
M  V30 17 N 2.534206 5.105911 0.167305 0
M  V30 18 N 1.200441 5.226884 0.140976 0
M  V30 19 N -1.318106 2.582693 0.679234 0
M  V30 20 C 0.151321 -0.201155 -0.478091 0
M  V30 21 C 1.075016 -1.300447 -0.103439 0
M  V30 22 C 0.427375 -2.552441 0.390462 0 CFG=1
M  V30 23 O 1.341767 -3.273378 1.160313 0
M  V30 24 C 1.746480 -4.564406 0.995108 0
M  V30 25 C 1.296253 -5.410254 0.006018 0
M  V30 26 C 1.720145 -6.717655 -0.141893 0
M  V30 27 C 2.660798 -7.201519 0.770530 0
M  V30 28 C 3.110928 -6.354648 1.760020 0
M  V30 29 Cl 4.294353 -7.061280 2.863691 0
M  V30 30 C 2.674812 -5.034859 1.897938 0
M  V30 31 F 3.213265 -4.329657 2.925478 0
M  V30 32 C -0.683797 -2.166344 1.377425 0
M  V30 33 C -1.737981 -1.291821 0.742918 0
M  V30 34 O -0.736325 -1.845881 -2.784896 0
M  V30 35 H -3.245786 -3.725141 -3.116103 0
M  V30 36 H -1.732387 1.136432 -1.698374 0
M  V30 37 H -3.173285 0.359144 -1.039151 0
M  V30 38 H -3.974141 0.710881 1.039650 0
M  V30 39 H -4.370394 2.148349 2.897432 0
M  V30 40 H -2.706928 3.977236 3.363591 0
M  V30 41 H -0.736621 5.126354 2.668875 0
M  V30 42 H 1.938761 3.695792 2.955565 0
M  V30 43 H 3.988217 4.317379 1.458722 0
M  V30 44 H 2.990536 5.516373 -0.686773 0
M  V30 45 H 0.229450 0.628983 0.238219 0
M  V30 46 H 0.346955 0.231289 -1.491803 0
M  V30 47 H 1.644532 -1.575124 -1.037703 0
M  V30 48 H 1.866208 -0.982508 0.606805 0
M  V30 49 H 0.003466 -3.114217 -0.463715 0
M  V30 50 H 0.574338 -5.056080 -0.704492 0
M  V30 51 H 1.318180 -7.325921 -0.944058 0
M  V30 52 H 2.980104 -8.217055 0.640511 0
M  V30 53 H -1.106833 -3.118625 1.747755 0
M  V30 54 H -0.166735 -1.661883 2.219401 0
M  V30 55 H -2.024009 -0.561847 1.522959 0
M  V30 56 H -2.633121 -1.909855 0.531833 0
M  V30 END ATOM
M  V30 BEGIN BOND
M  V30 1 2 1 2
M  V30 2 1 2 3
M  V30 3 1 3 4
M  V30 4 2 4 5
M  V30 5 1 5 6
M  V30 6 1 6 7 CFG=3
M  V30 7 1 7 8
M  V30 8 2 8 9
M  V30 9 1 9 10
M  V30 10 2 10 11
M  V30 11 1 11 12
M  V30 12 1 12 13
M  V30 13 1 13 14
M  V30 14 1 14 15
M  V30 15 2 15 16
M  V30 16 1 16 17
M  V30 17 1 17 18
M  V30 18 2 12 19
M  V30 19 1 6 20
M  V30 20 1 20 21
M  V30 21 1 21 22
M  V30 22 1 22 23
M  V30 23 1 23 24
M  V30 24 2 24 25
M  V30 25 1 25 26
M  V30 26 2 26 27
M  V30 27 1 27 28
M  V30 28 1 28 29
M  V30 29 2 28 30
M  V30 30 1 30 31
M  V30 31 1 22 32
M  V30 32 1 32 33
M  V30 33 1 5 34
M  V30 34 1 34 2
M  V30 35 1 33 6
M  V30 36 1 19 8
M  V30 37 1 30 24
M  V30 38 2 18 14
M  V30 39 1 3 35
M  V30 40 1 7 36
M  V30 41 1 7 37
M  V30 42 1 9 38
M  V30 43 1 10 39
M  V30 44 1 11 40
M  V30 45 1 13 41
M  V30 46 1 15 42
M  V30 47 1 16 43
M  V30 48 1 17 44
M  V30 49 1 20 45
M  V30 50 1 20 46
M  V30 51 1 21 47
M  V30 52 1 21 48
M  V30 53 1 22 49 CFG=3
M  V30 54 1 25 50
M  V30 55 1 26 51
M  V30 56 1 27 52
M  V30 57 1 32 53
M  V30 58 1 32 54
M  V30 59 1 33 55
M  V30 60 1 33 56
M  V30 END BOND
M  V30 END CTAB
M  END
>  <Dataset>  (324) 
ChEMBL_Kinases

>  <Ligand_Instance>  (324) 
nan

>  <PDB_ID>  (324) 
nan

>  <Standardized_SMILES>  (324) 
O=c1[nH]nc([C@]2(Cc3cccc(Nc4cc[nH]n4)n3)CC[C@@H](Oc3cccc(Cl)c3F)CC2)o1

>  <Name>  (324) 
nan

>  <Pocket>  (324) 
nan

>  <ATP_Site>  (324) 
nan

>  <Peripheral>  (324) 
nan

>  <Num_H_Atoms_ProtBoundConf>  (324) 
nan

>  <Num_Resolved_Atoms>  (324) 
nan

>  <Num_Not_Resolved_Atoms>  (324) 
nan

$$$$
CHEMBL396159
     RDKit          3D

  0  0  0  0  0  0  0  0  0  0999 V3000
M  V30 BEGIN CTAB
M  V30 COUNTS 44 47 0 0 0
M  V30 BEGIN ATOM
M  V30 1 C 4.385897 -6.415632 -1.895557 0
M  V30 2 N 3.687204 -5.169578 -2.046384 0
M  V30 3 C 3.429110 -4.513630 -3.274694 0
M  V30 4 O 3.881540 -5.139440 -4.262054 0
M  V30 5 C 2.712155 -3.251968 -3.327900 0
M  V30 6 C 2.444899 -2.570511 -4.613285 0
M  V30 7 S 1.509899 -1.038573 -4.003144 0
M  V30 8 C 1.648649 -1.562959 -2.313387 0
M  V30 9 N 1.104938 -0.809035 -1.138373 0
M  V30 10 C 1.907860 0.143006 -0.494469 0
M  V30 11 O 3.079632 0.415568 -0.841232 0
M  V30 12 C 1.395909 0.888560 0.652995 0
M  V30 13 C 2.201891 1.830336 1.283170 0
M  V30 14 C 1.794795 2.576133 2.371777 0
M  V30 15 C 0.519270 2.382543 2.868179 0
M  V30 16 N -0.175759 2.925240 3.885234 0
M  V30 17 C -1.403171 2.381980 3.951747 0
M  V30 18 C -1.539234 1.444390 2.948579 0
M  V30 19 C -0.313709 1.455990 2.270765 0
M  V30 20 C 0.131519 0.729546 1.182944 0
M  V30 21 C -2.756488 0.642491 2.711507 0
M  V30 22 C -3.633574 1.454147 1.756816 0
M  V30 23 C -3.489165 0.507324 4.030954 0
M  V30 24 N -3.733368 1.818296 4.616601 0
M  V30 25 C -2.551949 2.605094 4.856567 0
M  V30 26 O -2.448493 3.450265 5.771672 0
M  V30 27 N 2.244091 -2.610715 -2.269456 0
M  V30 28 H 5.437069 -6.256326 -1.530043 0
M  V30 29 H 4.461904 -6.932487 -2.856674 0
M  V30 30 H 3.914937 -7.061165 -1.134083 0
M  V30 31 H 3.336411 -4.705218 -1.155723 0
M  V30 32 H 2.848280 -3.105600 -5.630597 0
M  V30 33 H 0.150442 -1.042997 -0.869662 0
M  V30 34 H 3.202323 2.018339 0.935480 0
M  V30 35 H 2.429676 3.305919 2.854280 0
M  V30 36 H 0.148013 3.659889 4.548796 0
M  V30 37 H -0.524392 0.019876 0.735468 0
M  V30 38 H -2.554106 -0.352547 2.308504 0
M  V30 39 H -3.389100 1.215409 0.687633 0
M  V30 40 H -3.434591 2.557185 1.856995 0
M  V30 41 H -4.713650 1.335006 1.969449 0
M  V30 42 H -4.453079 -0.052749 3.898330 0
M  V30 43 H -2.848593 -0.126321 4.685650 0
M  V30 44 H -4.648009 2.284099 4.894211 0
M  V30 END ATOM
M  V30 BEGIN BOND
M  V30 1 1 1 2
M  V30 2 1 2 3
M  V30 3 2 3 4
M  V30 4 1 3 5
M  V30 5 2 5 6
M  V30 6 1 6 7
M  V30 7 1 7 8
M  V30 8 1 8 9
M  V30 9 1 9 10
M  V30 10 2 10 11
M  V30 11 1 10 12
M  V30 12 2 12 13
M  V30 13 1 13 14
M  V30 14 2 14 15
M  V30 15 1 15 16
M  V30 16 1 16 17
M  V30 17 2 17 18
M  V30 18 1 18 19
M  V30 19 2 19 20
M  V30 20 1 18 21
M  V30 21 1 21 22
M  V30 22 1 21 23
M  V30 23 1 23 24
M  V30 24 1 24 25
M  V30 25 2 25 26
M  V30 26 2 8 27
M  V30 27 1 27 5
M  V30 28 1 20 12
M  V30 29 1 19 15
M  V30 30 1 25 17
M  V30 31 1 1 28
M  V30 32 1 1 29
M  V30 33 1 1 30
M  V30 34 1 2 31
M  V30 35 1 6 32
M  V30 36 1 9 33
M  V30 37 1 13 34
M  V30 38 1 14 35
M  V30 39 1 16 36
M  V30 40 1 20 37
M  V30 41 1 21 38
M  V30 42 1 22 39
M  V30 43 1 22 40
M  V30 44 1 22 41
M  V30 45 1 23 42
M  V30 46 1 23 43
M  V30 47 1 24 44
M  V30 END BOND
M  V30 END CTAB
M  END
>  <Dataset>  (325) 
ChEMBL_Kinases

>  <Ligand_Instance>  (325) 
nan

>  <PDB_ID>  (325) 
nan

>  <Standardized_SMILES>  (325) 
CNC(=O)c1csc(NC(=O)c2ccc3[nH]c4c(c3c2)C(C)CNC4=O)n1

>  <Name>  (325) 
nan

>  <Pocket>  (325) 
nan

>  <ATP_Site>  (325) 
nan

>  <Peripheral>  (325) 
nan

>  <Num_H_Atoms_ProtBoundConf>  (325) 
nan

>  <Num_Resolved_Atoms>  (325) 
nan

>  <Num_Not_Resolved_Atoms>  (325) 
nan

$$$$
CHEMBL3961522
     RDKit          3D

  0  0  0  0  0  0  0  0  0  0999 V3000
M  V30 BEGIN CTAB
M  V30 COUNTS 47 50 0 0 0
M  V30 BEGIN ATOM
M  V30 1 C 0.960879 3.825625 -0.937324 0
M  V30 2 N 2.042336 3.479043 -0.045877 0
M  V30 3 C 3.421119 3.384503 -0.389122 0
M  V30 4 C 4.363315 4.398273 -0.339003 0
M  V30 5 C 5.662642 4.122149 -0.711844 0
M  V30 6 C 6.059652 2.868673 -1.134398 0
M  V30 7 Cl 7.745030 2.597597 -1.595023 0
M  V30 8 C 5.133812 1.854119 -1.188501 0
M  V30 9 C 3.825557 2.134043 -0.812593 0
M  V30 10 S 1.521408 3.165495 1.571984 0
M  V30 11 O 2.690703 2.913228 2.462850 0
M  V30 12 O 0.739612 4.362113 2.020457 0
M  V30 13 C 0.423922 1.798309 1.558966 0
M  V30 14 C 1.068218 0.566121 1.719445 0
M  V30 15 C 0.326368 -0.600676 1.728914 0
M  V30 16 C -1.045811 -0.550834 1.580545 0
M  V30 17 C -1.855506 -1.765296 1.586444 0
M  V30 18 N -1.360529 -3.014085 1.732373 0
M  V30 19 C -2.347515 -3.916951 1.696192 0
M  V30 20 C -2.299447 -5.292806 1.804580 0
M  V30 21 C -3.465050 -6.036619 1.737639 0
M  V30 22 C -3.557595 -7.497860 1.837625 0
M  V30 23 N -2.302037 -8.144111 2.018459 0
M  V30 24 O -4.628273 -8.156417 1.774261 0
M  V30 25 C -4.642118 -5.332250 1.560733 0
M  V30 26 C -4.698852 -3.952398 1.451130 0
M  V30 27 C -3.529732 -3.226427 1.519783 0
M  V30 28 N -3.170494 -1.930782 1.460330 0
M  V30 29 C -1.680894 0.679751 1.421158 0
M  V30 30 C -0.946814 1.853085 1.410378 0
M  V30 31 H 0.628279 4.883263 -0.796060 0
M  V30 32 H 1.335142 3.789451 -1.984456 0
M  V30 33 H 0.101938 3.140113 -0.855089 0
M  V30 34 H 3.995454 5.353384 -0.001952 0
M  V30 35 H 6.352819 4.950252 -0.652555 0
M  V30 36 H 5.443155 0.887869 -1.514997 0
M  V30 37 H 3.152608 1.278362 -0.883131 0
M  V30 38 H 2.138450 0.435104 1.842088 0
M  V30 39 H 0.809633 -1.572484 1.852859 0
M  V30 40 H -1.397412 -5.874595 1.943302 0
M  V30 41 H -1.665846 -8.448823 1.224506 0
M  V30 42 H -1.609487 -8.515617 2.704038 0
M  V30 43 H -5.574616 -5.876201 1.503344 0
M  V30 44 H -5.619171 -3.407679 1.313259 0
M  V30 45 H -3.843156 -1.144203 1.330395 0
M  V30 46 H -2.753647 0.747449 1.303005 0
M  V30 47 H -1.357961 2.845468 1.292482 0
M  V30 END ATOM
M  V30 BEGIN BOND
M  V30 1 1 1 2
M  V30 2 1 2 3
M  V30 3 2 3 4
M  V30 4 1 4 5
M  V30 5 2 5 6
M  V30 6 1 6 7
M  V30 7 1 6 8
M  V30 8 2 8 9
M  V30 9 1 2 10
M  V30 10 2 10 11
M  V30 11 2 10 12
M  V30 12 1 10 13
M  V30 13 2 13 14
M  V30 14 1 14 15
M  V30 15 2 15 16
M  V30 16 1 16 17
M  V30 17 2 17 18
M  V30 18 1 18 19
M  V30 19 2 19 20
M  V30 20 1 20 21
M  V30 21 1 21 22
M  V30 22 1 22 23
M  V30 23 2 22 24
M  V30 24 2 21 25
M  V30 25 1 25 26
M  V30 26 2 26 27
M  V30 27 1 27 28
M  V30 28 1 16 29
M  V30 29 2 29 30
M  V30 30 1 9 3
M  V30 31 1 30 13
M  V30 32 1 28 17
M  V30 33 1 27 19
M  V30 34 1 1 31
M  V30 35 1 1 32
M  V30 36 1 1 33
M  V30 37 1 4 34
M  V30 38 1 5 35
M  V30 39 1 8 36
M  V30 40 1 9 37
M  V30 41 1 14 38
M  V30 42 1 15 39
M  V30 43 1 20 40
M  V30 44 1 23 41
M  V30 45 1 23 42
M  V30 46 1 25 43
M  V30 47 1 26 44
M  V30 48 1 28 45
M  V30 49 1 29 46
M  V30 50 1 30 47
M  V30 END BOND
M  V30 END CTAB
M  END
>  <Dataset>  (326) 
ChEMBL_Kinases

>  <Ligand_Instance>  (326) 
nan

>  <PDB_ID>  (326) 
nan

>  <Standardized_SMILES>  (326) 
CN(c1ccc(Cl)cc1)S(=O)(=O)c1ccc(-c2nc3cc(C(N)=O)ccc3[nH]2)cc1

>  <Name>  (326) 
nan

>  <Pocket>  (326) 
nan

>  <ATP_Site>  (326) 
nan

>  <Peripheral>  (326) 
nan

>  <Num_H_Atoms_ProtBoundConf>  (326) 
nan

>  <Num_Resolved_Atoms>  (326) 
nan

>  <Num_Not_Resolved_Atoms>  (326) 
nan

$$$$
CHEMBL3961481
     RDKit          3D

  0  0  0  0  0  0  0  0  0  0999 V3000
M  V30 BEGIN CTAB
M  V30 COUNTS 43 46 0 0 0
M  V30 BEGIN ATOM
M  V30 1 C 0.872897 -5.291014 3.095970 0
M  V30 2 C 1.173781 -4.247430 2.041396 0
M  V30 3 C 2.400540 -4.311495 1.405862 0
M  V30 4 C 2.567274 -3.319272 0.474046 0
M  V30 5 C 1.550132 -2.424110 0.289148 0
M  V30 6 C 0.334690 -2.382892 0.935782 0
M  V30 7 C -0.525256 -1.317382 0.484359 0
M  V30 8 C -0.058819 -0.251423 -0.287988 0
M  V30 9 C -0.804448 0.796522 -0.768832 0
M  V30 10 N -0.133724 1.817230 -1.540403 0
M  V30 11 C 0.996717 2.234323 -0.744123 0
M  V30 12 N 2.325636 2.196504 -1.006303 0
M  V30 13 N 3.018392 2.666862 0.010322 0
M  V30 14 C 4.480014 2.770609 0.069740 0
M  V30 15 C 2.208711 3.049757 1.017583 0
M  V30 16 C 0.925786 2.775608 0.539035 0
M  V30 17 C -0.362488 2.999827 1.261590 0
M  V30 18 N -2.124838 0.816271 -0.474781 0
M  V30 19 C -2.657634 -0.170391 0.263113 0
M  V30 20 N -3.934621 -0.300425 0.637115 0
M  V30 21 C -3.995774 -1.450065 1.365718 0
M  V30 22 C -2.724250 -2.002769 1.416030 0
M  V30 23 C -2.539089 -3.224471 2.109718 0
M  V30 24 N -2.406603 -4.243022 2.690198 0
M  V30 25 C -1.868080 -1.197445 0.720463 0
M  V30 26 N 0.227567 -3.345229 1.809866 0
M  V30 27 H 1.697532 -6.039094 3.060415 0
M  V30 28 H 0.883048 -4.738062 4.066042 0
M  V30 29 H -0.110939 -5.734867 2.914673 0
M  V30 30 H 3.125378 -5.070933 1.640786 0
M  V30 31 H 3.518750 -3.334713 -0.041623 0
M  V30 32 H 1.863826 -1.731029 -0.494098 0
M  V30 33 H 0.970084 -0.141759 -0.572343 0
M  V30 34 H -0.289988 2.256974 -2.468706 0
M  V30 35 H 4.920111 1.750667 0.168126 0
M  V30 36 H 4.903857 3.308103 -0.785541 0
M  V30 37 H 4.783838 3.307452 0.980958 0
M  V30 38 H 2.403633 3.473211 1.995179 0
M  V30 39 H -0.177643 3.698737 2.096033 0
M  V30 40 H -1.139157 3.376096 0.577043 0
M  V30 41 H -0.667228 2.020015 1.737724 0
M  V30 42 H -4.733681 0.353206 0.417662 0
M  V30 43 H -4.922967 -1.778065 1.781839 0
M  V30 END ATOM
M  V30 BEGIN BOND
M  V30 1 1 1 2
M  V30 2 2 2 3
M  V30 3 1 3 4
M  V30 4 2 4 5
M  V30 5 1 5 6
M  V30 6 1 6 7
M  V30 7 2 7 8
M  V30 8 1 8 9
M  V30 9 1 9 10
M  V30 10 1 10 11
M  V30 11 2 11 12
M  V30 12 1 12 13
M  V30 13 1 13 14
M  V30 14 1 13 15
M  V30 15 2 15 16
M  V30 16 1 16 17
M  V30 17 2 9 18
M  V30 18 1 18 19
M  V30 19 1 19 20
M  V30 20 1 20 21
M  V30 21 2 21 22
M  V30 22 1 22 23
M  V30 23 3 23 24
M  V30 24 1 22 25
M  V30 25 2 6 26
M  V30 26 1 26 2
M  V30 27 1 25 7
M  V30 28 1 16 11
M  V30 29 2 25 19
M  V30 30 1 1 27
M  V30 31 1 1 28
M  V30 32 1 1 29
M  V30 33 1 3 30
M  V30 34 1 4 31
M  V30 35 1 5 32
M  V30 36 1 8 33
M  V30 37 1 10 34
M  V30 38 1 14 35
M  V30 39 1 14 36
M  V30 40 1 14 37
M  V30 41 1 15 38
M  V30 42 1 17 39
M  V30 43 1 17 40
M  V30 44 1 17 41
M  V30 45 1 20 42
M  V30 46 1 21 43
M  V30 END BOND
M  V30 END CTAB
M  END
>  <Dataset>  (327) 
ChEMBL_Kinases

>  <Ligand_Instance>  (327) 
nan

>  <PDB_ID>  (327) 
nan

>  <Standardized_SMILES>  (327) 
Cc1cccc(-c2cc(Nc3nn(C)cc3C)nc3[nH]cc(C#N)c23)n1

>  <Name>  (327) 
nan

>  <Pocket>  (327) 
nan

>  <ATP_Site>  (327) 
nan

>  <Peripheral>  (327) 
nan

>  <Num_H_Atoms_ProtBoundConf>  (327) 
nan

>  <Num_Resolved_Atoms>  (327) 
nan

>  <Num_Not_Resolved_Atoms>  (327) 
nan

$$$$
CHEMBL3961387
     RDKit          3D

  0  0  0  0  0  0  0  0  0  0999 V3000
M  V30 BEGIN CTAB
M  V30 COUNTS 42 45 0 0 0
M  V30 BEGIN ATOM
M  V30 1 C 1.310450 -8.097342 -0.963356 0
M  V30 2 C 0.953814 -6.725355 -1.395798 0
M  V30 3 C -0.331883 -6.317276 -1.207299 0
M  V30 4 C -0.676977 -5.044521 -1.604634 0
M  V30 5 C 0.195244 -4.144136 -2.185835 0
M  V30 6 O -0.216442 -2.860876 -2.569315 0
M  V30 7 C -0.131994 -1.789004 -1.671869 0
M  V30 8 C -0.559969 -0.558931 -2.134343 0
M  V30 9 C -0.512020 0.571470 -1.304763 0
M  V30 10 C -0.022423 0.387098 -0.025781 0
M  V30 11 C 0.049260 1.532949 0.880682 0
M  V30 12 N 0.494316 1.532473 2.145966 0
M  V30 13 C 0.419255 2.762427 2.686714 0
M  V30 14 C 0.774116 3.181614 3.952851 0
M  V30 15 C 0.599930 4.511506 4.273007 0
M  V30 16 C 0.951049 5.030606 5.589798 0
M  V30 17 N 1.488724 4.117178 6.558782 0
M  V30 18 O 0.774612 6.265792 5.845385 0
M  V30 19 C 0.080178 5.356662 3.313264 0
M  V30 20 C -0.267439 4.909358 2.050487 0
M  V30 21 C -0.102414 3.571276 1.699253 0
M  V30 22 N -0.321738 2.796627 0.600573 0
M  V30 23 C 0.401889 -0.848716 0.422755 0
M  V30 24 N 0.347130 -1.936553 -0.400085 0
M  V30 25 C 1.497965 -4.574440 -2.370354 0
M  V30 26 C 1.862084 -5.848540 -1.977615 0
M  V30 27 H 2.399800 -8.222081 -1.128670 0
M  V30 28 H 0.725095 -8.853237 -1.534858 0
M  V30 29 H 1.080330 -8.259131 0.107833 0
M  V30 30 H -1.109972 -6.950523 -0.754270 0
M  V30 31 H -1.691344 -4.727916 -1.453845 0
M  V30 32 H -0.947000 -0.392384 -3.132628 0
M  V30 33 H -0.853675 1.525219 -1.691265 0
M  V30 34 H 1.182348 2.471804 4.678479 0
M  V30 35 H 1.077644 3.394220 7.217041 0
M  V30 36 H 2.494076 4.420204 6.391080 0
M  V30 37 H -0.046854 6.395915 3.589289 0
M  V30 38 H -0.676165 5.569914 1.293266 0
M  V30 39 H -0.717569 3.185628 -0.286510 0
M  V30 40 H 0.784609 -0.959954 1.442690 0
M  V30 41 H 2.239244 -3.922058 -2.820857 0
M  V30 42 H 2.867605 -6.249511 -2.093532 0
M  V30 END ATOM
M  V30 BEGIN BOND
M  V30 1 1 1 2
M  V30 2 2 2 3
M  V30 3 1 3 4
M  V30 4 2 4 5
M  V30 5 1 5 6
M  V30 6 1 6 7
M  V30 7 2 7 8
M  V30 8 1 8 9
M  V30 9 2 9 10
M  V30 10 1 10 11
M  V30 11 2 11 12
M  V30 12 1 12 13
M  V30 13 2 13 14
M  V30 14 1 14 15
M  V30 15 1 15 16
M  V30 16 1 16 17
M  V30 17 2 16 18
M  V30 18 2 15 19
M  V30 19 1 19 20
M  V30 20 2 20 21
M  V30 21 1 21 22
M  V30 22 1 10 23
M  V30 23 2 23 24
M  V30 24 1 5 25
M  V30 25 2 25 26
M  V30 26 1 26 2
M  V30 27 1 24 7
M  V30 28 1 22 11
M  V30 29 1 21 13
M  V30 30 1 1 27
M  V30 31 1 1 28
M  V30 32 1 1 29
M  V30 33 1 3 30
M  V30 34 1 4 31
M  V30 35 1 8 32
M  V30 36 1 9 33
M  V30 37 1 14 34
M  V30 38 1 17 35
M  V30 39 1 17 36
M  V30 40 1 19 37
M  V30 41 1 20 38
M  V30 42 1 22 39
M  V30 43 1 23 40
M  V30 44 1 25 41
M  V30 45 1 26 42
M  V30 END BOND
M  V30 END CTAB
M  END
>  <Dataset>  (328) 
ChEMBL_Kinases

>  <Ligand_Instance>  (328) 
nan

>  <PDB_ID>  (328) 
nan

>  <Standardized_SMILES>  (328) 
Cc1ccc(Oc2ccc(-c3nc4cc(C(N)=O)ccc4[nH]3)cn2)cc1

>  <Name>  (328) 
nan

>  <Pocket>  (328) 
nan

>  <ATP_Site>  (328) 
nan

>  <Peripheral>  (328) 
nan

>  <Num_H_Atoms_ProtBoundConf>  (328) 
nan

>  <Num_Resolved_Atoms>  (328) 
nan

>  <Num_Not_Resolved_Atoms>  (328) 
nan

$$$$
CHEMBL3961252
     RDKit          3D

  0  0  0  0  0  0  0  0  0  0999 V3000
M  V30 BEGIN CTAB
M  V30 COUNTS 49 52 0 0 0
M  V30 BEGIN ATOM
M  V30 1 O 2.220166 -1.730637 2.630948 0
M  V30 2 C 1.060194 -1.388761 2.857021 0
M  V30 3 C 0.392031 -0.743657 1.675333 0
M  V30 4 C -0.680824 -0.217977 1.105878 0
M  V30 5 C -0.845647 0.344324 -0.214913 0
M  V30 6 C -2.223487 0.641879 -0.367894 0
M  V30 7 N -2.485888 1.222948 -1.552755 0
M  V30 8 C -1.607847 1.506850 -2.494924 0
M  V30 9 N -1.525303 2.075769 -3.745246 0
M  V30 10 C -0.340984 2.128787 -4.273309 0
M  V30 11 C 0.530236 1.574052 -3.388367 0
M  V30 12 C 1.965443 1.466969 -3.566851 0
M  V30 13 C 2.640080 1.028684 -4.654035 0
M  V30 14 C 4.006849 1.027370 -4.523838 0
M  V30 15 C 4.788030 1.404633 -3.462583 0
M  V30 16 C 4.036017 1.849944 -2.381419 0
M  V30 17 C 2.630873 1.880045 -2.436018 0
M  V30 18 C -0.251202 1.200729 -2.323108 0
M  V30 19 C 0.191645 0.582136 -1.134738 0
M  V30 20 N 0.756623 -1.719451 4.166242 0
M  V30 21 C 0.463599 -2.051651 5.469816 0
M  V30 22 C -1.012456 -1.858220 5.839654 0
M  V30 23 C -1.807635 -2.801213 4.941122 0
M  V30 24 C -1.677358 -4.078655 5.429675 0
M  V30 25 C -2.272060 -5.142995 4.789734 0
M  V30 26 C -3.006884 -4.868029 3.636153 0
M  V30 27 C -3.066757 -3.585208 3.250278 0
M  V30 28 C -2.521362 -2.371392 3.784839 0
M  V30 29 H 1.162832 -0.642077 0.868043 0
M  V30 30 H -1.390010 -0.335419 1.910382 0
M  V30 31 H -3.039922 0.482710 0.283196 0
M  V30 32 H -2.487930 2.391643 -4.091792 0
M  V30 33 H -0.224363 2.552765 -5.252867 0
M  V30 34 H 2.037073 0.728547 -5.494664 0
M  V30 35 H 4.529437 0.679186 -5.436097 0
M  V30 36 H 5.855246 1.370358 -3.425735 0
M  V30 37 H 4.560432 2.161819 -1.474780 0
M  V30 38 H 2.194686 2.268246 -1.523698 0
M  V30 39 H 1.173743 0.290397 -0.847562 0
M  V30 40 H -0.238656 -1.311261 3.984449 0
M  V30 41 H 0.991237 -1.402865 6.240721 0
M  V30 42 H 0.735707 -3.098442 5.781727 0
M  V30 43 H -1.309120 -0.815912 5.626350 0
M  V30 44 H -1.136467 -2.080728 6.873206 0
M  V30 45 H -1.142907 -4.387086 6.334785 0
M  V30 46 H -2.306797 -6.194099 4.998435 0
M  V30 47 H -3.573894 -5.530087 2.944267 0
M  V30 48 H -3.601927 -3.260386 2.341579 0
M  V30 49 H -2.551590 -1.352030 3.548959 0
M  V30 END ATOM
M  V30 BEGIN BOND
M  V30 1 2 1 2
M  V30 2 1 2 3
M  V30 3 2 3 4
M  V30 4 1 4 5
M  V30 5 2 5 6
M  V30 6 1 6 7
M  V30 7 2 7 8
M  V30 8 1 8 9
M  V30 9 1 9 10
M  V30 10 2 10 11
M  V30 11 1 11 12
M  V30 12 2 12 13
M  V30 13 1 13 14
M  V30 14 2 14 15
M  V30 15 1 15 16
M  V30 16 2 16 17
M  V30 17 1 11 18
M  V30 18 2 18 19
M  V30 19 1 2 20
M  V30 20 1 20 21
M  V30 21 1 21 22
M  V30 22 1 22 23
M  V30 23 2 23 24
M  V30 24 1 24 25
M  V30 25 2 25 26
M  V30 26 1 26 27
M  V30 27 2 27 28
M  V30 28 1 19 5
M  V30 29 1 28 23
M  V30 30 1 18 8
M  V30 31 1 17 12
M  V30 32 1 3 29
M  V30 33 1 4 30
M  V30 34 1 6 31
M  V30 35 1 9 32
M  V30 36 1 10 33
M  V30 37 1 13 34
M  V30 38 1 14 35
M  V30 39 1 15 36
M  V30 40 1 16 37
M  V30 41 1 17 38
M  V30 42 1 19 39
M  V30 43 1 20 40
M  V30 44 1 21 41
M  V30 45 1 21 42
M  V30 46 1 22 43
M  V30 47 1 22 44
M  V30 48 1 24 45
M  V30 49 1 25 46
M  V30 50 1 26 47
M  V30 51 1 27 48
M  V30 52 1 28 49
M  V30 END BOND
M  V30 END CTAB
M  END
>  <Dataset>  (329) 
ChEMBL_Kinases

>  <Ligand_Instance>  (329) 
nan

>  <PDB_ID>  (329) 
nan

>  <Standardized_SMILES>  (329) 
O=C(/C=C/c1cnc2[nH]cc(-c3ccccc3)c2c1)NCCc1ccccc1

>  <Name>  (329) 
nan

>  <Pocket>  (329) 
nan

>  <ATP_Site>  (329) 
nan

>  <Peripheral>  (329) 
nan

>  <Num_H_Atoms_ProtBoundConf>  (329) 
nan

>  <Num_Resolved_Atoms>  (329) 
nan

>  <Num_Not_Resolved_Atoms>  (329) 
nan

$$$$
CHEMBL3702038
     RDKit          3D

  0  0  0  0  0  0  0  0  0  0999 V3000
M  V30 BEGIN CTAB
M  V30 COUNTS 63 68 0 0 0
M  V30 BEGIN ATOM
M  V30 1 C 5.435572 1.050767 4.949729 0
M  V30 2 C 4.367722 -0.038845 4.701886 0
M  V30 3 C 4.890931 -1.327062 5.317069 0
M  V30 4 C 4.178235 -0.200182 3.232815 0
M  V30 5 N 2.769529 -0.344316 2.932556 0
M  V30 6 C 2.237134 0.128001 1.673291 0
M  V30 7 C 3.030374 0.548152 0.626853 0
M  V30 8 C 2.395382 0.973340 -0.523878 0
M  V30 9 C 1.028070 1.001382 -0.685699 0
M  V30 10 N 0.386388 1.433859 -1.909621 0
M  V30 11 C -1.048195 1.387581 -1.834919 0
M  V30 12 N -1.969900 2.382203 -1.685241 0
M  V30 13 C -3.273643 2.015595 -1.606606 0
M  V30 14 C -3.649085 0.688272 -1.675480 0
M  V30 15 C -4.875209 0.020611 -1.605793 0
M  V30 16 C -6.103548 0.618482 -1.443476 0
M  V30 17 C -7.197004 -0.259151 -1.387722 0
M  V30 18 N -6.961994 -1.575528 -1.492745 0
M  V30 19 C -5.731028 -2.089646 -1.649453 0
M  V30 20 O -5.665431 -3.342588 -1.730354 0
M  V30 21 C -4.587124 -1.322380 -1.719103 0
M  V30 22 N -3.274735 -1.547467 -1.857080 0
M  V30 23 C -2.657829 -2.844358 -1.998457 0
M  V30 24 C -2.915683 -3.525615 -3.315844 0
M  V30 25 C -1.966271 -2.721681 -4.218634 0
M  V30 26 C -0.703995 -2.620017 -3.353611 0
M  V30 27 C -1.157674 -2.790887 -1.955873 0
M  V30 28 C -2.714338 -0.313397 -1.827458 0
M  V30 29 N -1.432530 0.120593 -1.899385 0
M  V30 30 N 0.314844 0.567865 0.401578 0
M  V30 31 N 0.927778 0.163324 1.497939 0
M  V30 32 C 1.866297 -0.981031 3.869971 0
M  V30 33 C 2.008799 -0.335257 5.202804 0
M  V30 34 N 3.218899 0.372747 5.442475 0
M  V30 35 H 5.903051 1.331617 3.997153 0
M  V30 36 H 4.955777 1.991817 5.338847 0
M  V30 37 H 6.135602 0.704798 5.710884 0
M  V30 38 H 4.060432 -1.975109 5.670316 0
M  V30 39 H 5.564319 -1.037010 6.155257 0
M  V30 40 H 5.471662 -1.857478 4.509384 0
M  V30 41 H 4.652121 -1.174702 2.920287 0
M  V30 42 H 4.671329 0.602449 2.640615 0
M  V30 43 H 4.090677 0.536771 0.711352 0
M  V30 44 H 2.966560 1.308387 -1.365590 0
M  V30 45 H 1.040755 1.714969 -2.665628 0
M  V30 46 H -3.989105 2.804288 -1.488429 0
M  V30 47 H -6.248445 1.686159 -1.364184 0
M  V30 48 H -8.175650 0.157904 -1.262938 0
M  V30 49 H -7.841462 -2.158917 -1.438771 0
M  V30 50 H -2.992769 -3.519441 -1.144479 0
M  V30 51 H -3.923160 -3.529095 -3.693059 0
M  V30 52 H -2.450027 -4.534221 -3.233765 0
M  V30 53 H -2.428661 -1.746480 -4.373416 0
M  V30 54 H -1.774357 -3.284923 -5.156952 0
M  V30 55 H -0.238744 -1.662933 -3.595985 0
M  V30 56 H -0.063335 -3.483845 -3.668008 0
M  V30 57 H -0.825525 -3.821354 -1.614565 0
M  V30 58 H -0.747547 -2.036961 -1.250633 0
M  V30 59 H 2.098568 -2.070704 3.961319 0
M  V30 60 H 0.827830 -0.887267 3.457917 0
M  V30 61 H 1.814109 -1.038925 6.051102 0
M  V30 62 H 1.177998 0.432682 5.281087 0
M  V30 63 H 3.441792 0.321587 6.458640 0
M  V30 END ATOM
M  V30 BEGIN BOND
M  V30 1 1 1 2
M  V30 2 1 2 3
M  V30 3 1 2 4
M  V30 4 1 4 5
M  V30 5 1 5 6
M  V30 6 2 6 7
M  V30 7 1 7 8
M  V30 8 2 8 9
M  V30 9 1 9 10
M  V30 10 1 10 11
M  V30 11 2 11 12
M  V30 12 1 12 13
M  V30 13 2 13 14
M  V30 14 1 14 15
M  V30 15 1 15 16
M  V30 16 2 16 17
M  V30 17 1 17 18
M  V30 18 1 18 19
M  V30 19 2 19 20
M  V30 20 1 19 21
M  V30 21 1 21 22
M  V30 22 1 22 23
M  V30 23 1 23 24
M  V30 24 1 24 25
M  V30 25 1 25 26
M  V30 26 1 26 27
M  V30 27 1 22 28
M  V30 28 2 28 29
M  V30 29 1 9 30
M  V30 30 2 30 31
M  V30 31 1 5 32
M  V30 32 1 32 33
M  V30 33 1 33 34
M  V30 34 1 34 2
M  V30 35 1 31 6
M  V30 36 1 29 11
M  V30 37 1 28 14
M  V30 38 2 21 15
M  V30 39 1 27 23
M  V30 40 1 1 35
M  V30 41 1 1 36
M  V30 42 1 1 37
M  V30 43 1 3 38
M  V30 44 1 3 39
M  V30 45 1 3 40
M  V30 46 1 4 41
M  V30 47 1 4 42
M  V30 48 1 7 43
M  V30 49 1 8 44
M  V30 50 1 10 45
M  V30 51 1 13 46
M  V30 52 1 16 47
M  V30 53 1 17 48
M  V30 54 1 18 49
M  V30 55 1 23 50
M  V30 56 1 24 51
M  V30 57 1 24 52
M  V30 58 1 25 53
M  V30 59 1 25 54
M  V30 60 1 26 55
M  V30 61 1 26 56
M  V30 62 1 27 57
M  V30 63 1 27 58
M  V30 64 1 32 59
M  V30 65 1 32 60
M  V30 66 1 33 61
M  V30 67 1 33 62
M  V30 68 1 34 63
M  V30 END BOND
M  V30 END CTAB
M  END
>  <Dataset>  (330) 
ChEMBL_Kinases

>  <Ligand_Instance>  (330) 
nan

>  <PDB_ID>  (330) 
nan

>  <Standardized_SMILES>  (330) 
CC1(C)CN(c2ccc(Nc3ncc4c5cc[nH]c(=O)c5n(C5CCCC5)c4n3)nn2)CCN1

>  <Name>  (330) 
nan

>  <Pocket>  (330) 
nan

>  <ATP_Site>  (330) 
nan

>  <Peripheral>  (330) 
nan

>  <Num_H_Atoms_ProtBoundConf>  (330) 
nan

>  <Num_Resolved_Atoms>  (330) 
nan

>  <Num_Not_Resolved_Atoms>  (330) 
nan

$$$$
CHEMBL3961038
     RDKit          3D

  0  0  0  0  0  0  0  0  0  0999 V3000
M  V30 BEGIN CTAB
M  V30 COUNTS 75 79 0 0 0
M  V30 BEGIN ATOM
M  V30 1 C 1.643316 -1.872089 5.298981 0
M  V30 2 C 1.765359 -0.516707 5.973242 0
M  V30 3 C 3.125826 0.087514 5.766865 0
M  V30 4 N 3.375059 0.265329 4.337708 0
M  V30 5 C 2.966435 1.582152 3.999746 0
M  V30 6 C 2.778434 2.027976 2.629677 0
M  V30 7 O 2.984341 1.217701 1.690466 0
M  V30 8 N 2.373959 3.325403 2.218397 0
M  V30 9 C 2.309238 3.348643 0.781387 0
M  V30 10 N 3.268176 3.653253 -0.112416 0
M  V30 11 N 2.752486 3.539317 -1.329223 0
M  V30 12 C 1.451697 3.159453 -1.249098 0
M  V30 13 C 1.142661 3.030447 0.092329 0
M  V30 14 C -0.278389 2.616660 0.170596 0
M  V30 15 N -0.466679 1.968941 -1.114720 0
M  V30 16 C -1.165747 0.787122 -1.372372 0
M  V30 17 O -1.394166 0.764949 -0.136990 0
M  V30 18 N -1.856067 -0.381987 -1.634352 0
M  V30 19 C -2.467474 -1.020536 -0.473919 0
M  V30 20 C -3.382397 -2.144002 -0.902783 0
M  V30 21 N -2.823988 -2.905849 -1.997198 0
M  V30 22 C -1.524265 -3.417181 -1.608557 0
M  V30 23 C -1.608744 -4.456003 -0.538695 0
M  V30 24 C -2.420289 -5.673990 -0.935080 0
M  V30 25 C -2.349446 -6.640691 0.234715 0
M  V30 26 O -1.052134 -6.951678 0.582388 0
M  V30 27 C -0.320895 -5.854213 0.990194 0
M  V30 28 C -0.211770 -4.935450 -0.215268 0
M  V30 29 C -2.757781 -2.051612 -3.155765 0
M  V30 30 C -1.901353 -0.839137 -2.991088 0 CFG=2
M  V30 31 C -0.533786 -1.002949 -3.624321 0
M  V30 32 C 0.225710 2.825395 -2.029647 0
M  V30 33 C -0.499025 4.123896 -2.283220 0
M  V30 34 C 0.628169 2.196040 -3.322187 0
M  V30 35 C 2.818898 2.220891 5.147136 0
M  V30 36 O 3.102978 1.414634 6.239030 0
M  V30 37 H 1.958626 -1.797675 4.234197 0
M  V30 38 H 2.275366 -2.607934 5.817357 0
M  V30 39 H 0.592447 -2.182964 5.360783 0
M  V30 40 H 1.579865 -0.660277 7.048775 0
M  V30 41 H 1.020551 0.153754 5.484982 0
M  V30 42 H 3.921528 -0.522880 6.246162 0
M  V30 43 H 3.782334 -0.502824 3.768393 0
M  V30 44 H 2.194792 4.028258 2.983768 0
M  V30 45 H 3.198700 3.696060 -2.255187 0
M  V30 46 H -0.504659 1.995977 1.033624 0
M  V30 47 H -0.883550 3.566317 0.175160 0
M  V30 48 H -3.030370 -0.218075 0.059234 0
M  V30 49 H -1.648317 -1.353324 0.193559 0
M  V30 50 H -4.333633 -1.654879 -1.214389 0
M  V30 51 H -3.606673 -2.785558 -0.026367 0
M  V30 52 H -0.896691 -2.599911 -1.232399 0
M  V30 53 H -1.069299 -3.888189 -2.492637 0
M  V30 54 H -2.069669 -4.056625 0.406201 0
M  V30 55 H -3.480878 -5.424486 -1.100320 0
M  V30 56 H -1.911794 -6.158975 -1.779407 0
M  V30 57 H -2.863630 -6.202642 1.132548 0
M  V30 58 H -2.890312 -7.579267 0.006375 0
M  V30 59 H 0.695581 -6.186693 1.266754 0
M  V30 60 H -0.823850 -5.295863 1.818276 0
M  V30 61 H 0.530162 -4.142520 -0.100655 0
M  V30 62 H 0.097298 -5.603032 -1.068914 0
M  V30 63 H -2.462702 -2.658883 -4.060650 0
M  V30 64 H -3.831087 -1.773393 -3.373039 0
M  V30 65 H -2.414909 -0.017915 -3.572114 0
M  V30 66 H -0.435832 -0.434612 -4.583914 0
M  V30 67 H 0.292238 -0.666866 -2.976952 0
M  V30 68 H -0.429894 -2.080773 -3.933238 0
M  V30 69 H -1.578086 4.023921 -2.381732 0
M  V30 70 H -0.116365 4.585028 -3.228855 0
M  V30 71 H -0.252713 4.864367 -1.492864 0
M  V30 72 H -0.205238 1.864339 -3.940798 0
M  V30 73 H 1.417128 1.443280 -3.151382 0
M  V30 74 H 1.128340 3.013465 -3.918902 0
M  V30 75 H 2.512967 3.249516 5.223461 0
M  V30 END ATOM
M  V30 BEGIN BOND
M  V30 1 1 1 2
M  V30 2 1 2 3
M  V30 3 1 3 4
M  V30 4 1 4 5
M  V30 5 1 5 6
M  V30 6 2 6 7
M  V30 7 1 6 8
M  V30 8 1 8 9
M  V30 9 2 9 10
M  V30 10 1 10 11
M  V30 11 1 11 12
M  V30 12 2 12 13
M  V30 13 1 13 14
M  V30 14 1 14 15
M  V30 15 1 15 16
M  V30 16 2 16 17
M  V30 17 1 16 18
M  V30 18 1 18 19
M  V30 19 1 19 20
M  V30 20 1 20 21
M  V30 21 1 21 22
M  V30 22 1 22 23
M  V30 23 1 23 24
M  V30 24 1 24 25
M  V30 25 1 25 26
M  V30 26 1 26 27
M  V30 27 1 27 28
M  V30 28 1 21 29
M  V30 29 1 29 30
M  V30 30 1 30 31
M  V30 31 1 15 32
M  V30 32 1 32 33
M  V30 33 1 32 34
M  V30 34 2 5 35
M  V30 35 1 35 36
M  V30 36 1 36 3
M  V30 37 1 13 9
M  V30 38 1 30 18
M  V30 39 1 32 12
M  V30 40 1 28 23
M  V30 41 1 1 37
M  V30 42 1 1 38
M  V30 43 1 1 39
M  V30 44 1 2 40
M  V30 45 1 2 41
M  V30 46 1 3 42
M  V30 47 1 4 43
M  V30 48 1 8 44
M  V30 49 1 11 45
M  V30 50 1 14 46
M  V30 51 1 14 47
M  V30 52 1 19 48
M  V30 53 1 19 49
M  V30 54 1 20 50
M  V30 55 1 20 51
M  V30 56 1 22 52
M  V30 57 1 22 53
M  V30 58 1 23 54
M  V30 59 1 24 55
M  V30 60 1 24 56
M  V30 61 1 25 57
M  V30 62 1 25 58
M  V30 63 1 27 59
M  V30 64 1 27 60
M  V30 65 1 28 61
M  V30 66 1 28 62
M  V30 67 1 29 63
M  V30 68 1 29 64
M  V30 69 1 30 65 CFG=3
M  V30 70 1 31 66
M  V30 71 1 31 67
M  V30 72 1 31 68
M  V30 73 1 33 69
M  V30 74 1 33 70
M  V30 75 1 33 71
M  V30 76 1 34 72
M  V30 77 1 34 73
M  V30 78 1 34 74
M  V30 79 1 35 75
M  V30 END BOND
M  V30 END CTAB
M  END
>  <Dataset>  (331) 
ChEMBL_Kinases

>  <Ligand_Instance>  (331) 
nan

>  <PDB_ID>  (331) 
nan

>  <Standardized_SMILES>  (331) 
CCC1NC(C(=O)Nc2n[nH]c3c2CN(C(=O)N2CCN(CC4CCOCC4)C[C@@H]2C)C3(C)C)=CO1

>  <Name>  (331) 
nan

>  <Pocket>  (331) 
nan

>  <ATP_Site>  (331) 
nan

>  <Peripheral>  (331) 
nan

>  <Num_H_Atoms_ProtBoundConf>  (331) 
nan

>  <Num_Resolved_Atoms>  (331) 
nan

>  <Num_Not_Resolved_Atoms>  (331) 
nan

$$$$
CHEMBL3961036
     RDKit          3D

  0  0  0  0  0  0  0  0  0  0999 V3000
M  V30 BEGIN CTAB
M  V30 COUNTS 61 64 0 0 0
M  V30 BEGIN ATOM
M  V30 1 C -0.811253 1.608887 5.841128 0
M  V30 2 O -1.288290 0.947230 4.712111 0
M  V30 3 C -0.531156 0.606636 3.590176 0
M  V30 4 C 0.800250 0.950640 3.592855 0
M  V30 5 C 1.605316 0.651598 2.532214 0
M  V30 6 C 3.008202 1.016136 2.539588 0
M  V30 7 C 3.552916 1.596553 1.386477 0
M  V30 8 N 4.853715 1.829645 1.669211 0
M  V30 9 C 5.792708 2.437179 0.716080 0
M  V30 10 N 5.118285 1.437124 2.885324 0
M  V30 11 C 4.001753 0.921702 3.473124 0
M  V30 12 C 3.787809 0.357685 4.810931 0
M  V30 13 C 1.058329 -0.006553 1.448390 0
M  V30 14 C -0.281255 -0.324644 1.504389 0
M  V30 15 C -1.143522 -0.050789 2.543096 0
M  V30 16 N -2.519664 -0.397838 2.557857 0
M  V30 17 C -3.298955 -1.058078 1.595563 0
M  V30 18 N -4.592682 -1.267641 1.852805 0
M  V30 19 C -5.414320 -1.885544 1.001859 0
M  V30 20 C -4.934885 -2.338179 -0.202915 0
M  V30 21 C -5.816882 -2.970829 -1.052244 0
M  V30 22 C -5.301591 -3.411317 -2.250871 0
M  V30 23 N -4.010642 -3.218609 -2.541833 0
M  V30 24 C -3.166188 -2.605385 -1.712948 0
M  V30 25 N -1.803868 -2.417947 -2.053127 0
M  V30 26 C -1.327243 -2.905145 -3.328694 0
M  V30 27 C 0.145815 -2.605759 -3.493937 0
M  V30 28 C 0.300459 -1.095295 -3.416042 0
M  V30 29 C 0.608344 -3.041562 -4.854259 0
M  V30 30 C 0.889260 -3.294648 -2.370904 0
M  V30 31 C -3.606546 -2.138053 -0.498436 0
M  V30 32 N -2.869640 -1.506440 0.426719 0
M  V30 33 H -0.781365 2.695911 5.701285 0
M  V30 34 H 0.184178 1.276033 6.196581 0
M  V30 35 H -1.571734 1.425602 6.650792 0
M  V30 36 H 1.211908 1.464050 4.446228 0
M  V30 37 H 3.083867 1.840625 0.420332 0
M  V30 38 H 6.760922 2.588211 1.194335 0
M  V30 39 H 5.361333 3.410767 0.401703 0
M  V30 40 H 5.853659 1.798885 -0.200034 0
M  V30 41 H 4.821100 0.212400 5.245836 0
M  V30 42 H 3.315987 1.066540 5.539450 0
M  V30 43 H 3.326646 -0.633702 4.817968 0
M  V30 44 H 1.686714 -0.247631 0.604537 0
M  V30 45 H -0.637618 -0.836337 0.624513 0
M  V30 46 H -3.003923 -0.092501 3.457824 0
M  V30 47 H -6.453344 -2.011148 1.297731 0
M  V30 48 H -6.865404 -3.143537 -0.849756 0
M  V30 49 H -5.889445 -3.929657 -3.019301 0
M  V30 50 H -1.128972 -1.942034 -1.420200 0
M  V30 51 H -1.537757 -3.996785 -3.468859 0
M  V30 52 H -1.843133 -2.383690 -4.173338 0
M  V30 53 H 0.305846 -0.822155 -2.344667 0
M  V30 54 H 1.228308 -0.783094 -3.939424 0
M  V30 55 H -0.605211 -0.656826 -3.880991 0
M  V30 56 H 0.345574 -2.231009 -5.576589 0
M  V30 57 H 0.100472 -3.971040 -5.198671 0
M  V30 58 H 1.722690 -3.189887 -4.809315 0
M  V30 59 H 1.834818 -3.718635 -2.706199 0
M  V30 60 H 0.264283 -4.110832 -1.941325 0
M  V30 61 H 1.077209 -2.559901 -1.538702 0
M  V30 END ATOM
M  V30 BEGIN BOND
M  V30 1 1 1 2
M  V30 2 1 2 3
M  V30 3 2 3 4
M  V30 4 1 4 5
M  V30 5 1 5 6
M  V30 6 2 6 7
M  V30 7 1 7 8
M  V30 8 1 8 9
M  V30 9 1 8 10
M  V30 10 2 10 11
M  V30 11 1 11 12
M  V30 12 2 5 13
M  V30 13 1 13 14
M  V30 14 2 14 15
M  V30 15 1 15 16
M  V30 16 1 16 17
M  V30 17 2 17 18
M  V30 18 1 18 19
M  V30 19 2 19 20
M  V30 20 1 20 21
M  V30 21 2 21 22
M  V30 22 1 22 23
M  V30 23 2 23 24
M  V30 24 1 24 25
M  V30 25 1 25 26
M  V30 26 1 26 27
M  V30 27 1 27 28
M  V30 28 1 27 29
M  V30 29 1 27 30
M  V30 30 1 24 31
M  V30 31 2 31 32
M  V30 32 1 15 3
M  V30 33 1 32 17
M  V30 34 1 11 6
M  V30 35 1 31 20
M  V30 36 1 1 33
M  V30 37 1 1 34
M  V30 38 1 1 35
M  V30 39 1 4 36
M  V30 40 1 7 37
M  V30 41 1 9 38
M  V30 42 1 9 39
M  V30 43 1 9 40
M  V30 44 1 12 41
M  V30 45 1 12 42
M  V30 46 1 12 43
M  V30 47 1 13 44
M  V30 48 1 14 45
M  V30 49 1 16 46
M  V30 50 1 19 47
M  V30 51 1 21 48
M  V30 52 1 22 49
M  V30 53 1 25 50
M  V30 54 1 26 51
M  V30 55 1 26 52
M  V30 56 1 28 53
M  V30 57 1 28 54
M  V30 58 1 28 55
M  V30 59 1 29 56
M  V30 60 1 29 57
M  V30 61 1 29 58
M  V30 62 1 30 59
M  V30 63 1 30 60
M  V30 64 1 30 61
M  V30 END BOND
M  V30 END CTAB
M  END
>  <Dataset>  (332) 
ChEMBL_Kinases

>  <Ligand_Instance>  (332) 
nan

>  <PDB_ID>  (332) 
nan

>  <Standardized_SMILES>  (332) 
COc1cc(-c2cn(C)nc2C)ccc1Nc1ncc2ccnc(NCC(C)(C)C)c2n1

>  <Name>  (332) 
nan

>  <Pocket>  (332) 
nan

>  <ATP_Site>  (332) 
nan

>  <Peripheral>  (332) 
nan

>  <Num_H_Atoms_ProtBoundConf>  (332) 
nan

>  <Num_Resolved_Atoms>  (332) 
nan

>  <Num_Not_Resolved_Atoms>  (332) 
nan

$$$$
CHEMBL3960900
     RDKit          3D

  0  0  0  0  0  0  0  0  0  0999 V3000
M  V30 BEGIN CTAB
M  V30 COUNTS 40 42 0 0 0
M  V30 BEGIN ATOM
M  V30 1 C 0.306839 -2.858651 -1.688102 0
M  V30 2 C 1.258339 -3.520452 -0.760605 0
M  V30 3 C 0.607985 -3.521438 0.628959 0
M  V30 4 N 2.575263 -2.937802 -0.694234 0
M  V30 5 C 3.725584 -3.656455 -0.535878 0
M  V30 6 N 4.773342 -2.789467 -0.516076 0
M  V30 7 N 4.311681 -1.568126 -0.655923 0
M  V30 8 C 2.979233 -1.665873 -0.763281 0
M  V30 9 C 2.103556 -0.527899 -0.932163 0
M  V30 10 C 2.209582 0.065821 -2.175397 0
M  V30 11 C 1.421687 1.174719 -2.474188 0
M  V30 12 C 0.563547 1.625779 -1.492399 0
M  V30 13 C 0.462168 1.024827 -0.246209 0
M  V30 14 N -0.434254 1.511431 0.752685 0
M  V30 15 C -0.568501 0.930402 2.032156 0
M  V30 16 O 0.131776 -0.071012 2.325363 0
M  V30 17 C -1.487024 1.432993 3.048741 0
M  V30 18 C -1.529255 0.780123 4.263489 0
M  V30 19 C -2.360297 1.163439 5.306634 0
M  V30 20 C -3.203686 2.265931 5.132472 0
M  V30 21 C -3.141174 2.899980 3.908625 0
M  V30 22 C -2.309478 2.510917 2.874067 0
M  V30 23 N 1.245639 -0.047989 -0.000675 0
M  V30 24 H -0.451470 -3.611029 -2.005395 0
M  V30 25 H -0.289058 -2.045700 -1.226619 0
M  V30 26 H 0.839706 -2.557914 -2.612124 0
M  V30 27 H 1.337754 -4.593125 -1.046619 0
M  V30 28 H 1.356963 -3.833300 1.402095 0
M  V30 29 H 0.171357 -2.535543 0.884036 0
M  V30 30 H -0.204145 -4.288750 0.632869 0
M  V30 31 H 3.750463 -4.748370 -0.444428 0
M  V30 32 H 2.874001 -0.267388 -2.963236 0
M  V30 33 H 1.491185 1.652416 -3.442038 0
M  V30 34 H -0.053756 2.480243 -1.701742 0
M  V30 35 H -1.009324 2.328813 0.520502 0
M  V30 36 H -0.919225 -0.085209 4.506798 0
M  V30 37 H -2.400901 0.658690 6.262076 0
M  V30 38 H -3.856576 2.577669 5.933681 0
M  V30 39 H -3.779212 3.758932 3.733839 0
M  V30 40 H -2.296836 3.039921 1.934075 0
M  V30 END ATOM
M  V30 BEGIN BOND
M  V30 1 1 1 2
M  V30 2 1 2 3
M  V30 3 1 2 4
M  V30 4 1 4 5
M  V30 5 2 5 6
M  V30 6 1 6 7
M  V30 7 2 7 8
M  V30 8 1 8 9
M  V30 9 2 9 10
M  V30 10 1 10 11
M  V30 11 2 11 12
M  V30 12 1 12 13
M  V30 13 1 13 14
M  V30 14 1 14 15
M  V30 15 2 15 16
M  V30 16 1 15 17
M  V30 17 2 17 18
M  V30 18 1 18 19
M  V30 19 2 19 20
M  V30 20 1 20 21
M  V30 21 2 21 22
M  V30 22 2 13 23
M  V30 23 1 8 4
M  V30 24 1 23 9
M  V30 25 1 22 17
M  V30 26 1 1 24
M  V30 27 1 1 25
M  V30 28 1 1 26
M  V30 29 1 2 27
M  V30 30 1 3 28
M  V30 31 1 3 29
M  V30 32 1 3 30
M  V30 33 1 5 31
M  V30 34 1 10 32
M  V30 35 1 11 33
M  V30 36 1 12 34
M  V30 37 1 14 35
M  V30 38 1 18 36
M  V30 39 1 19 37
M  V30 40 1 20 38
M  V30 41 1 21 39
M  V30 42 1 22 40
M  V30 END BOND
M  V30 END CTAB
M  END
>  <Dataset>  (333) 
ChEMBL_Kinases

>  <Ligand_Instance>  (333) 
nan

>  <PDB_ID>  (333) 
nan

>  <Standardized_SMILES>  (333) 
CC(C)n1cnnc1-c1cccc(NC(=O)c2ccccc2)n1

>  <Name>  (333) 
nan

>  <Pocket>  (333) 
nan

>  <ATP_Site>  (333) 
nan

>  <Peripheral>  (333) 
nan

>  <Num_H_Atoms_ProtBoundConf>  (333) 
nan

>  <Num_Resolved_Atoms>  (333) 
nan

>  <Num_Not_Resolved_Atoms>  (333) 
nan

$$$$
CHEMBL3702039
     RDKit          3D

  0  0  0  0  0  0  0  0  0  0999 V3000
M  V30 BEGIN CTAB
M  V30 COUNTS 56 61 0 0 0
M  V30 BEGIN ATOM
M  V30 1 N -1.130098 -3.550403 4.553501 0
M  V30 2 C -0.581522 -4.556105 3.648736 0
M  V30 3 C 0.859902 -4.853300 4.008403 0
M  V30 4 C 1.842427 -3.856949 3.446234 0
M  V30 5 N 1.633191 -3.703228 2.022176 0
M  V30 6 C 2.463367 -2.717098 1.314400 0
M  V30 7 N 2.340834 -1.547932 0.643603 0
M  V30 8 C 3.536733 -1.113520 0.252648 0
M  V30 9 N 3.655197 0.093415 -0.487895 0
M  V30 10 C 2.613308 0.954398 -0.930041 0
M  V30 11 N 2.959023 2.088183 -1.609656 0
M  V30 12 C 2.087826 2.964885 -2.101136 0
M  V30 13 C 0.742216 2.753130 -1.936826 0
M  V30 14 C -0.334463 3.510115 -2.358436 0
M  V30 15 C -0.439038 4.696629 -3.057179 0
M  V30 16 C -1.696021 5.174398 -3.310065 0
M  V30 17 N -2.781012 4.481079 -2.874850 0
M  V30 18 C -2.654574 3.329406 -2.197278 0
M  V30 19 C -1.425961 2.767773 -1.893783 0
M  V30 20 N -0.973330 1.654270 -1.246487 0
M  V30 21 C -1.903611 0.765637 -0.717954 0
M  V30 22 C -2.060144 0.555126 0.730814 0
M  V30 23 C -3.067271 -0.586607 0.701012 0
M  V30 24 C -2.454520 -1.534957 -0.290352 0
M  V30 25 C -1.517977 -0.666660 -1.142574 0
M  V30 26 C 0.369530 1.615619 -1.254541 0
M  V30 27 N 1.277877 0.751971 -0.770710 0
M  V30 28 N 4.788342 -1.753885 0.484648 0
M  V30 29 S 4.079232 -3.211787 1.417808 0
M  V30 30 C 0.593814 -4.570925 1.507595 0
M  V30 31 C -0.680791 -4.106771 2.213720 0
M  V30 32 H -2.164426 -3.654078 4.563768 0
M  V30 33 H -0.742242 -3.729926 5.505635 0
M  V30 34 H -1.180756 -5.486428 3.743066 0
M  V30 35 H 0.963529 -4.859561 5.145325 0
M  V30 36 H 1.118319 -5.854727 3.624194 0
M  V30 37 H 2.853133 -4.304307 3.632049 0
M  V30 38 H 1.754270 -2.905107 3.992756 0
M  V30 39 H 4.622995 0.443528 -0.772023 0
M  V30 40 H 2.414134 3.844190 -2.629318 0
M  V30 41 H 0.471132 5.211334 -3.381721 0
M  V30 42 H -1.764876 6.121310 -3.866260 0
M  V30 43 H -3.535459 2.792474 -1.858529 0
M  V30 44 H -2.950626 0.863588 -1.135173 0
M  V30 45 H -2.599148 1.381023 1.260632 0
M  V30 46 H -1.195286 0.151702 1.277713 0
M  V30 47 H -3.999328 -0.166523 0.271060 0
M  V30 48 H -3.222178 -1.023036 1.704895 0
M  V30 49 H -1.905677 -2.319112 0.262226 0
M  V30 50 H -3.234184 -1.984784 -0.942644 0
M  V30 51 H -0.472539 -0.858136 -0.784239 0
M  V30 52 H -1.682542 -0.835605 -2.201271 0
M  V30 53 H 0.391839 -4.360689 0.420892 0
M  V30 54 H 0.753931 -5.635139 1.667828 0
M  V30 55 H -0.654793 -2.979823 2.179638 0
M  V30 56 H -1.558203 -4.483938 1.676812 0
M  V30 END ATOM
M  V30 BEGIN BOND
M  V30 1 1 1 2
M  V30 2 1 2 3
M  V30 3 1 3 4
M  V30 4 1 4 5
M  V30 5 1 5 6
M  V30 6 2 6 7
M  V30 7 1 7 8
M  V30 8 1 8 9
M  V30 9 1 9 10
M  V30 10 2 10 11
M  V30 11 1 11 12
M  V30 12 2 12 13
M  V30 13 1 13 14
M  V30 14 2 14 15
M  V30 15 1 15 16
M  V30 16 2 16 17
M  V30 17 1 17 18
M  V30 18 2 18 19
M  V30 19 1 19 20
M  V30 20 1 20 21
M  V30 21 1 21 22
M  V30 22 1 22 23
M  V30 23 1 23 24
M  V30 24 1 24 25
M  V30 25 1 20 26
M  V30 26 2 26 27
M  V30 27 2 8 28
M  V30 28 1 28 29
M  V30 29 1 5 30
M  V30 30 1 30 31
M  V30 31 1 31 2
M  V30 32 1 29 6
M  V30 33 1 27 10
M  V30 34 1 26 13
M  V30 35 1 19 14
M  V30 36 1 25 21
M  V30 37 1 1 32
M  V30 38 1 1 33
M  V30 39 1 2 34
M  V30 40 1 3 35
M  V30 41 1 3 36
M  V30 42 1 4 37
M  V30 43 1 4 38
M  V30 44 1 9 39
M  V30 45 1 12 40
M  V30 46 1 15 41
M  V30 47 1 16 42
M  V30 48 1 18 43
M  V30 49 1 21 44
M  V30 50 1 22 45
M  V30 51 1 22 46
M  V30 52 1 23 47
M  V30 53 1 23 48
M  V30 54 1 24 49
M  V30 55 1 24 50
M  V30 56 1 25 51
M  V30 57 1 25 52
M  V30 58 1 30 53
M  V30 59 1 30 54
M  V30 60 1 31 55
M  V30 61 1 31 56
M  V30 END BOND
M  V30 END CTAB
M  END
>  <Dataset>  (334) 
ChEMBL_Kinases

>  <Ligand_Instance>  (334) 
nan

>  <PDB_ID>  (334) 
nan

>  <Standardized_SMILES>  (334) 
NC1CCN(c2nc(Nc3ncc4c5ccncc5n(C5CCCC5)c4n3)ns2)CC1

>  <Name>  (334) 
nan

>  <Pocket>  (334) 
nan

>  <ATP_Site>  (334) 
nan

>  <Peripheral>  (334) 
nan

>  <Num_H_Atoms_ProtBoundConf>  (334) 
nan

>  <Num_Resolved_Atoms>  (334) 
nan

>  <Num_Not_Resolved_Atoms>  (334) 
nan

$$$$
CHEMBL4869882
     RDKit          3D

  0  0  0  0  0  0  0  0  0  0999 V3000
M  V30 BEGIN CTAB
M  V30 COUNTS 55 58 0 0 0
M  V30 BEGIN ATOM
M  V30 1 C 1.307050 -2.537140 2.107024 0
M  V30 2 C 0.764026 -1.391738 1.355355 0
M  V30 3 C 1.394774 -0.166843 1.291271 0
M  V30 4 C 0.853013 0.871429 0.577544 0
M  V30 5 N 1.647120 2.074723 0.621990 0
M  V30 6 C 1.261921 2.910120 1.731855 0
M  V30 7 O 0.314628 2.324963 2.356620 0
M  V30 8 C 1.937254 4.190481 1.974664 0 CFG=2
M  V30 9 O 2.916028 4.385758 1.001915 0
M  V30 10 C 2.475368 4.307753 3.331509 0
M  V30 11 C 3.314099 5.420922 3.453634 0
M  V30 12 C 3.938103 5.723965 4.669147 0
M  V30 13 F 4.752548 6.773929 4.854385 0
M  V30 14 C 3.736047 4.924891 5.776727 0
M  V30 15 C 2.905201 3.827978 5.643370 0
M  V30 16 F 2.648055 2.994866 6.659189 0
M  V30 17 C 2.286977 3.523387 4.448439 0
M  V30 18 C -0.341918 0.687046 -0.086678 0
M  V30 19 C -0.949497 -0.527392 -0.012214 0
M  V30 20 C -0.427667 -1.610321 0.705781 0
M  V30 21 C -1.219949 -2.835094 0.673455 0
M  V30 22 C -1.558074 -3.663471 1.723979 0
M  V30 23 N -2.295190 -4.760426 1.537798 0
M  V30 24 C -2.749646 -5.116752 0.305638 0
M  V30 25 N -3.527829 -6.318328 0.261255 0
M  V30 26 C -2.449587 -4.336531 -0.783813 0
M  V30 27 C -2.956868 -4.754787 -2.086906 0
M  V30 28 O -3.640477 -5.809832 -2.124966 0
M  V30 29 N -2.741631 -4.072377 -3.299298 0
M  V30 30 C -3.305641 -4.594476 -4.548411 0
M  V30 31 C -3.382830 -3.715433 -5.716671 0
M  V30 32 C -2.250198 -4.685889 -5.654546 0
M  V30 33 C -1.688378 -3.205816 -0.584450 0
M  V30 34 H 1.006322 -2.483240 3.170477 0
M  V30 35 H 2.429510 -2.495285 2.122659 0
M  V30 36 H 1.001853 -3.512006 1.700785 0
M  V30 37 H 2.309622 -0.115373 1.832793 0
M  V30 38 H 2.417427 2.350331 -0.045808 0
M  V30 39 H 1.224179 5.053741 1.844874 0
M  V30 40 H 3.038631 5.363543 0.799563 0
M  V30 41 H 3.568276 6.137765 2.677967 0
M  V30 42 H 4.204342 5.131437 6.733639 0
M  V30 43 H 1.625414 2.690539 4.255358 0
M  V30 44 H -0.699295 1.541128 -0.619776 0
M  V30 45 H -1.888236 -0.594907 -0.562483 0
M  V30 46 H -1.177228 -3.342016 2.683294 0
M  V30 47 H -3.157403 -7.265641 0.481262 0
M  V30 48 H -4.536743 -6.479988 0.020947 0
M  V30 49 H -2.177869 -3.198288 -3.282135 0
M  V30 50 H -3.881809 -5.515385 -4.462065 0
M  V30 51 H -3.216099 -2.640592 -5.649831 0
M  V30 52 H -4.152298 -3.999952 -6.490476 0
M  V30 53 H -1.264588 -4.218017 -5.501100 0
M  V30 54 H -2.220542 -5.564975 -6.310543 0
M  V30 55 H -1.475213 -2.623321 -1.456745 0
M  V30 END ATOM
M  V30 BEGIN BOND
M  V30 1 1 1 2
M  V30 2 2 2 3
M  V30 3 1 3 4
M  V30 4 1 4 5
M  V30 5 1 5 6
M  V30 6 2 6 7
M  V30 7 1 6 8
M  V30 8 1 8 9
M  V30 9 1 8 10
M  V30 10 2 10 11
M  V30 11 1 11 12
M  V30 12 1 12 13
M  V30 13 2 12 14
M  V30 14 1 14 15
M  V30 15 1 15 16
M  V30 16 2 15 17
M  V30 17 2 4 18
M  V30 18 1 18 19
M  V30 19 2 19 20
M  V30 20 1 20 21
M  V30 21 2 21 22
M  V30 22 1 22 23
M  V30 23 2 23 24
M  V30 24 1 24 25
M  V30 25 1 24 26
M  V30 26 1 26 27
M  V30 27 2 27 28
M  V30 28 1 27 29
M  V30 29 1 29 30
M  V30 30 1 30 31
M  V30 31 1 31 32
M  V30 32 2 26 33
M  V30 33 1 20 2
M  V30 34 1 33 21
M  V30 35 1 17 10
M  V30 36 1 32 30
M  V30 37 1 1 34
M  V30 38 1 1 35
M  V30 39 1 1 36
M  V30 40 1 3 37
M  V30 41 1 5 38
M  V30 42 1 8 39 CFG=3
M  V30 43 1 9 40
M  V30 44 1 11 41
M  V30 45 1 14 42
M  V30 46 1 17 43
M  V30 47 1 18 44
M  V30 48 1 19 45
M  V30 49 1 22 46
M  V30 50 1 25 47
M  V30 51 1 25 48
M  V30 52 1 29 49
M  V30 53 1 30 50
M  V30 54 1 31 51
M  V30 55 1 31 52
M  V30 56 1 32 53
M  V30 57 1 32 54
M  V30 58 1 33 55
M  V30 END BOND
M  V30 END CTAB
M  END
>  <Dataset>  (335) 
ChEMBL_Kinases

>  <Ligand_Instance>  (335) 
nan

>  <PDB_ID>  (335) 
nan

>  <Standardized_SMILES>  (335) 
Cc1cc(NC(=O)[C@H](O)c2cc(F)cc(F)c2)ccc1-c1cnc(N)c(C(=O)NC2CC2)c1

>  <Name>  (335) 
nan

>  <Pocket>  (335) 
nan

>  <ATP_Site>  (335) 
nan

>  <Peripheral>  (335) 
nan

>  <Num_H_Atoms_ProtBoundConf>  (335) 
nan

>  <Num_Resolved_Atoms>  (335) 
nan

>  <Num_Not_Resolved_Atoms>  (335) 
nan

$$$$
CHEMBL3960844
     RDKit          3D

  0  0  0  0  0  0  0  0  0  0999 V3000
M  V30 BEGIN CTAB
M  V30 COUNTS 60 64 0 0 0
M  V30 BEGIN ATOM
M  V30 1 C 5.534698 -5.038557 6.179838 0
M  V30 2 O 5.462176 -3.712160 5.659454 0
M  V30 3 C 4.559061 -3.327038 4.708370 0
M  V30 4 O 3.694771 -4.088688 4.185317 0
M  V30 5 N 4.611926 -1.968507 4.290895 0
M  V30 6 C 3.747540 -1.400541 3.312921 0
M  V30 7 N 2.582701 -0.851145 3.723759 0
M  V30 8 C 1.890010 -0.363195 2.680218 0
M  V30 9 C 0.693349 0.282175 2.453905 0
M  V30 10 C 0.233602 0.674196 1.215537 0
M  V30 11 C -1.068651 1.360707 1.122423 0
M  V30 12 O -1.818184 1.077780 2.264870 0
M  V30 13 C -0.933633 2.807685 0.885359 0
M  V30 14 C -0.328337 3.684266 1.759142 0
M  V30 15 C -0.234757 5.028965 1.460627 0
M  V30 16 C -0.770667 5.462540 0.253126 0
M  V30 17 C -1.368199 4.578359 -0.602467 0
M  V30 18 C -1.473543 3.225778 -0.323836 0
M  V30 19 C -2.012566 2.003697 -0.930075 0
M  V30 20 O -2.566138 2.156977 -2.070862 0
M  V30 21 N -1.770703 0.898460 -0.049580 0
M  V30 22 C -2.278347 -0.334031 -0.545938 0
M  V30 23 C -3.594333 -0.500990 -0.097683 0
M  V30 24 C -4.337032 -1.629888 -0.438387 0
M  V30 25 C -3.758882 -2.596879 -1.232082 0
M  V30 26 C -2.464298 -2.424850 -1.668710 0
M  V30 27 C -1.788386 -3.422260 -2.520936 0
M  V30 28 N -1.973803 -3.182843 -3.941540 0
M  V30 29 C -3.373045 -3.211913 -4.309050 0
M  V30 30 C -1.258534 -4.227089 -4.650998 0
M  V30 31 C -1.722742 -1.312141 -1.336929 0
M  V30 32 C 1.067596 0.376399 0.159192 0
M  V30 33 C 2.280273 -0.266126 0.295994 0
M  V30 34 C 2.686211 -0.634249 1.564523 0
M  V30 35 N 3.813032 -1.264430 1.955724 0
M  V30 36 H 4.468084 -5.354109 6.337689 0
M  V30 37 H 6.065425 -5.737881 5.509177 0
M  V30 38 H 6.021489 -5.061377 7.155074 0
M  V30 39 H 5.290287 -1.297882 4.676397 0
M  V30 40 H 0.106180 0.475446 3.329797 0
M  V30 41 H -2.233518 1.925624 2.558213 0
M  V30 42 H 0.110173 3.421447 2.713572 0
M  V30 43 H 0.232003 5.761633 2.114002 0
M  V30 44 H -0.703556 6.512903 0.007881 0
M  V30 45 H -1.788503 4.890972 -1.539621 0
M  V30 46 H -4.182394 0.174835 0.533233 0
M  V30 47 H -5.353897 -1.812101 -0.122557 0
M  V30 48 H -4.250440 -3.498506 -1.545824 0
M  V30 49 H -0.712045 -3.533047 -2.292620 0
M  V30 50 H -2.251640 -4.426745 -2.333141 0
M  V30 51 H -3.829731 -4.143551 -3.912934 0
M  V30 52 H -3.879401 -2.299944 -3.910270 0
M  V30 53 H -3.422105 -3.253405 -5.411711 0
M  V30 54 H -1.080180 -5.092740 -3.976799 0
M  V30 55 H -1.872600 -4.546485 -5.497735 0
M  V30 56 H -0.280492 -3.829902 -4.964916 0
M  V30 57 H -0.711040 -1.062686 -1.613063 0
M  V30 58 H 0.739501 0.671338 -0.828887 0
M  V30 59 H 2.884735 -0.469408 -0.571070 0
M  V30 60 H 4.628170 -1.619858 1.438861 0
M  V30 END ATOM
M  V30 BEGIN BOND
M  V30 1 1 1 2
M  V30 2 1 2 3
M  V30 3 2 3 4
M  V30 4 1 3 5
M  V30 5 1 5 6
M  V30 6 2 6 7
M  V30 7 1 7 8
M  V30 8 2 8 9
M  V30 9 1 9 10
M  V30 10 1 10 11
M  V30 11 1 11 12
M  V30 12 1 11 13
M  V30 13 2 13 14
M  V30 14 1 14 15
M  V30 15 2 15 16
M  V30 16 1 16 17
M  V30 17 2 17 18
M  V30 18 1 18 19
M  V30 19 2 19 20
M  V30 20 1 19 21
M  V30 21 1 21 22
M  V30 22 2 22 23
M  V30 23 1 23 24
M  V30 24 2 24 25
M  V30 25 1 25 26
M  V30 26 1 26 27
M  V30 27 1 27 28
M  V30 28 1 28 29
M  V30 29 1 28 30
M  V30 30 2 26 31
M  V30 31 2 10 32
M  V30 32 1 32 33
M  V30 33 2 33 34
M  V30 34 1 34 35
M  V30 35 1 35 6
M  V30 36 1 34 8
M  V30 37 1 21 11
M  V30 38 1 31 22
M  V30 39 1 18 13
M  V30 40 1 1 36
M  V30 41 1 1 37
M  V30 42 1 1 38
M  V30 43 1 5 39
M  V30 44 1 9 40
M  V30 45 1 12 41
M  V30 46 1 14 42
M  V30 47 1 15 43
M  V30 48 1 16 44
M  V30 49 1 17 45
M  V30 50 1 23 46
M  V30 51 1 24 47
M  V30 52 1 25 48
M  V30 53 1 27 49
M  V30 54 1 27 50
M  V30 55 1 29 51
M  V30 56 1 29 52
M  V30 57 1 29 53
M  V30 58 1 30 54
M  V30 59 1 30 55
M  V30 60 1 30 56
M  V30 61 1 31 57
M  V30 62 1 32 58
M  V30 63 1 33 59
M  V30 64 1 35 60
M  V30 END BOND
M  V30 END CTAB
M  END
>  <Dataset>  (336) 
ChEMBL_Kinases

>  <Ligand_Instance>  (336) 
nan

>  <PDB_ID>  (336) 
nan

>  <Standardized_SMILES>  (336) 
COC(=O)Nc1nc2cc(C3(O)c4ccccc4C(=O)N3c3cccc(CN(C)C)c3)ccc2[nH]1

>  <Name>  (336) 
nan

>  <Pocket>  (336) 
nan

>  <ATP_Site>  (336) 
nan

>  <Peripheral>  (336) 
nan

>  <Num_H_Atoms_ProtBoundConf>  (336) 
nan

>  <Num_Resolved_Atoms>  (336) 
nan

>  <Num_Not_Resolved_Atoms>  (336) 
nan

$$$$
CHEMBL4869975
     RDKit          3D

  0  0  0  0  0  0  0  0  0  0999 V3000
M  V30 BEGIN CTAB
M  V30 COUNTS 49 52 0 0 0
M  V30 BEGIN ATOM
M  V30 1 C -0.321803 -1.792442 3.953510 0
M  V30 2 C 0.377708 -3.160839 3.991756 0
M  V30 3 C 0.719258 -3.618973 2.617689 0
M  V30 4 C 0.425795 -2.898149 1.445794 0
M  V30 5 C 0.870844 -3.600341 0.325418 0
M  V30 6 N 0.762285 -3.207135 -1.058393 0
M  V30 7 C 0.140665 -1.931625 -1.180599 0
M  V30 8 N 0.696245 -0.724736 -1.431679 0
M  V30 9 C -0.084882 0.393015 -1.489048 0
M  V30 10 N 0.638570 1.583371 -1.766891 0
M  V30 11 C 0.705604 2.804739 -0.963872 0 CFG=1
M  V30 12 C -0.688992 3.363031 -0.827883 0
M  V30 13 C 1.311157 2.485422 0.332358 0
M  V30 14 C 0.964186 2.899673 1.604808 0
M  V30 15 C 1.649678 2.487763 2.725423 0
M  V30 16 C 2.727118 1.630010 2.600882 0
M  V30 17 C 3.099452 1.197392 1.345514 0
M  V30 18 F 4.157065 0.356535 1.277143 0
M  V30 19 C 2.399896 1.620209 0.229644 0
M  V30 20 N -1.420724 0.338907 -1.298978 0
M  V30 21 C -2.023543 -0.842248 -1.045401 0
M  V30 22 C -3.393265 -0.933359 -0.841375 0
M  V30 23 C -4.026985 -2.124512 -0.578796 0
M  V30 24 C -3.269371 -3.280482 -0.514769 0
M  V30 25 C -1.918860 -3.168850 -0.718842 0
M  V30 26 C -1.241275 -2.000268 -0.983354 0
M  V30 27 N 1.423931 -4.729363 0.831796 0
M  V30 28 N 1.325485 -4.718522 2.147139 0
M  V30 29 H -0.701129 -1.538099 4.940059 0
M  V30 30 H 0.407198 -0.992828 3.664027 0
M  V30 31 H -1.140132 -1.804087 3.220181 0
M  V30 32 H 1.201066 -3.203559 4.702469 0
M  V30 33 H -0.435459 -3.854608 4.366392 0
M  V30 34 H -0.070732 -1.943331 1.464480 0
M  V30 35 H 1.128701 -3.872583 -1.755284 0
M  V30 36 H 1.175109 1.525011 -2.679028 0
M  V30 37 H 1.360128 3.520623 -1.490549 0
M  V30 38 H -0.737662 4.227565 -0.162187 0
M  V30 39 H -1.026924 3.685809 -1.849172 0
M  V30 40 H -1.365943 2.586565 -0.454596 0
M  V30 41 H 0.094985 3.574374 1.568823 0
M  V30 42 H 1.196989 2.938336 3.598352 0
M  V30 43 H 3.176755 1.382334 3.553018 0
M  V30 44 H 2.773330 1.221958 -0.721079 0
M  V30 45 H -3.943482 -0.005820 -0.899270 0
M  V30 46 H -5.085540 -2.204675 -0.418639 0
M  V30 47 H -3.721158 -4.238872 -0.311188 0
M  V30 48 H -1.354090 -4.092239 -0.658541 0
M  V30 49 H 1.655646 -5.447549 2.838332 0
M  V30 END ATOM
M  V30 BEGIN BOND
M  V30 1 1 1 2
M  V30 2 1 2 3
M  V30 3 2 3 4
M  V30 4 1 4 5
M  V30 5 1 5 6
M  V30 6 1 6 7
M  V30 7 2 7 8
M  V30 8 1 8 9
M  V30 9 1 9 10
M  V30 10 1 10 11
M  V30 11 1 11 12
M  V30 12 1 11 13
M  V30 13 2 13 14
M  V30 14 1 14 15
M  V30 15 2 15 16
M  V30 16 1 16 17
M  V30 17 1 17 18
M  V30 18 2 17 19
M  V30 19 2 9 20
M  V30 20 1 20 21
M  V30 21 2 21 22
M  V30 22 1 22 23
M  V30 23 2 23 24
M  V30 24 1 24 25
M  V30 25 2 25 26
M  V30 26 2 5 27
M  V30 27 1 27 28
M  V30 28 1 28 3
M  V30 29 1 26 7
M  V30 30 1 19 13
M  V30 31 1 26 21
M  V30 32 1 1 29
M  V30 33 1 1 30
M  V30 34 1 1 31
M  V30 35 1 2 32
M  V30 36 1 2 33
M  V30 37 1 4 34
M  V30 38 1 6 35
M  V30 39 1 10 36
M  V30 40 1 11 37 CFG=3
M  V30 41 1 12 38
M  V30 42 1 12 39
M  V30 43 1 12 40
M  V30 44 1 14 41
M  V30 45 1 15 42
M  V30 46 1 16 43
M  V30 47 1 19 44
M  V30 48 1 22 45
M  V30 49 1 23 46
M  V30 50 1 24 47
M  V30 51 1 25 48
M  V30 52 1 28 49
M  V30 END BOND
M  V30 END CTAB
M  END
>  <Dataset>  (337) 
ChEMBL_Kinases

>  <Ligand_Instance>  (337) 
nan

>  <PDB_ID>  (337) 
nan

>  <Standardized_SMILES>  (337) 
CCc1cc(Nc2nc(N[C@@H](C)c3cccc(F)c3)nc3ccccc23)n[nH]1

>  <Name>  (337) 
nan

>  <Pocket>  (337) 
nan

>  <ATP_Site>  (337) 
nan

>  <Peripheral>  (337) 
nan

>  <Num_H_Atoms_ProtBoundConf>  (337) 
nan

>  <Num_Resolved_Atoms>  (337) 
nan

>  <Num_Not_Resolved_Atoms>  (337) 
nan

$$$$
CHEMBL3702041
     RDKit          3D

  0  0  0  0  0  0  0  0  0  0999 V3000
M  V30 BEGIN CTAB
M  V30 COUNTS 56 61 0 0 0
M  V30 BEGIN ATOM
M  V30 1 C -0.442258 -4.135925 4.051085 0
M  V30 2 N -0.904774 -4.845531 2.863041 0
M  V30 3 C 0.141418 -5.661103 2.298800 0
M  V30 4 C 1.053000 -4.929377 1.373659 0
M  V30 5 N 0.262490 -4.313286 0.319665 0
M  V30 6 C 1.081197 -3.665246 -0.692765 0
M  V30 7 N 1.384137 -2.468383 -1.048911 0
M  V30 8 C 2.253097 -2.406092 -2.068756 0
M  V30 9 N 2.675361 -1.124387 -2.585404 0
M  V30 10 C 2.206053 0.129807 -2.104368 0
M  V30 11 N 2.709606 1.269037 -2.662562 0
M  V30 12 C 2.322621 2.499282 -2.315282 0
M  V30 13 C 1.362353 2.614139 -1.339892 0
M  V30 14 C 0.808514 3.752881 -0.819325 0
M  V30 15 C 0.983984 5.108992 -1.045692 0
M  V30 16 C 0.279564 6.074572 -0.359231 0
M  V30 17 N -0.596084 5.626101 0.551387 0
M  V30 18 C -0.782768 4.316873 0.787463 0
M  V30 19 C -0.112730 3.306470 0.137407 0
M  V30 20 N -0.078649 1.952442 0.153739 0
M  V30 21 C -0.912691 1.130678 1.006768 0
M  V30 22 C -2.344238 1.597658 1.019627 0
M  V30 23 C -3.232834 0.398994 0.802149 0
M  V30 24 C -2.301011 -0.773939 0.997769 0
M  V30 25 C -1.004001 -0.273960 0.440267 0
M  V30 26 C 0.810609 1.474274 -0.732221 0
M  V30 27 N 1.259881 0.270071 -1.143454 0
M  V30 28 N 2.799163 -3.537312 -2.709179 0
M  V30 29 S 1.903077 -4.800213 -1.658213 0
M  V30 30 C -1.172976 -4.469593 0.511095 0
M  V30 31 C -1.439653 -3.925485 1.898895 0
M  V30 32 H -0.850972 -3.106700 3.996182 0
M  V30 33 H 0.681784 -4.080369 3.959516 0
M  V30 34 H -0.752863 -4.581624 4.992489 0
M  V30 35 H 0.704636 -6.142437 3.144442 0
M  V30 36 H -0.327225 -6.501807 1.759657 0
M  V30 37 H 1.744428 -4.230244 1.847182 0
M  V30 38 H 1.649277 -5.725898 0.826652 0
M  V30 39 H 3.380625 -1.064175 -3.375472 0
M  V30 40 H 2.784776 3.345286 -2.815741 0
M  V30 41 H 1.714906 5.412791 -1.803260 0
M  V30 42 H 0.456163 7.116214 -0.578329 0
M  V30 43 H -1.502812 4.043310 1.540296 0
M  V30 44 H -0.521716 1.148062 2.021517 0
M  V30 45 H -2.572542 2.362393 0.251991 0
M  V30 46 H -2.637852 2.012591 2.018151 0
M  V30 47 H -3.611278 0.383051 -0.221681 0
M  V30 48 H -4.084799 0.370706 1.520946 0
M  V30 49 H -2.169075 -0.898251 2.091487 0
M  V30 50 H -2.682612 -1.671950 0.502953 0
M  V30 51 H -0.200560 -0.888115 0.886221 0
M  V30 52 H -1.002215 -0.261275 -0.667808 0
M  V30 53 H -1.744554 -3.857398 -0.221891 0
M  V30 54 H -1.500573 -5.518850 0.448872 0
M  V30 55 H -2.499509 -3.673030 2.055109 0
M  V30 56 H -0.803387 -2.990585 2.015802 0
M  V30 END ATOM
M  V30 BEGIN BOND
M  V30 1 1 1 2
M  V30 2 1 2 3
M  V30 3 1 3 4
M  V30 4 1 4 5
M  V30 5 1 5 6
M  V30 6 2 6 7
M  V30 7 1 7 8
M  V30 8 1 8 9
M  V30 9 1 9 10
M  V30 10 2 10 11
M  V30 11 1 11 12
M  V30 12 2 12 13
M  V30 13 1 13 14
M  V30 14 2 14 15
M  V30 15 1 15 16
M  V30 16 2 16 17
M  V30 17 1 17 18
M  V30 18 2 18 19
M  V30 19 1 19 20
M  V30 20 1 20 21
M  V30 21 1 21 22
M  V30 22 1 22 23
M  V30 23 1 23 24
M  V30 24 1 24 25
M  V30 25 1 20 26
M  V30 26 2 26 27
M  V30 27 2 8 28
M  V30 28 1 28 29
M  V30 29 1 5 30
M  V30 30 1 30 31
M  V30 31 1 31 2
M  V30 32 1 29 6
M  V30 33 1 27 10
M  V30 34 1 26 13
M  V30 35 1 19 14
M  V30 36 1 25 21
M  V30 37 1 1 32
M  V30 38 1 1 33
M  V30 39 1 1 34
M  V30 40 1 3 35
M  V30 41 1 3 36
M  V30 42 1 4 37
M  V30 43 1 4 38
M  V30 44 1 9 39
M  V30 45 1 12 40
M  V30 46 1 15 41
M  V30 47 1 16 42
M  V30 48 1 18 43
M  V30 49 1 21 44
M  V30 50 1 22 45
M  V30 51 1 22 46
M  V30 52 1 23 47
M  V30 53 1 23 48
M  V30 54 1 24 49
M  V30 55 1 24 50
M  V30 56 1 25 51
M  V30 57 1 25 52
M  V30 58 1 30 53
M  V30 59 1 30 54
M  V30 60 1 31 55
M  V30 61 1 31 56
M  V30 END BOND
M  V30 END CTAB
M  END
>  <Dataset>  (338) 
ChEMBL_Kinases

>  <Ligand_Instance>  (338) 
nan

>  <PDB_ID>  (338) 
nan

>  <Standardized_SMILES>  (338) 
CN1CCN(c2nc(Nc3ncc4c5ccncc5n(C5CCCC5)c4n3)ns2)CC1

>  <Name>  (338) 
nan

>  <Pocket>  (338) 
nan

>  <ATP_Site>  (338) 
nan

>  <Peripheral>  (338) 
nan

>  <Num_H_Atoms_ProtBoundConf>  (338) 
nan

>  <Num_Resolved_Atoms>  (338) 
nan

>  <Num_Not_Resolved_Atoms>  (338) 
nan

$$$$
CHEMBL396060
     RDKit          3D

  0  0  0  0  0  0  0  0  0  0999 V3000
M  V30 BEGIN CTAB
M  V30 COUNTS 46 49 0 0 0
M  V30 BEGIN ATOM
M  V30 1 C 2.518292 -7.466789 -2.820894 0
M  V30 2 O 2.932121 -6.112265 -2.874458 0
M  V30 3 C 2.190417 -5.079592 -2.317590 0
M  V30 4 C 0.985898 -5.240369 -1.658311 0
M  V30 5 C 0.288145 -4.175849 -1.122213 0
M  V30 6 C 0.827919 -2.913346 -1.259047 0
M  V30 7 C 2.028427 -2.700760 -1.909155 0
M  V30 8 C 2.702511 -3.801423 -2.436726 0
M  V30 9 N 2.731154 -1.485152 -2.144368 0
M  V30 10 C 2.383795 -0.188158 -1.633990 0
M  V30 11 O 3.044633 0.802078 -2.071491 0
M  V30 12 C 1.345615 0.131842 -0.657369 0
M  V30 13 C 1.542735 1.421218 -0.150935 0
M  V30 14 C 0.649595 1.921930 0.803793 0
M  V30 15 C -0.421322 1.136015 1.238340 0
M  V30 16 C -1.315657 1.722397 2.236300 0
M  V30 17 C -2.661438 1.425548 2.319951 0
M  V30 18 C -3.501669 1.981674 3.262706 0
M  V30 19 C -2.947081 2.889135 4.171378 0
M  V30 20 N -3.901096 3.401905 5.098977 0
M  V30 21 C -1.603296 3.196915 4.101663 0
M  V30 22 O -1.254521 4.110701 5.085214 0
M  V30 23 C 0.092100 4.534555 5.154975 0
M  V30 24 C -0.788861 2.629659 3.153824 0
M  V30 25 C -0.609020 -0.138937 0.732017 0
M  V30 26 C 0.280225 -0.626029 -0.212597 0
M  V30 27 N -0.060392 -1.964630 -0.631178 0
M  V30 28 H 3.396966 -8.140164 -2.944252 0
M  V30 29 H 1.758998 -7.729062 -3.569834 0
M  V30 30 H 2.073786 -7.696589 -1.814384 0
M  V30 31 H 0.634578 -6.262446 -1.595982 0
M  V30 32 H -0.664518 -4.348436 -0.607397 0
M  V30 33 H 3.635547 -3.574336 -2.933721 0
M  V30 34 H 3.572476 -1.519629 -2.735222 0
M  V30 35 H 2.383016 2.012293 -0.504988 0
M  V30 36 H 0.838443 2.917142 1.165930 0
M  V30 37 H -3.035992 0.708392 1.580994 0
M  V30 38 H -4.530548 1.654466 3.206499 0
M  V30 39 H -3.865072 2.723219 5.908981 0
M  V30 40 H -3.906522 2.766442 5.922494 0
M  V30 41 H 0.805091 3.700274 4.984627 0
M  V30 42 H 0.272593 5.358929 4.404384 0
M  V30 43 H 0.300357 5.014443 6.147658 0
M  V30 44 H 0.247026 2.936605 3.183227 0
M  V30 45 H -1.438083 -0.742112 1.071242 0
M  V30 46 H -1.069073 -2.238174 -0.441172 0
M  V30 END ATOM
M  V30 BEGIN BOND
M  V30 1 1 1 2
M  V30 2 1 2 3
M  V30 3 2 3 4
M  V30 4 1 4 5
M  V30 5 2 5 6
M  V30 6 1 6 7
M  V30 7 2 7 8
M  V30 8 1 7 9
M  V30 9 1 9 10
M  V30 10 2 10 11
M  V30 11 1 10 12
M  V30 12 2 12 13
M  V30 13 1 13 14
M  V30 14 2 14 15
M  V30 15 1 15 16
M  V30 16 2 16 17
M  V30 17 1 17 18
M  V30 18 2 18 19
M  V30 19 1 19 20
M  V30 20 1 19 21
M  V30 21 1 21 22
M  V30 22 1 22 23
M  V30 23 2 21 24
M  V30 24 1 15 25
M  V30 25 2 25 26
M  V30 26 1 26 27
M  V30 27 1 8 3
M  V30 28 1 26 12
M  V30 29 1 27 6
M  V30 30 1 24 16
M  V30 31 1 1 28
M  V30 32 1 1 29
M  V30 33 1 1 30
M  V30 34 1 4 31
M  V30 35 1 5 32
M  V30 36 1 8 33
M  V30 37 1 9 34
M  V30 38 1 13 35
M  V30 39 1 14 36
M  V30 40 1 17 37
M  V30 41 1 18 38
M  V30 42 1 20 39
M  V30 43 1 20 40
M  V30 44 1 23 41
M  V30 45 1 23 42
M  V30 46 1 23 43
M  V30 47 1 24 44
M  V30 48 1 25 45
M  V30 49 1 27 46
M  V30 END BOND
M  V30 END CTAB
M  END
>  <Dataset>  (339) 
ChEMBL_Kinases

>  <Ligand_Instance>  (339) 
nan

>  <PDB_ID>  (339) 
nan

>  <Standardized_SMILES>  (339) 
COc1ccc2c(c1)NC(=O)c1ccc(-c3ccc(N)c(OC)c3)cc1N2

>  <Name>  (339) 
nan

>  <Pocket>  (339) 
nan

>  <ATP_Site>  (339) 
nan

>  <Peripheral>  (339) 
nan

>  <Num_H_Atoms_ProtBoundConf>  (339) 
nan

>  <Num_Resolved_Atoms>  (339) 
nan

>  <Num_Not_Resolved_Atoms>  (339) 
nan

$$$$
CHEMBL3702042
     RDKit          3D

  0  0  0  0  0  0  0  0  0  0999 V3000
M  V30 BEGIN CTAB
M  V30 COUNTS 62 67 0 0 0
M  V30 BEGIN ATOM
M  V30 1 C 4.412176 -0.139771 3.378300 0
M  V30 2 N 3.534549 -0.642830 2.346900 0
M  V30 3 C 2.574979 -1.542812 2.881916 0
M  V30 4 C 4.264056 -1.118120 1.188342 0
M  V30 5 C 4.991448 0.029501 0.607940 0
M  V30 6 C 4.530514 0.520550 -0.734691 0
M  V30 7 N 3.089718 0.332636 -0.744998 0
M  V30 8 C 1.968760 1.295838 -0.682611 0
M  V30 9 N 0.869377 1.512157 -0.583749 0
M  V30 10 C 0.285281 2.693338 -0.642101 0
M  V30 11 N -1.095162 3.002175 -0.474992 0
M  V30 12 C -2.133473 2.091737 -0.172514 0
M  V30 13 N -3.391637 2.567648 -0.064692 0
M  V30 14 C -4.469150 1.846611 0.249128 0
M  V30 15 C -4.263512 0.500621 0.480240 0
M  V30 16 C -5.179551 -0.460771 0.827062 0
M  V30 17 C -6.540814 -0.415994 1.045796 0
M  V30 18 C -7.246090 -1.543168 1.396319 0
M  V30 19 N -6.536716 -2.685855 1.512744 0
M  V30 20 C -5.210241 -2.725132 1.298912 0
M  V30 21 C -4.459798 -1.618845 0.944686 0
M  V30 22 N -3.138649 -1.388348 0.679956 0
M  V30 23 C -2.097368 -2.340619 0.707212 0
M  V30 24 C -2.204332 -3.633324 0.027372 0
M  V30 25 C -2.307381 -3.286355 -1.426682 0
M  V30 26 C -1.409811 -2.045686 -1.505968 0
M  V30 27 C -0.888696 -1.853356 -0.119198 0
M  V30 28 C -3.008749 -0.057824 0.387656 0
M  V30 29 N -2.028233 0.779406 0.066383 0
M  V30 30 N 1.123712 3.829560 -0.852820 0
M  V30 31 S 2.747460 2.991511 -0.942983 0
M  V30 32 C 2.814950 -1.091128 -0.867909 0
M  V30 33 C 3.390313 -1.883260 0.255481 0
M  V30 34 H 3.987844 0.779653 3.840812 0
M  V30 35 H 5.446918 -0.031810 3.024765 0
M  V30 36 H 4.437280 -0.938824 4.165987 0
M  V30 37 H 1.574406 -1.432349 2.379351 0
M  V30 38 H 2.893181 -2.604202 2.933413 0
M  V30 39 H 2.381690 -1.224608 3.933813 0
M  V30 40 H 5.024422 -1.834981 1.604140 0
M  V30 41 H 6.090536 -0.195474 0.493304 0
M  V30 42 H 4.995298 0.920084 1.297615 0
M  V30 43 H 4.956025 -0.035515 -1.586590 0
M  V30 44 H 4.798741 1.598091 -0.811970 0
M  V30 45 H -1.414614 4.013914 -0.580315 0
M  V30 46 H -5.433155 2.340347 0.308860 0
M  V30 47 H -7.133598 0.495370 0.955001 0
M  V30 48 H -8.314475 -1.623188 1.591919 0
M  V30 49 H -4.721187 -3.672665 1.418515 0
M  V30 50 H -1.654122 -2.528685 1.713077 0
M  V30 51 H -2.778424 -4.445645 0.416892 0
M  V30 52 H -1.147670 -4.072469 0.079656 0
M  V30 53 H -3.289605 -2.990299 -1.765029 0
M  V30 54 H -1.909416 -4.105675 -2.048183 0
M  V30 55 H -0.573436 -2.283846 -2.189327 0
M  V30 56 H -1.942384 -1.190553 -1.923498 0
M  V30 57 H -0.463760 -0.931438 0.165490 0
M  V30 58 H -0.104550 -2.654166 0.029757 0
M  V30 59 H 1.739039 -1.225630 -1.025406 0
M  V30 60 H 3.286791 -1.397053 -1.848030 0
M  V30 61 H 2.545030 -2.319045 0.829514 0
M  V30 62 H 3.934079 -2.751671 -0.186263 0
M  V30 END ATOM
M  V30 BEGIN BOND
M  V30 1 1 1 2
M  V30 2 1 2 3
M  V30 3 1 2 4
M  V30 4 1 4 5
M  V30 5 1 5 6
M  V30 6 1 6 7
M  V30 7 1 7 8
M  V30 8 2 8 9
M  V30 9 1 9 10
M  V30 10 1 10 11
M  V30 11 1 11 12
M  V30 12 2 12 13
M  V30 13 1 13 14
M  V30 14 2 14 15
M  V30 15 1 15 16
M  V30 16 2 16 17
M  V30 17 1 17 18
M  V30 18 2 18 19
M  V30 19 1 19 20
M  V30 20 2 20 21
M  V30 21 1 21 22
M  V30 22 1 22 23
M  V30 23 1 23 24
M  V30 24 1 24 25
M  V30 25 1 25 26
M  V30 26 1 26 27
M  V30 27 1 22 28
M  V30 28 2 28 29
M  V30 29 2 10 30
M  V30 30 1 30 31
M  V30 31 1 7 32
M  V30 32 1 32 33
M  V30 33 1 33 4
M  V30 34 1 31 8
M  V30 35 1 29 12
M  V30 36 1 28 15
M  V30 37 1 21 16
M  V30 38 1 27 23
M  V30 39 1 1 34
M  V30 40 1 1 35
M  V30 41 1 1 36
M  V30 42 1 3 37
M  V30 43 1 3 38
M  V30 44 1 3 39
M  V30 45 1 4 40
M  V30 46 1 5 41
M  V30 47 1 5 42
M  V30 48 1 6 43
M  V30 49 1 6 44
M  V30 50 1 11 45
M  V30 51 1 14 46
M  V30 52 1 17 47
M  V30 53 1 18 48
M  V30 54 1 20 49
M  V30 55 1 23 50
M  V30 56 1 24 51
M  V30 57 1 24 52
M  V30 58 1 25 53
M  V30 59 1 25 54
M  V30 60 1 26 55
M  V30 61 1 26 56
M  V30 62 1 27 57
M  V30 63 1 27 58
M  V30 64 1 32 59
M  V30 65 1 32 60
M  V30 66 1 33 61
M  V30 67 1 33 62
M  V30 END BOND
M  V30 END CTAB
M  END
>  <Dataset>  (340) 
ChEMBL_Kinases

>  <Ligand_Instance>  (340) 
nan

>  <PDB_ID>  (340) 
nan

>  <Standardized_SMILES>  (340) 
CN(C)C1CCN(c2nc(Nc3ncc4c5ccncc5n(C5CCCC5)c4n3)ns2)CC1

>  <Name>  (340) 
nan

>  <Pocket>  (340) 
nan

>  <ATP_Site>  (340) 
nan

>  <Peripheral>  (340) 
nan

>  <Num_H_Atoms_ProtBoundConf>  (340) 
nan

>  <Num_Resolved_Atoms>  (340) 
nan

>  <Num_Not_Resolved_Atoms>  (340) 
nan

$$$$
CHEMBL3960549
     RDKit          3D

  0  0  0  0  0  0  0  0  0  0999 V3000
M  V30 BEGIN CTAB
M  V30 COUNTS 39 42 0 0 0
M  V30 BEGIN ATOM
M  V30 1 O -0.930872 -8.547219 1.389635 0
M  V30 2 C -1.049088 -7.439775 1.944878 0
M  V30 3 O -1.394705 -7.575169 3.276096 0
M  V30 4 C -0.833453 -6.195946 1.214706 0
M  V30 5 C -0.494724 -6.345598 -0.114519 0
M  V30 6 C -0.280197 -5.192272 -0.848217 0
M  V30 7 C -0.397381 -3.921701 -0.282763 0
M  V30 8 N -0.258267 -2.649537 -0.713108 0
M  V30 9 C -0.502282 -1.808754 0.307960 0
M  V30 10 C -0.455111 -0.351043 0.250950 0
M  V30 11 C -0.141577 0.312968 -0.909857 0
M  V30 12 C -0.112982 1.705692 -0.900343 0
M  V30 13 C -0.394514 2.408054 0.254458 0
M  V30 14 O -0.377002 3.813327 0.308116 0
M  V30 15 C 0.830717 4.424965 0.641222 0
M  V30 16 C 1.794090 4.807774 -0.269225 0
M  V30 17 C 2.967115 5.413912 0.189406 0
M  V30 18 C 3.124583 5.611066 1.546934 0
M  V30 19 Cl 4.612382 6.378727 2.116315 0
M  V30 20 C 2.189800 5.244464 2.484596 0
M  V30 21 C 1.027857 4.640519 1.990747 0
M  V30 22 C -0.716344 1.763244 1.449164 0
M  V30 23 C -0.730984 0.384582 1.386642 0
M  V30 24 Cl -1.130733 -0.508043 2.862670 0
M  V30 25 N -0.789827 -2.562654 1.359995 0
M  V30 26 C -0.740466 -3.887627 1.053374 0
M  V30 27 C -0.972559 -4.983922 1.860275 0
M  V30 28 H -0.857529 -8.131230 3.946697 0
M  V30 29 H -0.394003 -7.312316 -0.589673 0
M  V30 30 H -0.012710 -5.231656 -1.891048 0
M  V30 31 H -0.000388 -2.429425 -1.696124 0
M  V30 32 H 0.074119 -0.257552 -1.797420 0
M  V30 33 H 0.130686 2.261031 -1.799079 0
M  V30 34 H 1.606326 4.625126 -1.300993 0
M  V30 35 H 3.703111 5.702110 -0.553816 0
M  V30 36 H 2.355587 5.418686 3.540540 0
M  V30 37 H 0.315303 4.367404 2.776411 0
M  V30 38 H -0.939557 2.296603 2.362706 0
M  V30 39 H -1.237456 -4.889616 2.897805 0
M  V30 END ATOM
M  V30 BEGIN BOND
M  V30 1 2 1 2
M  V30 2 1 2 3
M  V30 3 1 2 4
M  V30 4 2 4 5
M  V30 5 1 5 6
M  V30 6 2 6 7
M  V30 7 1 7 8
M  V30 8 1 8 9
M  V30 9 1 9 10
M  V30 10 2 10 11
M  V30 11 1 11 12
M  V30 12 2 12 13
M  V30 13 1 13 14
M  V30 14 1 14 15
M  V30 15 2 15 16
M  V30 16 1 16 17
M  V30 17 2 17 18
M  V30 18 1 18 19
M  V30 19 1 18 20
M  V30 20 2 20 21
M  V30 21 1 13 22
M  V30 22 2 22 23
M  V30 23 1 23 24
M  V30 24 2 9 25
M  V30 25 1 25 26
M  V30 26 2 26 27
M  V30 27 1 27 4
M  V30 28 1 26 7
M  V30 29 1 23 10
M  V30 30 1 21 15
M  V30 31 1 3 28
M  V30 32 1 5 29
M  V30 33 1 6 30
M  V30 34 1 8 31
M  V30 35 1 11 32
M  V30 36 1 12 33
M  V30 37 1 16 34
M  V30 38 1 17 35
M  V30 39 1 20 36
M  V30 40 1 21 37
M  V30 41 1 22 38
M  V30 42 1 27 39
M  V30 END BOND
M  V30 END CTAB
M  END
>  <Dataset>  (341) 
ChEMBL_Kinases

>  <Ligand_Instance>  (341) 
nan

>  <PDB_ID>  (341) 
nan

>  <Standardized_SMILES>  (341) 
O=C(O)c1ccc2[nH]c(-c3ccc(Oc4ccc(Cl)cc4)cc3Cl)nc2c1

>  <Name>  (341) 
nan

>  <Pocket>  (341) 
nan

>  <ATP_Site>  (341) 
nan

>  <Peripheral>  (341) 
nan

>  <Num_H_Atoms_ProtBoundConf>  (341) 
nan

>  <Num_Resolved_Atoms>  (341) 
nan

>  <Num_Not_Resolved_Atoms>  (341) 
nan

$$$$
CHEMBL3960448
     RDKit          3D

  0  0  0  0  0  0  0  0  0  0999 V3000
M  V30 BEGIN CTAB
M  V30 COUNTS 46 49 0 0 0
M  V30 BEGIN ATOM
M  V30 1 N 3.478071 -4.297888 -7.076024 0
M  V30 2 C 3.220737 -5.135762 -5.950616 0
M  V30 3 O 3.495510 -6.333756 -6.215522 0
M  V30 4 C 2.710708 -4.647731 -4.681877 0
M  V30 5 C 2.513455 -5.584375 -3.688717 0
M  V30 6 C 2.023832 -5.104568 -2.475503 0
M  V30 7 C 1.761400 -3.746590 -2.316662 0
M  V30 8 N 1.290623 -3.028333 -1.264796 0
M  V30 9 C 1.213018 -1.720665 -1.622345 0
M  V30 10 C 0.762822 -0.571070 -0.823300 0
M  V30 11 C 0.754724 0.700979 -1.367081 0
M  V30 12 C 0.327804 1.783460 -0.606591 0
M  V30 13 C -0.084133 1.535350 0.703749 0
M  V30 14 S -0.598286 2.973771 1.558510 0
M  V30 15 O -0.409682 2.688388 3.031724 0
M  V30 16 O 0.184187 4.182013 1.217924 0
M  V30 17 N -2.290139 3.183880 1.296869 0
M  V30 18 C -3.066746 2.096237 1.797447 0
M  V30 19 C -4.505810 2.405633 1.506298 0
M  V30 20 C -5.116199 2.013795 0.327756 0
M  V30 21 C -6.445999 2.305792 0.071163 0
M  V30 22 N -7.187230 2.986305 0.972538 0
M  V30 23 C -6.631926 3.386419 2.132751 0
M  V30 24 C -5.310640 3.096931 2.388981 0
M  V30 25 C -0.079160 0.269510 1.253915 0
M  V30 26 C 0.353626 -0.810153 0.475096 0
M  V30 27 N 1.640772 -1.653551 -2.899378 0
M  V30 28 C 1.982741 -2.865829 -3.355163 0
M  V30 29 C 2.473395 -3.291087 -4.595703 0
M  V30 30 H 4.206491 -3.717630 -7.514236 0
M  V30 31 H 2.636966 -4.219736 -7.717489 0
M  V30 32 H 2.732266 -6.629929 -3.859817 0
M  V30 33 H 1.847972 -5.774619 -1.663765 0
M  V30 34 H 1.019873 -3.369314 -0.323206 0
M  V30 35 H 1.091319 0.831115 -2.405450 0
M  V30 36 H 0.336364 2.759297 -1.066861 0
M  V30 37 H -2.460187 3.432471 0.310908 0
M  V30 38 H -2.737314 1.151823 1.363392 0
M  V30 39 H -2.977334 2.123062 2.921607 0
M  V30 40 H -4.531530 1.458957 -0.419728 0
M  V30 41 H -6.832884 1.951077 -0.890355 0
M  V30 42 H -7.233108 3.932953 2.852883 0
M  V30 43 H -4.839674 3.415499 3.331066 0
M  V30 44 H -0.420883 0.184446 2.287094 0
M  V30 45 H 0.339323 -1.780215 0.949408 0
M  V30 46 H 2.652488 -2.624315 -5.415445 0
M  V30 END ATOM
M  V30 BEGIN BOND
M  V30 1 1 1 2
M  V30 2 2 2 3
M  V30 3 1 2 4
M  V30 4 2 4 5
M  V30 5 1 5 6
M  V30 6 2 6 7
M  V30 7 1 7 8
M  V30 8 1 8 9
M  V30 9 1 9 10
M  V30 10 2 10 11
M  V30 11 1 11 12
M  V30 12 2 12 13
M  V30 13 1 13 14
M  V30 14 2 14 15
M  V30 15 2 14 16
M  V30 16 1 14 17
M  V30 17 1 17 18
M  V30 18 1 18 19
M  V30 19 2 19 20
M  V30 20 1 20 21
M  V30 21 2 21 22
M  V30 22 1 22 23
M  V30 23 2 23 24
M  V30 24 1 13 25
M  V30 25 2 25 26
M  V30 26 2 9 27
M  V30 27 1 27 28
M  V30 28 2 28 29
M  V30 29 1 29 4
M  V30 30 1 28 7
M  V30 31 1 26 10
M  V30 32 1 24 19
M  V30 33 1 1 30
M  V30 34 1 1 31
M  V30 35 1 5 32
M  V30 36 1 6 33
M  V30 37 1 8 34
M  V30 38 1 11 35
M  V30 39 1 12 36
M  V30 40 1 17 37
M  V30 41 1 18 38
M  V30 42 1 18 39
M  V30 43 1 20 40
M  V30 44 1 21 41
M  V30 45 1 23 42
M  V30 46 1 24 43
M  V30 47 1 25 44
M  V30 48 1 26 45
M  V30 49 1 29 46
M  V30 END BOND
M  V30 END CTAB
M  END
>  <Dataset>  (342) 
ChEMBL_Kinases

>  <Ligand_Instance>  (342) 
nan

>  <PDB_ID>  (342) 
nan

>  <Standardized_SMILES>  (342) 
NC(=O)c1ccc2[nH]c(-c3ccc(S(=O)(=O)NCc4ccncc4)cc3)nc2c1

>  <Name>  (342) 
nan

>  <Pocket>  (342) 
nan

>  <ATP_Site>  (342) 
nan

>  <Peripheral>  (342) 
nan

>  <Num_H_Atoms_ProtBoundConf>  (342) 
nan

>  <Num_Resolved_Atoms>  (342) 
nan

>  <Num_Not_Resolved_Atoms>  (342) 
nan

$$$$
CHEMBL3702043
     RDKit          3D

  0  0  0  0  0  0  0  0  0  0999 V3000
M  V30 BEGIN CTAB
M  V30 COUNTS 53 58 0 0 0
M  V30 BEGIN ATOM
M  V30 1 C -1.960599 -2.964409 4.550669 0
M  V30 2 C -1.139053 -2.145148 3.802671 0
M  V30 3 C -1.430834 -1.925546 2.472445 0
M  V30 4 C -0.768465 -1.158467 1.536397 0
M  V30 5 C 0.354183 -0.354699 1.501311 0
M  V30 6 N 0.750311 0.285288 0.375094 0
M  V30 7 C 0.025091 0.137057 -0.761619 0
M  V30 8 N 0.477787 0.825745 -1.912596 0
M  V30 9 C 1.642192 1.622720 -1.834783 0
M  V30 10 N 2.000529 2.294172 -3.132704 0
M  V30 11 S 3.497058 3.179799 -2.603252 0
M  V30 12 C 3.411494 2.566451 -0.888690 0
M  V30 13 N 4.405021 2.955515 0.086900 0
M  V30 14 C 4.364798 2.483101 1.443301 0
M  V30 15 C 3.085054 2.864681 2.144510 0
M  V30 16 C 3.015770 1.834402 3.249858 0
M  V30 17 N 3.781803 0.692960 2.855868 0
M  V30 18 C 4.326919 0.978124 1.541315 0
M  V30 19 N 2.387634 1.800610 -0.754873 0
M  V30 20 N -1.067216 -0.644274 -0.729744 0
M  V30 21 C -1.490008 -1.294079 0.368248 0
M  V30 22 N -2.567367 -2.108198 0.535660 0
M  V30 23 C -3.561171 -2.499332 -0.434633 0
M  V30 24 C -3.916135 -3.943200 -0.439332 0
M  V30 25 C -3.985063 -4.424364 -1.867717 0
M  V30 26 C -3.566245 -3.283332 -2.743427 0
M  V30 27 C -2.882744 -2.332819 -1.794125 0
M  V30 28 C -2.518171 -2.485427 1.823234 0
M  V30 29 C -3.294063 -3.291234 2.629917 0
M  V30 30 N -3.003050 -3.501922 3.930582 0
M  V30 31 H -1.731372 -3.136217 5.593465 0
M  V30 32 H -0.255712 -1.658790 4.231575 0
M  V30 33 H 0.850708 -0.316564 2.478976 0
M  V30 34 H -0.115700 0.677610 -2.756932 0
M  V30 35 H 5.180175 3.605007 -0.208674 0
M  V30 36 H 5.263981 2.847800 1.983499 0
M  V30 37 H 2.238504 2.794032 1.434850 0
M  V30 38 H 3.175880 3.869964 2.583353 0
M  V30 39 H 1.967613 1.557508 3.474134 0
M  V30 40 H 3.499822 2.270770 4.162316 0
M  V30 41 H 3.221817 -0.178490 2.783395 0
M  V30 42 H 3.737821 0.536816 0.734760 0
M  V30 43 H 5.388408 0.637179 1.450952 0
M  V30 44 H -4.465401 -1.845306 -0.399200 0
M  V30 45 H -3.218025 -4.584470 0.164696 0
M  V30 46 H -4.961381 -4.067887 -0.029468 0
M  V30 47 H -3.394371 -5.359418 -2.019640 0
M  V30 48 H -5.022791 -4.697124 -2.193524 0
M  V30 49 H -4.413962 -2.738189 -3.218607 0
M  V30 50 H -2.870420 -3.623757 -3.539997 0
M  V30 51 H -2.868854 -1.301136 -2.139272 0
M  V30 52 H -1.830843 -2.693878 -1.668932 0
M  V30 53 H -4.165290 -3.773617 2.215393 0
M  V30 END ATOM
M  V30 BEGIN BOND
M  V30 1 2 1 2
M  V30 2 1 2 3
M  V30 3 1 3 4
M  V30 4 2 4 5
M  V30 5 1 5 6
M  V30 6 2 6 7
M  V30 7 1 7 8
M  V30 8 1 8 9
M  V30 9 2 9 10
M  V30 10 1 10 11
M  V30 11 1 11 12
M  V30 12 1 12 13
M  V30 13 1 13 14
M  V30 14 1 14 15
M  V30 15 1 15 16
M  V30 16 1 16 17
M  V30 17 1 17 18
M  V30 18 2 12 19
M  V30 19 1 7 20
M  V30 20 2 20 21
M  V30 21 1 21 22
M  V30 22 1 22 23
M  V30 23 1 23 24
M  V30 24 1 24 25
M  V30 25 1 25 26
M  V30 26 1 26 27
M  V30 27 1 22 28
M  V30 28 1 28 29
M  V30 29 2 29 30
M  V30 30 1 30 1
M  V30 31 2 28 3
M  V30 32 1 21 4
M  V30 33 1 27 23
M  V30 34 1 19 9
M  V30 35 1 18 14
M  V30 36 1 1 31
M  V30 37 1 2 32
M  V30 38 1 5 33
M  V30 39 1 8 34
M  V30 40 1 13 35
M  V30 41 1 14 36
M  V30 42 1 15 37
M  V30 43 1 15 38
M  V30 44 1 16 39
M  V30 45 1 16 40
M  V30 46 1 17 41
M  V30 47 1 18 42
M  V30 48 1 18 43
M  V30 49 1 23 44
M  V30 50 1 24 45
M  V30 51 1 24 46
M  V30 52 1 25 47
M  V30 53 1 25 48
M  V30 54 1 26 49
M  V30 55 1 26 50
M  V30 56 1 27 51
M  V30 57 1 27 52
M  V30 58 1 29 53
M  V30 END BOND
M  V30 END CTAB
M  END
>  <Dataset>  (343) 
ChEMBL_Kinases

>  <Ligand_Instance>  (343) 
nan

>  <PDB_ID>  (343) 
nan

>  <Standardized_SMILES>  (343) 
c1cc2c3cnc(Nc4nsc(NC5CCNC5)n4)nc3n(C3CCCC3)c2cn1

>  <Name>  (343) 
nan

>  <Pocket>  (343) 
nan

>  <ATP_Site>  (343) 
nan

>  <Peripheral>  (343) 
nan

>  <Num_H_Atoms_ProtBoundConf>  (343) 
nan

>  <Num_Resolved_Atoms>  (343) 
nan

>  <Num_Not_Resolved_Atoms>  (343) 
nan

$$$$
CHEMBL3702044
     RDKit          3D

  0  0  0  0  0  0  0  0  0  0999 V3000
M  V30 BEGIN CTAB
M  V30 COUNTS 63 68 0 0 0
M  V30 BEGIN ATOM
M  V30 1 C 4.441881 0.444760 5.294240 0
M  V30 2 C 3.846634 -0.964431 5.158319 0
M  V30 3 C 4.686939 -1.841747 6.070602 0
M  V30 4 C 4.022330 -1.379348 3.737739 0
M  V30 5 N 2.721086 -1.456334 3.079441 0
M  V30 6 C 2.360413 -0.759790 1.897341 0
M  V30 7 C 3.239932 -0.114981 1.066274 0
M  V30 8 C 2.767205 0.540902 -0.064635 0
M  V30 9 C 1.408269 0.572548 -0.398331 0
M  V30 10 N 0.964356 1.245296 -1.589574 0
M  V30 11 C -0.448693 1.201820 -1.743563 0
M  V30 12 N -1.013204 2.438893 -1.619037 0
M  V30 13 C -2.368836 2.565475 -1.723588 0
M  V30 14 C -3.145413 1.439807 -1.953000 0
M  V30 15 C -4.510031 1.204053 -2.104181 0
M  V30 16 C -5.506921 2.154340 -2.057815 0
M  V30 17 C -6.817156 1.695372 -2.234888 0
M  V30 18 N -7.010827 0.388762 -2.433290 0
M  V30 19 C -6.021432 -0.506097 -2.472604 0
M  V30 20 C -4.685519 -0.138639 -2.306285 0
M  V30 21 N -3.492480 -0.758998 -2.289405 0
M  V30 22 C -3.330796 -2.175065 -2.463010 0
M  V30 23 C -1.938423 -2.664530 -2.275947 0
M  V30 24 C -1.269702 -2.603187 -3.608067 0
M  V30 25 C -2.302020 -2.012206 -4.563195 0
M  V30 26 C -3.599845 -2.494814 -3.918632 0
M  V30 27 C -2.551337 0.181100 -2.077443 0
M  V30 28 N -1.213637 0.130343 -1.964463 0
M  V30 29 N 0.606436 -0.078965 0.460898 0
M  V30 30 C 1.029839 -0.721147 1.559702 0
M  V30 31 C 1.847413 -2.359958 3.795325 0
M  V30 32 C 1.614121 -1.911815 5.213889 0
M  V30 33 N 2.527753 -0.915714 5.666179 0
M  V30 34 H 3.906802 0.984329 6.116396 0
M  V30 35 H 4.370381 1.005975 4.343475 0
M  V30 36 H 5.528113 0.366692 5.562722 0
M  V30 37 H 4.119064 -2.168382 6.958797 0
M  V30 38 H 5.037161 -2.748281 5.533633 0
M  V30 39 H 5.594334 -1.332809 6.452931 0
M  V30 40 H 4.708437 -0.715134 3.186075 0
M  V30 41 H 4.468490 -2.410575 3.730287 0
M  V30 42 H 4.292011 -0.126100 1.301429 0
M  V30 43 H 3.485590 1.046724 -0.706686 0
M  V30 44 H 1.668963 1.674563 -2.191175 0
M  V30 45 H -2.852144 3.538452 -1.629160 0
M  V30 46 H -5.383777 3.200747 -1.901942 0
M  V30 47 H -7.629961 2.408462 -2.205526 0
M  V30 48 H -6.236815 -1.567638 -2.639118 0
M  V30 49 H -3.990338 -2.737306 -1.767364 0
M  V30 50 H -1.392321 -2.178670 -1.447892 0
M  V30 51 H -1.996644 -3.756935 -2.000961 0
M  V30 52 H -0.320394 -2.039802 -3.641534 0
M  V30 53 H -1.043430 -3.620013 -4.036188 0
M  V30 54 H -2.318960 -0.907425 -4.437036 0
M  V30 55 H -2.189628 -2.353875 -5.591362 0
M  V30 56 H -3.752132 -3.584770 -4.028239 0
M  V30 57 H -4.472257 -1.903934 -4.271058 0
M  V30 58 H 0.193633 -1.161060 2.082813 0
M  V30 59 H 2.416383 -3.335400 3.873852 0
M  V30 60 H 0.936345 -2.625657 3.238822 0
M  V30 61 H 1.624877 -2.769804 5.915707 0
M  V30 62 H 0.586960 -1.493396 5.264154 0
M  V30 63 H 2.127456 0.032747 5.815443 0
M  V30 END ATOM
M  V30 BEGIN BOND
M  V30 1 1 1 2
M  V30 2 1 2 3
M  V30 3 1 2 4
M  V30 4 1 4 5
M  V30 5 1 5 6
M  V30 6 2 6 7
M  V30 7 1 7 8
M  V30 8 2 8 9
M  V30 9 1 9 10
M  V30 10 1 10 11
M  V30 11 2 11 12
M  V30 12 1 12 13
M  V30 13 2 13 14
M  V30 14 1 14 15
M  V30 15 2 15 16
M  V30 16 1 16 17
M  V30 17 2 17 18
M  V30 18 1 18 19
M  V30 19 2 19 20
M  V30 20 1 20 21
M  V30 21 1 21 22
M  V30 22 1 22 23
M  V30 23 1 23 24
M  V30 24 1 24 25
M  V30 25 1 25 26
M  V30 26 1 21 27
M  V30 27 2 27 28
M  V30 28 1 9 29
M  V30 29 2 29 30
M  V30 30 1 5 31
M  V30 31 1 31 32
M  V30 32 1 32 33
M  V30 33 1 33 2
M  V30 34 1 30 6
M  V30 35 1 28 11
M  V30 36 1 27 14
M  V30 37 1 20 15
M  V30 38 1 26 22
M  V30 39 1 1 34
M  V30 40 1 1 35
M  V30 41 1 1 36
M  V30 42 1 3 37
M  V30 43 1 3 38
M  V30 44 1 3 39
M  V30 45 1 4 40
M  V30 46 1 4 41
M  V30 47 1 7 42
M  V30 48 1 8 43
M  V30 49 1 10 44
M  V30 50 1 13 45
M  V30 51 1 16 46
M  V30 52 1 17 47
M  V30 53 1 19 48
M  V30 54 1 22 49
M  V30 55 1 23 50
M  V30 56 1 23 51
M  V30 57 1 24 52
M  V30 58 1 24 53
M  V30 59 1 25 54
M  V30 60 1 25 55
M  V30 61 1 26 56
M  V30 62 1 26 57
M  V30 63 1 30 58
M  V30 64 1 31 59
M  V30 65 1 31 60
M  V30 66 1 32 61
M  V30 67 1 32 62
M  V30 68 1 33 63
M  V30 END BOND
M  V30 END CTAB
M  END
>  <Dataset>  (344) 
ChEMBL_Kinases

>  <Ligand_Instance>  (344) 
nan

>  <PDB_ID>  (344) 
nan

>  <Standardized_SMILES>  (344) 
CC1(C)CN(c2ccc(Nc3ncc4c5ccncc5n(C5CCCC5)c4n3)nc2)CCN1

>  <Name>  (344) 
nan

>  <Pocket>  (344) 
nan

>  <ATP_Site>  (344) 
nan

>  <Peripheral>  (344) 
nan

>  <Num_H_Atoms_ProtBoundConf>  (344) 
nan

>  <Num_Resolved_Atoms>  (344) 
nan

>  <Num_Not_Resolved_Atoms>  (344) 
nan

$$$$
CHEMBL396034
     RDKit          3D

  0  0  0  0  0  0  0  0  0  0999 V3000
M  V30 BEGIN CTAB
M  V30 COUNTS 26 28 0 0 0
M  V30 BEGIN ATOM
M  V30 1 O -1.080950 -2.215655 3.023360 0
M  V30 2 C -0.443074 -1.507211 2.202299 0
M  V30 3 N 0.594596 -2.146577 1.443742 0
M  V30 4 C 1.070173 -1.808648 0.143229 0
M  V30 5 C 1.680213 -2.922265 -0.438569 0
M  V30 6 C 2.196784 -2.748114 -1.715713 0
M  V30 7 Cl 2.953589 -4.154434 -2.420063 0
M  V30 8 C 2.098037 -1.522187 -2.355836 0
M  V30 9 C 1.481546 -0.430017 -1.744557 0
M  V30 10 C 0.956130 -0.571301 -0.470717 0
M  V30 11 N 0.368014 0.626172 0.003187 0
M  V30 12 C -0.465945 0.844008 1.135544 0
M  V30 13 C -0.962584 2.108779 1.278558 0
M  V30 14 C -1.785138 2.498398 2.313611 0
M  V30 15 C -2.145096 1.565872 3.282896 0
M  V30 16 C -1.640434 0.286272 3.134949 0
M  V30 17 C -0.820982 -0.082229 2.094598 0
M  V30 18 H 1.028821 -2.948586 1.933443 0
M  V30 19 H 1.722228 -3.856377 0.123464 0
M  V30 20 H 2.514669 -1.442881 -3.342948 0
M  V30 21 H 1.413275 0.522260 -2.260646 0
M  V30 22 H 0.553680 1.485589 -0.531283 0
M  V30 23 H -0.694702 2.840606 0.539506 0
M  V30 24 H -2.145732 3.500511 2.378219 0
M  V30 25 H -2.782523 1.817627 4.108485 0
M  V30 26 H -1.888636 -0.476541 3.859389 0
M  V30 END ATOM
M  V30 BEGIN BOND
M  V30 1 2 1 2
M  V30 2 1 2 3
M  V30 3 1 3 4
M  V30 4 2 4 5
M  V30 5 1 5 6
M  V30 6 1 6 7
M  V30 7 2 6 8
M  V30 8 1 8 9
M  V30 9 2 9 10
M  V30 10 1 10 11
M  V30 11 1 11 12
M  V30 12 2 12 13
M  V30 13 1 13 14
M  V30 14 2 14 15
M  V30 15 1 15 16
M  V30 16 2 16 17
M  V30 17 1 17 2
M  V30 18 1 10 4
M  V30 19 1 17 12
M  V30 20 1 3 18
M  V30 21 1 5 19
M  V30 22 1 8 20
M  V30 23 1 9 21
M  V30 24 1 11 22
M  V30 25 1 13 23
M  V30 26 1 14 24
M  V30 27 1 15 25
M  V30 28 1 16 26
M  V30 END BOND
M  V30 END CTAB
M  END
>  <Dataset>  (345) 
ChEMBL_Kinases

>  <Ligand_Instance>  (345) 
nan

>  <PDB_ID>  (345) 
nan

>  <Standardized_SMILES>  (345) 
O=C1Nc2cc(Cl)ccc2Nc2ccccc21

>  <Name>  (345) 
nan

>  <Pocket>  (345) 
nan

>  <ATP_Site>  (345) 
nan

>  <Peripheral>  (345) 
nan

>  <Num_H_Atoms_ProtBoundConf>  (345) 
nan

>  <Num_Resolved_Atoms>  (345) 
nan

>  <Num_Not_Resolved_Atoms>  (345) 
nan

$$$$
CHEMBL396027
     RDKit          3D

  0  0  0  0  0  0  0  0  0  0999 V3000
M  V30 BEGIN CTAB
M  V30 COUNTS 69 74 0 0 0
M  V30 BEGIN ATOM
M  V30 1 O 0.865914 2.875440 6.250342 0
M  V30 2 C 1.662012 2.774631 5.249061 0
M  V30 3 N 2.832238 3.474530 5.514855 0
M  V30 4 S 3.526827 4.397497 6.767094 0
M  V30 5 O 2.629596 5.603270 7.042754 0
M  V30 6 O 3.615826 3.661825 8.071228 0
M  V30 7 C 5.121026 4.967646 6.348330 0
M  V30 8 C 6.194293 4.137732 6.600035 0
M  V30 9 C 7.434337 4.671398 6.244692 0
M  V30 10 C 7.602837 5.918521 5.687541 0
M  V30 11 C 6.498511 6.717873 5.453370 0
M  V30 12 C 5.238403 6.222838 5.792978 0
M  V30 13 C 1.425082 2.056190 4.009413 0
M  V30 14 C 2.538103 1.730691 3.256592 0
M  V30 15 C 2.321812 1.058039 2.047558 0
M  V30 16 C 1.063443 0.690796 1.540393 0
M  V30 17 C 1.065813 -0.024406 0.281746 0
M  V30 18 N 1.878495 0.314055 -0.748335 0
M  V30 19 N 1.712722 -0.494743 -1.753436 0
M  V30 20 C 0.772865 -1.422529 -1.446331 0
M  V30 21 C 0.358174 -1.134799 -0.165612 0
M  V30 22 C -0.677684 -2.098546 0.258022 0
M  V30 23 C -0.826837 -2.980957 -0.924956 0
M  V30 24 C -1.649879 -4.064278 -1.092043 0
M  V30 25 C -1.669999 -4.815565 -2.268768 0
M  V30 26 C -2.458177 -5.985297 -2.683464 0
M  V30 27 N -3.571051 -5.758705 -3.492605 0
M  V30 28 C -4.699674 -5.049691 -3.038501 0 CFG=1
M  V30 29 C -4.391392 -3.605354 -2.811834 0
M  V30 30 C -5.484177 -2.716846 -3.402525 0
M  V30 31 C -5.580630 -2.925598 -4.900729 0 CFG=2
M  V30 32 O -6.612456 -2.149996 -5.357897 0
M  V30 33 C -5.676146 -4.376617 -5.243802 0
M  V30 34 C -5.878478 -5.225794 -3.990510 0
M  V30 35 C -0.772520 -4.366097 -3.260833 0
M  V30 36 C 0.079051 -3.284722 -3.147245 0
M  V30 37 C 0.033072 -2.597603 -1.951169 0
M  V30 38 C 0.018315 1.059229 2.359771 0
M  V30 39 C 0.181923 1.719531 3.556931 0
M  V30 40 H 3.503320 3.439155 4.685594 0
M  V30 41 H 6.116139 3.150250 7.035121 0
M  V30 42 H 8.321145 4.077805 6.411766 0
M  V30 43 H 8.566718 6.314644 5.422659 0
M  V30 44 H 6.582607 7.704955 5.018403 0
M  V30 45 H 4.336913 6.818977 5.630509 0
M  V30 46 H 3.605811 1.923292 3.467896 0
M  V30 47 H 3.214965 0.799346 1.451805 0
M  V30 48 H 2.179735 -0.522963 -2.702063 0
M  V30 49 H -0.293744 -2.654754 1.136541 0
M  V30 50 H -1.624546 -1.638998 0.577335 0
M  V30 51 H -2.359106 -4.466952 -0.379890 0
M  V30 52 H -1.761083 -6.683709 -3.240113 0
M  V30 53 H -2.750809 -6.493649 -1.706636 0
M  V30 54 H -3.704141 -6.355504 -4.316355 0
M  V30 55 H -5.058167 -5.524836 -2.084212 0
M  V30 56 H -4.380168 -3.399995 -1.727862 0
M  V30 57 H -3.408626 -3.347144 -3.225325 0
M  V30 58 H -6.426356 -2.928799 -2.876454 0
M  V30 59 H -5.196109 -1.675759 -3.178950 0
M  V30 60 H -4.636724 -2.508352 -5.358065 0
M  V30 61 H -6.284348 -1.317015 -5.800370 0
M  V30 62 H -6.572904 -4.537417 -5.884966 0
M  V30 63 H -4.738707 -4.669193 -5.766834 0
M  V30 64 H -5.949845 -6.276077 -4.348475 0
M  V30 65 H -6.833973 -4.906879 -3.538127 0
M  V30 66 H -0.683384 -4.869197 -4.235991 0
M  V30 67 H 0.745710 -2.989261 -3.942521 0
M  V30 68 H -0.953577 0.781116 1.977643 0
M  V30 69 H -0.669499 1.977544 4.150151 0
M  V30 END ATOM
M  V30 BEGIN BOND
M  V30 1 2 1 2
M  V30 2 1 2 3
M  V30 3 1 3 4
M  V30 4 2 4 5
M  V30 5 2 4 6
M  V30 6 1 4 7
M  V30 7 2 7 8
M  V30 8 1 8 9
M  V30 9 2 9 10
M  V30 10 1 10 11
M  V30 11 2 11 12
M  V30 12 1 2 13
M  V30 13 2 13 14
M  V30 14 1 14 15
M  V30 15 2 15 16
M  V30 16 1 16 17
M  V30 17 2 17 18
M  V30 18 1 18 19
M  V30 19 1 19 20
M  V30 20 2 20 21
M  V30 21 1 21 22
M  V30 22 1 22 23
M  V30 23 2 23 24
M  V30 24 1 24 25
M  V30 25 1 25 26
M  V30 26 1 26 27
M  V30 27 1 27 28
M  V30 28 1 28 29
M  V30 29 1 29 30
M  V30 30 1 30 31
M  V30 31 1 31 32
M  V30 32 1 31 33
M  V30 33 1 33 34
M  V30 34 2 25 35
M  V30 35 1 35 36
M  V30 36 2 36 37
M  V30 37 1 16 38
M  V30 38 2 38 39
M  V30 39 1 12 7
M  V30 40 1 39 13
M  V30 41 1 21 17
M  V30 42 1 37 23
M  V30 43 1 37 20
M  V30 44 1 34 28
M  V30 45 1 3 40
M  V30 46 1 8 41
M  V30 47 1 9 42
M  V30 48 1 10 43
M  V30 49 1 11 44
M  V30 50 1 12 45
M  V30 51 1 14 46
M  V30 52 1 15 47
M  V30 53 1 19 48
M  V30 54 1 22 49
M  V30 55 1 22 50
M  V30 56 1 24 51
M  V30 57 1 26 52
M  V30 58 1 26 53
M  V30 59 1 27 54
M  V30 60 1 28 55 CFG=1
M  V30 61 1 29 56
M  V30 62 1 29 57
M  V30 63 1 30 58
M  V30 64 1 30 59
M  V30 65 1 31 60 CFG=3
M  V30 66 1 32 61
M  V30 67 1 33 62
M  V30 68 1 33 63
M  V30 69 1 34 64
M  V30 70 1 34 65
M  V30 71 1 35 66
M  V30 72 1 36 67
M  V30 73 1 38 68
M  V30 74 1 39 69
M  V30 END BOND
M  V30 END CTAB
M  END
>  <Dataset>  (346) 
ChEMBL_Kinases

>  <Ligand_Instance>  (346) 
nan

>  <PDB_ID>  (346) 
nan

>  <Standardized_SMILES>  (346) 
O=C(NS(=O)(=O)c1ccccc1)c1ccc(-c2n[nH]c3c2Cc2cc(CN[C@H]4CC[C@H](O)CC4)ccc2-3)cc1

>  <Name>  (346) 
nan

>  <Pocket>  (346) 
nan

>  <ATP_Site>  (346) 
nan

>  <Peripheral>  (346) 
nan

>  <Num_H_Atoms_ProtBoundConf>  (346) 
nan

>  <Num_Resolved_Atoms>  (346) 
nan

>  <Num_Not_Resolved_Atoms>  (346) 
nan

$$$$
CHEMBL3702040
     RDKit          3D

  0  0  0  0  0  0  0  0  0  0999 V3000
M  V30 BEGIN CTAB
M  V30 COUNTS 53 58 0 0 0
M  V30 BEGIN ATOM
M  V30 1 C -2.335669 -3.254901 4.238580 0
M  V30 2 C -1.508105 -2.382386 3.548403 0
M  V30 3 C -1.698048 -2.116242 2.215562 0
M  V30 4 C -1.081967 -1.324716 1.253042 0
M  V30 5 C 0.032758 -0.509581 1.482403 0
M  V30 6 N 0.469522 0.177806 0.403536 0
M  V30 7 C -0.136178 0.072985 -0.794812 0
M  V30 8 N 0.424033 0.849551 -1.844758 0
M  V30 9 C 1.571567 1.690749 -1.615252 0
M  V30 10 N 2.046771 2.419077 -2.726918 0
M  V30 11 S 3.472648 3.293943 -1.900544 0
M  V30 12 C 3.130244 2.515892 -0.295244 0
M  V30 13 N 3.835963 2.668928 1.002871 0
M  V30 14 C 3.686113 3.565084 2.136080 0
M  V30 15 C 3.519557 2.662992 3.341641 0
M  V30 16 N 4.760436 2.005408 3.595457 0
M  V30 17 C 5.572113 1.723141 2.459740 0
M  V30 18 C 4.888227 1.711549 1.139876 0
M  V30 19 N 2.185130 1.812435 -0.450542 0
M  V30 20 N -1.180449 -0.722501 -0.908552 0
M  V30 21 C -1.727316 -1.465440 0.068265 0
M  V30 22 N -2.747398 -2.328127 0.234267 0
M  V30 23 C -3.610663 -2.683507 -0.822921 0
M  V30 24 C -4.509272 -3.826738 -0.711856 0
M  V30 25 C -4.925167 -4.028282 -2.186612 0
M  V30 26 C -3.775935 -3.546716 -3.002610 0
M  V30 27 C -2.727122 -3.131949 -2.000005 0
M  V30 28 C -2.737872 -2.718377 1.502501 0
M  V30 29 C -3.520974 -3.573660 2.250811 0
M  V30 30 N -3.344376 -3.841222 3.554310 0
M  V30 31 H -2.101680 -3.397409 5.287775 0
M  V30 32 H -0.687992 -1.890249 4.055582 0
M  V30 33 H 0.505198 -0.435792 2.442228 0
M  V30 34 H -0.070843 0.742740 -2.756606 0
M  V30 35 H 4.587678 4.180393 2.293527 0
M  V30 36 H 2.827700 4.255080 2.005582 0
M  V30 37 H 2.721974 1.907629 3.110942 0
M  V30 38 H 3.239435 3.239513 4.252174 0
M  V30 39 H 4.682311 1.217462 4.276387 0
M  V30 40 H 5.972936 0.678154 2.613145 0
M  V30 41 H 6.488232 2.355480 2.396241 0
M  V30 42 H 4.524632 0.679752 0.883114 0
M  V30 43 H 5.657711 1.919873 0.341069 0
M  V30 44 H -4.178324 -1.823158 -1.232455 0
M  V30 45 H -5.501946 -3.633730 -0.231768 0
M  V30 46 H -4.064821 -4.803795 -0.454160 0
M  V30 47 H -5.224177 -5.074222 -2.373207 0
M  V30 48 H -5.799460 -3.407022 -2.454046 0
M  V30 49 H -4.022154 -2.647012 -3.616328 0
M  V30 50 H -3.397959 -4.318155 -3.707940 0
M  V30 51 H -2.060393 -2.355686 -2.361879 0
M  V30 52 H -2.210233 -4.050498 -1.655490 0
M  V30 53 H -4.330331 -4.068523 1.786998 0
M  V30 END ATOM
M  V30 BEGIN BOND
M  V30 1 2 1 2
M  V30 2 1 2 3
M  V30 3 1 3 4
M  V30 4 2 4 5
M  V30 5 1 5 6
M  V30 6 2 6 7
M  V30 7 1 7 8
M  V30 8 1 8 9
M  V30 9 2 9 10
M  V30 10 1 10 11
M  V30 11 1 11 12
M  V30 12 1 12 13
M  V30 13 1 13 14
M  V30 14 1 14 15
M  V30 15 1 15 16
M  V30 16 1 16 17
M  V30 17 1 17 18
M  V30 18 2 12 19
M  V30 19 1 7 20
M  V30 20 2 20 21
M  V30 21 1 21 22
M  V30 22 1 22 23
M  V30 23 1 23 24
M  V30 24 1 24 25
M  V30 25 1 25 26
M  V30 26 1 26 27
M  V30 27 1 22 28
M  V30 28 1 28 29
M  V30 29 2 29 30
M  V30 30 1 30 1
M  V30 31 2 28 3
M  V30 32 1 21 4
M  V30 33 1 27 23
M  V30 34 1 19 9
M  V30 35 1 18 13
M  V30 36 1 1 31
M  V30 37 1 2 32
M  V30 38 1 5 33
M  V30 39 1 8 34
M  V30 40 1 14 35
M  V30 41 1 14 36
M  V30 42 1 15 37
M  V30 43 1 15 38
M  V30 44 1 16 39
M  V30 45 1 17 40
M  V30 46 1 17 41
M  V30 47 1 18 42
M  V30 48 1 18 43
M  V30 49 1 23 44
M  V30 50 1 24 45
M  V30 51 1 24 46
M  V30 52 1 25 47
M  V30 53 1 25 48
M  V30 54 1 26 49
M  V30 55 1 26 50
M  V30 56 1 27 51
M  V30 57 1 27 52
M  V30 58 1 29 53
M  V30 END BOND
M  V30 END CTAB
M  END
>  <Dataset>  (347) 
ChEMBL_Kinases

>  <Ligand_Instance>  (347) 
nan

>  <PDB_ID>  (347) 
nan

>  <Standardized_SMILES>  (347) 
c1cc2c3cnc(Nc4nsc(N5CCNCC5)n4)nc3n(C3CCCC3)c2cn1

>  <Name>  (347) 
nan

>  <Pocket>  (347) 
nan

>  <ATP_Site>  (347) 
nan

>  <Peripheral>  (347) 
nan

>  <Num_H_Atoms_ProtBoundConf>  (347) 
nan

>  <Num_Resolved_Atoms>  (347) 
nan

>  <Num_Not_Resolved_Atoms>  (347) 
nan

$$$$
CHEMBL3702036
     RDKit          3D

  0  0  0  0  0  0  0  0  0  0999 V3000
M  V30 BEGIN CTAB
M  V30 COUNTS 60 65 0 0 0
M  V30 BEGIN ATOM
M  V30 1 C 5.118582 -3.798105 4.931893 0
M  V30 2 N 4.325626 -4.526954 3.996297 0
M  V30 3 C 2.944961 -4.144433 3.913188 0
M  V30 4 C 2.730157 -2.797669 3.297160 0
M  V30 5 N 3.631377 -2.541014 2.192382 0
M  V30 6 C 3.250793 -1.588029 1.204718 0
M  V30 7 C 2.109028 -0.829998 1.424695 0
M  V30 8 C 1.721176 0.091427 0.457650 0
M  V30 9 C 2.460720 0.250615 -0.706134 0
M  V30 10 N 2.061577 1.180491 -1.717995 0
M  V30 11 C 0.873358 1.898694 -1.405369 0
M  V30 12 N 0.645745 3.187554 -1.027376 0
M  V30 13 C -0.616119 3.608276 -0.771301 0
M  V30 14 C -1.682796 2.777933 -0.879276 0
M  V30 15 C -3.032375 2.865044 -0.705640 0
M  V30 16 C -3.809399 3.933543 -0.329811 0
M  V30 17 C -5.180289 3.772925 -0.222871 0
M  V30 18 N -5.724926 2.559784 -0.493017 0
M  V30 19 C -4.921550 1.520056 -0.864205 0
M  V30 20 O -5.497889 0.434587 -1.096687 0
M  V30 21 C -3.556517 1.634451 -0.982847 0
M  V30 22 N -2.625700 0.721693 -1.334638 0
M  V30 23 C -2.732520 -0.656029 -1.676861 0
M  V30 24 C -3.147399 -1.562736 -0.546219 0
M  V30 25 C -3.885088 -2.709513 -1.192611 0
M  V30 26 C -4.329095 -2.225768 -2.553070 0
M  V30 27 C -3.515040 -0.997296 -2.892648 0
M  V30 28 C -1.472605 1.467024 -1.261270 0
M  V30 29 N -0.190942 1.088295 -1.508363 0
M  V30 30 N 3.563908 -0.520393 -0.857058 0
M  V30 31 N 3.943239 -1.404373 0.062354 0
M  V30 32 C 4.918617 -3.193979 2.023363 0
M  V30 33 C 4.914729 -4.555830 2.697533 0
M  V30 34 H 4.602052 -2.923155 5.341497 0
M  V30 35 H 5.413118 -4.483142 5.780520 0
M  V30 36 H 6.108320 -3.491122 4.488692 0
M  V30 37 H 2.434097 -4.925209 3.284008 0
M  V30 38 H 2.425841 -4.210051 4.907079 0
M  V30 39 H 2.799878 -1.993321 4.075011 0
M  V30 40 H 1.681275 -2.795283 2.909503 0
M  V30 41 H 1.475923 -0.884150 2.298901 0
M  V30 42 H 0.823110 0.690777 0.625364 0
M  V30 43 H 2.653215 1.255227 -2.575296 0
M  V30 44 H -0.730323 4.625011 -0.480428 0
M  V30 45 H -3.359656 4.895000 -0.117601 0
M  V30 46 H -5.749779 4.635380 0.075590 0
M  V30 47 H -6.753136 2.537181 -0.386534 0
M  V30 48 H -1.677788 -1.006584 -1.908832 0
M  V30 49 H -3.718316 -1.060752 0.254483 0
M  V30 50 H -2.285031 -2.021908 -0.011779 0
M  V30 51 H -4.744405 -2.986865 -0.577596 0
M  V30 52 H -3.235211 -3.606065 -1.350315 0
M  V30 53 H -5.391997 -1.918921 -2.512067 0
M  V30 54 H -4.270252 -3.021696 -3.327683 0
M  V30 55 H -4.089686 -0.171078 -3.333757 0
M  V30 56 H -2.855994 -1.338275 -3.749392 0
M  V30 57 H 5.661795 -2.583067 2.586074 0
M  V30 58 H 5.209713 -3.260950 0.975178 0
M  V30 59 H 4.315070 -5.243608 2.056857 0
M  V30 60 H 5.921496 -4.998614 2.761429 0
M  V30 END ATOM
M  V30 BEGIN BOND
M  V30 1 1 1 2
M  V30 2 1 2 3
M  V30 3 1 3 4
M  V30 4 1 4 5
M  V30 5 1 5 6
M  V30 6 2 6 7
M  V30 7 1 7 8
M  V30 8 2 8 9
M  V30 9 1 9 10
M  V30 10 1 10 11
M  V30 11 2 11 12
M  V30 12 1 12 13
M  V30 13 2 13 14
M  V30 14 1 14 15
M  V30 15 1 15 16
M  V30 16 2 16 17
M  V30 17 1 17 18
M  V30 18 1 18 19
M  V30 19 2 19 20
M  V30 20 1 19 21
M  V30 21 1 21 22
M  V30 22 1 22 23
M  V30 23 1 23 24
M  V30 24 1 24 25
M  V30 25 1 25 26
M  V30 26 1 26 27
M  V30 27 1 22 28
M  V30 28 2 28 29
M  V30 29 1 9 30
M  V30 30 2 30 31
M  V30 31 1 5 32
M  V30 32 1 32 33
M  V30 33 1 33 2
M  V30 34 1 31 6
M  V30 35 1 29 11
M  V30 36 1 28 14
M  V30 37 2 21 15
M  V30 38 1 27 23
M  V30 39 1 1 34
M  V30 40 1 1 35
M  V30 41 1 1 36
M  V30 42 1 3 37
M  V30 43 1 3 38
M  V30 44 1 4 39
M  V30 45 1 4 40
M  V30 46 1 7 41
M  V30 47 1 8 42
M  V30 48 1 10 43
M  V30 49 1 13 44
M  V30 50 1 16 45
M  V30 51 1 17 46
M  V30 52 1 18 47
M  V30 53 1 23 48
M  V30 54 1 24 49
M  V30 55 1 24 50
M  V30 56 1 25 51
M  V30 57 1 25 52
M  V30 58 1 26 53
M  V30 59 1 26 54
M  V30 60 1 27 55
M  V30 61 1 27 56
M  V30 62 1 32 57
M  V30 63 1 32 58
M  V30 64 1 33 59
M  V30 65 1 33 60
M  V30 END BOND
M  V30 END CTAB
M  END
>  <Dataset>  (348) 
ChEMBL_Kinases

>  <Ligand_Instance>  (348) 
nan

>  <PDB_ID>  (348) 
nan

>  <Standardized_SMILES>  (348) 
CN1CCN(c2ccc(Nc3ncc4c5cc[nH]c(=O)c5n(C5CCCC5)c4n3)nn2)CC1

>  <Name>  (348) 
nan

>  <Pocket>  (348) 
nan

>  <ATP_Site>  (348) 
nan

>  <Peripheral>  (348) 
nan

>  <Num_H_Atoms_ProtBoundConf>  (348) 
nan

>  <Num_Resolved_Atoms>  (348) 
nan

>  <Num_Not_Resolved_Atoms>  (348) 
nan

$$$$
CHEMBL3963137
     RDKit          3D

  0  0  0  0  0  0  0  0  0  0999 V3000
M  V30 BEGIN CTAB
M  V30 COUNTS 60 63 0 0 0
M  V30 BEGIN ATOM
M  V30 1 C 3.605389 0.043650 3.144978 0
M  V30 2 C 4.868661 -0.020365 2.281602 0
M  V30 3 C 5.311470 -1.466571 2.292353 0
M  V30 4 C 5.952851 0.842664 2.849465 0
M  V30 5 O 4.534833 0.324105 0.949463 0
M  V30 6 C 3.991733 1.548727 0.606235 0
M  V30 7 O 3.753182 2.444950 1.439031 0
M  V30 8 N 3.650720 1.910997 -0.725184 0
M  V30 9 C 3.090908 3.204891 -0.989470 0
M  V30 10 C 1.684725 3.208041 -1.480658 0
M  V30 11 C 1.391321 1.879569 -2.142062 0
M  V30 12 O 1.047594 0.954038 -1.150394 0
M  V30 13 C -0.130401 0.276793 -1.015350 0
M  V30 14 C -0.118111 -0.564546 0.091415 0
M  V30 15 C -1.224898 -1.353723 0.418098 0
M  V30 16 C -2.364816 -1.310123 -0.364057 0
M  V30 17 C -3.554664 -2.113704 -0.070955 0
M  V30 18 N -3.631958 -2.959055 0.983190 0
M  V30 19 C -4.861075 -3.553045 0.978071 0
M  V30 20 C -5.391546 -4.479697 1.850813 0
M  V30 21 C -6.676588 -4.859304 1.530696 0
M  V30 22 C -7.410208 -5.830426 2.331717 0
M  V30 23 N -6.762424 -6.395014 3.472891 0
M  V30 24 O -8.537184 -6.371129 2.325952 0
M  V30 25 C -7.380012 -4.364691 0.438706 0
M  V30 26 C -6.782391 -3.441176 -0.387342 0
M  V30 27 C -5.496192 -3.031354 -0.105934 0
M  V30 28 N -4.708453 -2.151390 -0.754260 0
M  V30 29 C -2.363780 -0.474067 -1.455455 0
M  V30 30 C -1.280049 0.315269 -1.797029 0
M  V30 31 C 2.629326 1.472049 -2.909899 0
M  V30 32 C 3.764167 1.177140 -1.964527 0
M  V30 33 H 2.703000 -0.051349 2.492973 0
M  V30 34 H 3.635605 -0.761764 3.899400 0
M  V30 35 H 3.569804 1.012704 3.656482 0
M  V30 36 H 4.416162 -2.098702 2.050296 0
M  V30 37 H 5.689697 -1.720754 3.311777 0
M  V30 38 H 6.061555 -1.635796 1.505968 0
M  V30 39 H 6.962930 0.441407 2.599892 0
M  V30 40 H 5.876591 1.885660 2.518768 0
M  V30 41 H 5.853079 0.873887 3.968693 0
M  V30 42 H 3.740276 3.717339 -1.744228 0
M  V30 43 H 3.192508 3.857591 -0.075856 0
M  V30 44 H 1.569075 3.986164 -2.253325 0
M  V30 45 H 1.006327 3.389041 -0.619258 0
M  V30 46 H 0.547952 2.009877 -2.858221 0
M  V30 47 H 0.703547 -0.699763 0.790829 0
M  V30 48 H -1.251959 -2.011203 1.259607 0
M  V30 49 H -4.881809 -4.888841 2.708367 0
M  V30 50 H -5.766717 -6.657944 3.632514 0
M  V30 51 H -7.059826 -6.692499 4.416443 0
M  V30 52 H -8.372518 -4.644597 0.174104 0
M  V30 53 H -7.293561 -3.033294 -1.244149 0
M  V30 54 H -4.917643 -1.603133 -1.602500 0
M  V30 55 H -3.218951 -0.379145 -2.123464 0
M  V30 56 H -1.200739 0.986377 -2.623066 0
M  V30 57 H 2.422943 0.609588 -3.577853 0
M  V30 58 H 2.920168 2.374182 -3.515851 0
M  V30 59 H 4.715319 1.434589 -2.438519 0
M  V30 60 H 3.731730 0.091914 -1.717052 0
M  V30 END ATOM
M  V30 BEGIN BOND
M  V30 1 1 1 2
M  V30 2 1 2 3
M  V30 3 1 2 4
M  V30 4 1 2 5
M  V30 5 1 5 6
M  V30 6 2 6 7
M  V30 7 1 6 8
M  V30 8 1 8 9
M  V30 9 1 9 10
M  V30 10 1 10 11
M  V30 11 1 11 12
M  V30 12 1 12 13
M  V30 13 2 13 14
M  V30 14 1 14 15
M  V30 15 2 15 16
M  V30 16 1 16 17
M  V30 17 2 17 18
M  V30 18 1 18 19
M  V30 19 2 19 20
M  V30 20 1 20 21
M  V30 21 1 21 22
M  V30 22 1 22 23
M  V30 23 2 22 24
M  V30 24 2 21 25
M  V30 25 1 25 26
M  V30 26 2 26 27
M  V30 27 1 27 28
M  V30 28 1 16 29
M  V30 29 2 29 30
M  V30 30 1 11 31
M  V30 31 1 31 32
M  V30 32 1 32 8
M  V30 33 1 30 13
M  V30 34 1 28 17
M  V30 35 1 27 19
M  V30 36 1 1 33
M  V30 37 1 1 34
M  V30 38 1 1 35
M  V30 39 1 3 36
M  V30 40 1 3 37
M  V30 41 1 3 38
M  V30 42 1 4 39
M  V30 43 1 4 40
M  V30 44 1 4 41
M  V30 45 1 9 42
M  V30 46 1 9 43
M  V30 47 1 10 44
M  V30 48 1 10 45
M  V30 49 1 11 46
M  V30 50 1 14 47
M  V30 51 1 15 48
M  V30 52 1 20 49
M  V30 53 1 23 50
M  V30 54 1 23 51
M  V30 55 1 25 52
M  V30 56 1 26 53
M  V30 57 1 28 54
M  V30 58 1 29 55
M  V30 59 1 30 56
M  V30 60 1 31 57
M  V30 61 1 31 58
M  V30 62 1 32 59
M  V30 63 1 32 60
M  V30 END BOND
M  V30 END CTAB
M  END
>  <Dataset>  (349) 
ChEMBL_Kinases

>  <Ligand_Instance>  (349) 
nan

>  <PDB_ID>  (349) 
nan

>  <Standardized_SMILES>  (349) 
CC(C)(C)OC(=O)N1CCC(Oc2ccc(-c3nc4cc(C(N)=O)ccc4[nH]3)cc2)CC1

>  <Name>  (349) 
nan

>  <Pocket>  (349) 
nan

>  <ATP_Site>  (349) 
nan

>  <Peripheral>  (349) 
nan

>  <Num_H_Atoms_ProtBoundConf>  (349) 
nan

>  <Num_Resolved_Atoms>  (349) 
nan

>  <Num_Not_Resolved_Atoms>  (349) 
nan

$$$$
CHEMBL4869920
     RDKit          3D

  0  0  0  0  0  0  0  0  0  0999 V3000
M  V30 BEGIN CTAB
M  V30 COUNTS 62 66 0 0 0
M  V30 BEGIN ATOM
M  V30 1 C 4.274720 0.595682 8.379017 0
M  V30 2 C 4.194708 0.301844 6.885294 0
M  V30 3 C 3.004103 -0.500711 6.482468 0
M  V30 4 C 5.546509 -0.152785 6.270741 0
M  V30 5 C 4.956867 1.162232 5.944840 0 CFG=1
M  V30 6 C 4.445919 1.515554 4.612799 0
M  V30 7 O 4.748414 2.744647 4.603540 0
M  V30 8 N 3.813470 0.664287 3.682447 0
M  V30 9 C 3.344180 1.126675 2.400623 0
M  V30 10 N 3.521621 1.327331 1.241719 0
M  V30 11 C 2.610464 1.842718 0.438030 0
M  V30 12 C 2.837810 2.067142 -0.912389 0
M  V30 13 C 1.857788 2.605230 -1.714842 0
M  V30 14 C 0.609194 2.952814 -1.252594 0
M  V30 15 O -0.520389 3.495562 -1.843853 0
M  V30 16 C -1.517216 2.679707 -2.370947 0
M  V30 17 C -2.622448 3.244406 -2.921114 0
M  V30 18 C -3.587947 2.406078 -3.430894 0
M  V30 19 C -3.374118 1.050075 -3.352085 0
M  V30 20 F -4.358361 0.294825 -3.876530 0
M  V30 21 C -2.275886 0.440996 -2.806637 0
M  V30 22 N -1.993146 -0.928048 -2.667548 0
M  V30 23 C -2.697349 -2.094057 -2.917948 0
M  V30 24 O -3.851346 -2.009763 -3.363287 0
M  V30 25 C -2.268195 -3.472575 -2.728986 0
M  V30 26 C -3.273393 -4.474384 -3.065236 0
M  V30 27 C -3.563159 -5.052153 -4.301961 0
M  V30 28 C -4.546194 -5.995507 -4.447459 0
M  V30 29 C -5.315826 -6.442227 -3.396859 0
M  V30 30 C -5.070058 -5.905261 -2.160636 0
M  V30 31 C -5.854231 -6.346055 -0.975196 0
M  V30 32 F -7.208183 -6.221156 -1.168795 0
M  V30 33 F -5.450760 -5.670717 0.169312 0
M  V30 34 F -5.545436 -7.695141 -0.745640 0
M  V30 35 C -4.080587 -4.959578 -2.030767 0
M  V30 36 C -1.344294 1.320585 -2.313182 0
M  V30 37 C 0.380404 2.725146 0.113645 0
M  V30 38 C 1.382108 2.181665 0.905400 0
M  V30 39 S 1.529009 1.743127 2.586132 0
M  V30 40 H 4.794147 1.557373 8.552097 0
M  V30 41 H 3.265123 0.694053 8.803441 0
M  V30 42 H 4.752618 -0.254381 8.924936 0
M  V30 43 H 2.283682 0.034406 5.835604 0
M  V30 44 H 3.347440 -1.444610 6.034001 0
M  V30 45 H 2.382406 -0.813235 7.373264 0
M  V30 46 H 5.492366 -1.001604 5.546581 0
M  V30 47 H 6.404506 -0.240274 6.968172 0
M  V30 48 H 5.442988 2.040733 6.467723 0
M  V30 49 H 3.694730 -0.331144 3.949560 0
M  V30 50 H 3.729345 1.877244 -1.503709 0
M  V30 51 H 1.927715 2.821160 -2.779540 0
M  V30 52 H -2.694947 4.319142 -2.934136 0
M  V30 53 H -4.471528 2.828237 -3.871794 0
M  V30 54 H -1.046815 -1.221610 -2.295962 0
M  V30 55 H -1.340021 -3.623012 -3.349840 0
M  V30 56 H -1.922678 -3.678625 -1.672987 0
M  V30 57 H -2.942824 -4.681279 -5.114208 0
M  V30 58 H -4.710692 -6.397152 -5.444619 0
M  V30 59 H -6.079051 -7.183513 -3.547733 0
M  V30 60 H -3.926480 -4.566217 -1.033311 0
M  V30 61 H -0.415662 0.954366 -1.847926 0
M  V30 62 H -0.506313 2.919492 0.673469 0
M  V30 END ATOM
M  V30 BEGIN BOND
M  V30 1 1 1 2
M  V30 2 1 2 3
M  V30 3 1 2 4
M  V30 4 1 4 5
M  V30 5 1 5 6
M  V30 6 2 6 7
M  V30 7 1 6 8
M  V30 8 1 8 9
M  V30 9 2 9 10
M  V30 10 1 10 11
M  V30 11 2 11 12
M  V30 12 1 12 13
M  V30 13 2 13 14
M  V30 14 1 14 15
M  V30 15 1 15 16
M  V30 16 2 16 17
M  V30 17 1 17 18
M  V30 18 2 18 19
M  V30 19 1 19 20
M  V30 20 1 19 21
M  V30 21 1 21 22
M  V30 22 1 22 23
M  V30 23 2 23 24
M  V30 24 1 23 25
M  V30 25 1 25 26
M  V30 26 2 26 27
M  V30 27 1 27 28
M  V30 28 2 28 29
M  V30 29 1 29 30
M  V30 30 1 30 31
M  V30 31 1 31 32
M  V30 32 1 31 33
M  V30 33 1 31 34
M  V30 34 2 30 35
M  V30 35 2 21 36
M  V30 36 1 14 37
M  V30 37 2 37 38
M  V30 38 1 38 39
M  V30 39 1 5 2
M  V30 40 1 39 9
M  V30 41 1 38 11
M  V30 42 1 36 16
M  V30 43 1 35 26
M  V30 44 1 1 40
M  V30 45 1 1 41
M  V30 46 1 1 42
M  V30 47 1 3 43
M  V30 48 1 3 44
M  V30 49 1 3 45
M  V30 50 1 4 46
M  V30 51 1 4 47
M  V30 52 1 5 48 CFG=1
M  V30 53 1 8 49
M  V30 54 1 12 50
M  V30 55 1 13 51
M  V30 56 1 17 52
M  V30 57 1 18 53
M  V30 58 1 22 54
M  V30 59 1 25 55
M  V30 60 1 25 56
M  V30 61 1 27 57
M  V30 62 1 28 58
M  V30 63 1 29 59
M  V30 64 1 35 60
M  V30 65 1 36 61
M  V30 66 1 37 62
M  V30 END BOND
M  V30 END CTAB
M  END
>  <Dataset>  (350) 
ChEMBL_Kinases

>  <Ligand_Instance>  (350) 
nan

>  <PDB_ID>  (350) 
nan

>  <Standardized_SMILES>  (350) 
CC1(C)C[C@H]1C(=O)Nc1nc2ccc(Oc3ccc(F)c(NC(=O)Cc4cccc(C(F)(F)F)c4)c3)cc2s1

>  <Name>  (350) 
nan

>  <Pocket>  (350) 
nan

>  <ATP_Site>  (350) 
nan

>  <Peripheral>  (350) 
nan

>  <Num_H_Atoms_ProtBoundConf>  (350) 
nan

>  <Num_Resolved_Atoms>  (350) 
nan

>  <Num_Not_Resolved_Atoms>  (350) 
nan

$$$$
CHEMBL396289
     RDKit          3D

  0  0  0  0  0  0  0  0  0  0999 V3000
M  V30 BEGIN CTAB
M  V30 COUNTS 41 44 0 0 0
M  V30 BEGIN ATOM
M  V30 1 C 2.087378 -3.888998 0.407710 0
M  V30 2 N 1.879534 -2.448602 0.188327 0
M  V30 3 C 3.044310 -1.727355 -0.166464 0
M  V30 4 C 4.237665 -2.403450 -0.284504 0
M  V30 5 C 5.424038 -1.745065 -0.629442 0
M  V30 6 C 5.449880 -0.388588 -0.866470 0
M  V30 7 C 4.254748 0.336699 -0.756470 0
M  V30 8 C 3.128729 -0.376262 -0.414058 0
M  V30 9 C 0.574569 -1.916121 0.339646 0
M  V30 10 N 0.141609 -0.655812 0.191960 0
M  V30 11 C -1.112152 -0.235592 0.349848 0
M  V30 12 N -1.450995 1.124050 0.170359 0
M  V30 13 C -1.517847 2.070905 1.241288 0
M  V30 14 C -1.279163 1.588601 2.506802 0
M  V30 15 C -1.353684 2.516765 3.520536 0
M  V30 16 C -1.646192 3.831964 3.281041 0
M  V30 17 C -1.880114 4.277555 1.990787 0
M  V30 18 C -1.815499 3.373380 0.930840 0
M  V30 19 N -2.048586 -1.124312 0.685789 0
M  V30 20 N -3.336096 -1.002590 0.904821 0
M  V30 21 C -3.861065 -2.218415 1.223918 0
M  V30 22 C -2.822103 -3.133290 1.195530 0
M  V30 23 C -2.899994 -4.529889 1.463626 0
M  V30 24 N -2.980181 -5.654024 1.683525 0
M  V30 25 C -1.696025 -2.392700 0.850072 0
M  V30 26 N -0.422753 -2.742484 0.675758 0
M  V30 27 H 1.158348 -4.322054 0.881378 0
M  V30 28 H 2.917417 -4.029137 1.135340 0
M  V30 29 H 2.348665 -4.407174 -0.515729 0
M  V30 30 H 4.383516 -3.459388 -0.133511 0
M  V30 31 H 6.369086 -2.254535 -0.727554 0
M  V30 32 H 6.365726 0.116730 -1.131547 0
M  V30 33 H 4.231606 1.401820 -0.933464 0
M  V30 34 H 2.233892 0.217962 -0.340835 0
M  V30 35 H -1.633419 1.300243 -0.835369 0
M  V30 36 H -1.051775 0.542772 2.655894 0
M  V30 37 H -1.170149 2.159239 4.520765 0
M  V30 38 H -1.693898 4.530064 4.103655 0
M  V30 39 H -2.111339 5.316814 1.808042 0
M  V30 40 H -1.991497 3.692791 -0.076149 0
M  V30 41 H -4.903356 -2.438567 1.459390 0
M  V30 END ATOM
M  V30 BEGIN BOND
M  V30 1 1 1 2
M  V30 2 1 2 3
M  V30 3 2 3 4
M  V30 4 1 4 5
M  V30 5 2 5 6
M  V30 6 1 6 7
M  V30 7 2 7 8
M  V30 8 1 2 9
M  V30 9 1 9 10
M  V30 10 2 10 11
M  V30 11 1 11 12
M  V30 12 1 12 13
M  V30 13 2 13 14
M  V30 14 1 14 15
M  V30 15 2 15 16
M  V30 16 1 16 17
M  V30 17 2 17 18
M  V30 18 1 11 19
M  V30 19 1 19 20
M  V30 20 2 20 21
M  V30 21 1 21 22
M  V30 22 1 22 23
M  V30 23 3 23 24
M  V30 24 2 22 25
M  V30 25 1 25 26
M  V30 26 1 8 3
M  V30 27 2 26 9
M  V30 28 1 18 13
M  V30 29 1 25 19
M  V30 30 1 1 27
M  V30 31 1 1 28
M  V30 32 1 1 29
M  V30 33 1 4 30
M  V30 34 1 5 31
M  V30 35 1 6 32
M  V30 36 1 7 33
M  V30 37 1 8 34
M  V30 38 1 12 35
M  V30 39 1 14 36
M  V30 40 1 15 37
M  V30 41 1 16 38
M  V30 42 1 17 39
M  V30 43 1 18 40
M  V30 44 1 21 41
M  V30 END BOND
M  V30 END CTAB
M  END
>  <Dataset>  (351) 
ChEMBL_Kinases

>  <Ligand_Instance>  (351) 
nan

>  <PDB_ID>  (351) 
nan

>  <Standardized_SMILES>  (351) 
CN(c1ccccc1)c1nc(Nc2ccccc2)n2ncc(C#N)c2n1

>  <Name>  (351) 
nan

>  <Pocket>  (351) 
nan

>  <ATP_Site>  (351) 
nan

>  <Peripheral>  (351) 
nan

>  <Num_H_Atoms_ProtBoundConf>  (351) 
nan

>  <Num_Resolved_Atoms>  (351) 
nan

>  <Num_Not_Resolved_Atoms>  (351) 
nan

$$$$
CHEMBL3962849
     RDKit          3D

  0  0  0  0  0  0  0  0  0  0999 V3000
M  V30 BEGIN CTAB
M  V30 COUNTS 49 52 0 0 0
M  V30 BEGIN ATOM
M  V30 1 C -1.759717 -4.651584 2.424829 0
M  V30 2 O -1.866875 -5.492666 1.291205 0
M  V30 3 C -1.078486 -5.377506 0.183110 0
M  V30 4 C -0.099651 -4.413382 0.083261 0
M  V30 5 C 0.697303 -4.298146 -1.033134 0
M  V30 6 C 1.737264 -3.315940 -1.289130 0
M  V30 7 O 2.711973 -3.479065 -2.069673 0
M  V30 8 C 1.799135 -1.996949 -0.678272 0
M  V30 9 C 2.901291 -1.225840 -0.395071 0
M  V30 10 C 2.760692 0.029154 0.165071 0
M  V30 11 C 1.530223 0.566735 0.464648 0
M  V30 12 C 1.382236 1.897954 1.042580 0
M  V30 13 N 0.207981 2.470698 1.351995 0
M  V30 14 C 0.435262 3.711500 1.860600 0
M  V30 15 C -0.502060 4.620440 2.291963 0
M  V30 16 C 0.087951 5.776509 2.739125 0
M  V30 17 C -0.721121 6.869412 3.239740 0
M  V30 18 N -2.127495 6.720428 3.286536 0
M  V30 19 O -0.821593 8.016865 3.708609 0
M  V30 20 C 1.438410 6.043328 2.773410 0
M  V30 21 C 2.313971 5.084991 2.324617 0
M  V30 22 C 1.801743 3.890039 1.856234 0
M  V30 23 N 2.354934 2.774177 1.355007 0
M  V30 24 C 0.425085 -0.205447 0.181581 0
M  V30 25 C 0.532188 -1.480722 -0.385776 0
M  V30 26 C 0.494734 -5.192683 -2.084666 0
M  V30 27 C -0.485905 -6.171577 -2.005308 0
M  V30 28 Br -0.755557 -7.389534 -3.448233 0
M  V30 29 C -1.269361 -6.253339 -0.860442 0
M  V30 30 O -2.250195 -7.250755 -0.810966 0
M  V30 31 C -3.538757 -6.904370 -1.305794 0
M  V30 32 H -1.767648 -3.579710 2.153617 0
M  V30 33 H -2.484530 -4.925844 3.209940 0
M  V30 34 H -0.743558 -4.834082 2.853589 0
M  V30 35 H 0.087028 -3.717637 0.877786 0
M  V30 36 H 3.832827 -1.700719 -0.650638 0
M  V30 37 H 3.670541 0.581737 0.362799 0
M  V30 38 H -1.557587 4.456765 2.282979 0
M  V30 39 H -3.147808 6.857339 3.325487 0
M  V30 40 H -2.697062 5.818416 3.288792 0
M  V30 41 H 1.821622 6.986858 3.142049 0
M  V30 42 H 3.371605 5.187037 2.307256 0
M  V30 43 H 3.392215 2.627514 1.233287 0
M  V30 44 H -0.546051 0.251955 0.434142 0
M  V30 45 H -0.463490 -1.919444 -0.537158 0
M  V30 46 H 1.069545 -5.174945 -2.990824 0
M  V30 47 H -3.691274 -5.818774 -1.105277 0
M  V30 48 H -4.356515 -7.442303 -0.791570 0
M  V30 49 H -3.532566 -7.134340 -2.408309 0
M  V30 END ATOM
M  V30 BEGIN BOND
M  V30 1 1 1 2
M  V30 2 1 2 3
M  V30 3 2 3 4
M  V30 4 1 4 5
M  V30 5 1 5 6
M  V30 6 2 6 7
M  V30 7 1 6 8
M  V30 8 2 8 9
M  V30 9 1 9 10
M  V30 10 2 10 11
M  V30 11 1 11 12
M  V30 12 2 12 13
M  V30 13 1 13 14
M  V30 14 2 14 15
M  V30 15 1 15 16
M  V30 16 1 16 17
M  V30 17 1 17 18
M  V30 18 2 17 19
M  V30 19 2 16 20
M  V30 20 1 20 21
M  V30 21 2 21 22
M  V30 22 1 22 23
M  V30 23 1 11 24
M  V30 24 2 24 25
M  V30 25 2 5 26
M  V30 26 1 26 27
M  V30 27 1 27 28
M  V30 28 2 27 29
M  V30 29 1 29 30
M  V30 30 1 30 31
M  V30 31 1 29 3
M  V30 32 1 25 8
M  V30 33 1 23 12
M  V30 34 1 22 14
M  V30 35 1 1 32
M  V30 36 1 1 33
M  V30 37 1 1 34
M  V30 38 1 4 35
M  V30 39 1 9 36
M  V30 40 1 10 37
M  V30 41 1 15 38
M  V30 42 1 18 39
M  V30 43 1 18 40
M  V30 44 1 20 41
M  V30 45 1 21 42
M  V30 46 1 23 43
M  V30 47 1 24 44
M  V30 48 1 25 45
M  V30 49 1 26 46
M  V30 50 1 31 47
M  V30 51 1 31 48
M  V30 52 1 31 49
M  V30 END BOND
M  V30 END CTAB
M  END
>  <Dataset>  (352) 
ChEMBL_Kinases

>  <Ligand_Instance>  (352) 
nan

>  <PDB_ID>  (352) 
nan

>  <Standardized_SMILES>  (352) 
COc1cc(C(=O)c2ccc(-c3nc4cc(C(N)=O)ccc4[nH]3)cc2)cc(Br)c1OC

>  <Name>  (352) 
nan

>  <Pocket>  (352) 
nan

>  <ATP_Site>  (352) 
nan

>  <Peripheral>  (352) 
nan

>  <Num_H_Atoms_ProtBoundConf>  (352) 
nan

>  <Num_Resolved_Atoms>  (352) 
nan

>  <Num_Not_Resolved_Atoms>  (352) 
nan

$$$$
CHEMBL3962812
     RDKit          3D

  0  0  0  0  0  0  0  0  0  0999 V3000
M  V30 BEGIN CTAB
M  V30 COUNTS 68 72 0 0 0
M  V30 BEGIN ATOM
M  V30 1 C 1.797735 -1.899489 4.737876 0
M  V30 2 C 2.281867 -0.942293 3.728535 0
M  V30 3 N 3.281965 -0.080396 3.984990 0
M  V30 4 C 3.704382 0.788562 3.045868 0
M  V30 5 C 3.134943 0.833157 1.789311 0
M  V30 6 N 3.566825 1.744415 0.787016 0
M  V30 7 C 4.533158 1.709903 -0.235982 0
M  V30 8 O 5.261537 0.705477 -0.431097 0
M  V30 9 C 4.693321 2.875404 -1.095162 0
M  V30 10 C 5.654857 2.781467 -2.080239 0
M  V30 11 C 5.855516 3.858921 -2.932379 0
M  V30 12 C 5.116023 5.006662 -2.808339 0
M  V30 13 C 4.156674 5.121689 -1.838034 0
M  V30 14 C 3.313189 6.322026 -1.632445 0
M  V30 15 F 3.934307 7.153823 -0.702491 0
M  V30 16 F 2.076245 6.000692 -1.109161 0
M  V30 17 F 3.170924 6.935064 -2.846140 0
M  V30 18 C 3.964277 4.029491 -0.986223 0
M  V30 19 C 2.112515 -0.060080 1.551702 0
M  V30 20 C 1.652414 -0.971363 2.501653 0
M  V30 21 C 0.562167 -1.848853 2.087338 0
M  V30 22 C 0.434265 -3.210334 2.266760 0
M  V30 23 N -0.651890 -3.862753 1.817410 0
M  V30 24 C -1.649671 -3.266104 1.188218 0
M  V30 25 O -2.784484 -3.860891 0.703179 0
M  V30 26 C -3.127267 -5.211357 0.770908 0
M  V30 27 C -4.381407 -5.498734 1.558522 0
M  V30 28 C -5.635911 -5.185692 0.817235 0
M  V30 29 O -5.453337 -4.986918 -0.540503 0
M  V30 30 C -4.610334 -5.906493 -1.130025 0
M  V30 31 C -3.203008 -5.893362 -0.580819 0
M  V30 32 C -1.603974 -1.883200 0.961751 0
M  V30 33 N -2.643243 -1.148638 0.286546 0
M  V30 34 C -3.132420 -1.346841 -1.066202 0
M  V30 35 C -3.421840 -0.057099 -1.772587 0
M  V30 36 O -3.978527 0.915855 -0.945030 0
M  V30 37 C -3.127637 1.159786 0.144646 0
M  V30 38 C -3.287724 -0.077826 1.036704 0
M  V30 39 C -0.481459 -1.190926 1.422993 0
M  V30 40 H 0.735579 -2.172683 4.572387 0
M  V30 41 H 2.428597 -2.804688 4.685722 0
M  V30 42 H 1.919045 -1.452788 5.759633 0
M  V30 43 H 4.500888 1.457137 3.286938 0
M  V30 44 H 2.925393 2.534595 1.014665 0
M  V30 45 H 6.278144 1.894990 -2.233376 0
M  V30 46 H 6.592348 3.854520 -3.726715 0
M  V30 47 H 5.263159 5.864290 -3.472091 0
M  V30 48 H 3.210349 4.112649 -0.218740 0
M  V30 49 H 1.663139 -0.029973 0.569664 0
M  V30 50 H 1.263023 -3.666690 2.780263 0
M  V30 51 H -2.298363 -5.723989 1.305843 0
M  V30 52 H -4.335531 -6.564716 1.919438 0
M  V30 53 H -4.354311 -4.889417 2.484377 0
M  V30 54 H -6.336950 -6.033360 0.970520 0
M  V30 55 H -6.132947 -4.294627 1.240520 0
M  V30 56 H -4.540046 -5.618434 -2.207484 0
M  V30 57 H -5.064076 -6.931649 -1.140475 0
M  V30 58 H -2.902186 -6.978555 -0.497786 0
M  V30 59 H -2.484984 -5.461977 -1.294920 0
M  V30 60 H -2.349817 -1.888003 -1.645423 0
M  V30 61 H -4.013843 -2.005163 -1.032399 0
M  V30 62 H -4.170425 -0.243782 -2.573426 0
M  V30 63 H -2.521380 0.338051 -2.282196 0
M  V30 64 H -2.094734 1.177227 -0.274319 0
M  V30 65 H -3.386084 2.073375 0.675292 0
M  V30 66 H -4.377726 -0.235111 1.133273 0
M  V30 67 H -2.860766 0.064157 2.039277 0
M  V30 68 H -0.457685 -0.109005 1.240001 0
M  V30 END ATOM
M  V30 BEGIN BOND
M  V30 1 1 1 2
M  V30 2 2 2 3
M  V30 3 1 3 4
M  V30 4 2 4 5
M  V30 5 1 5 6
M  V30 6 1 6 7
M  V30 7 2 7 8
M  V30 8 1 7 9
M  V30 9 2 9 10
M  V30 10 1 10 11
M  V30 11 2 11 12
M  V30 12 1 12 13
M  V30 13 1 13 14
M  V30 14 1 14 15
M  V30 15 1 14 16
M  V30 16 1 14 17
M  V30 17 2 13 18
M  V30 18 1 5 19
M  V30 19 2 19 20
M  V30 20 1 20 21
M  V30 21 2 21 22
M  V30 22 1 22 23
M  V30 23 2 23 24
M  V30 24 1 24 25
M  V30 25 1 25 26
M  V30 26 1 26 27
M  V30 27 1 27 28
M  V30 28 1 28 29
M  V30 29 1 29 30
M  V30 30 1 30 31
M  V30 31 1 24 32
M  V30 32 1 32 33
M  V30 33 1 33 34
M  V30 34 1 34 35
M  V30 35 1 35 36
M  V30 36 1 36 37
M  V30 37 1 37 38
M  V30 38 2 32 39
M  V30 39 1 20 2
M  V30 40 1 39 21
M  V30 41 1 18 9
M  V30 42 1 31 26
M  V30 43 1 38 33
M  V30 44 1 1 40
M  V30 45 1 1 41
M  V30 46 1 1 42
M  V30 47 1 4 43
M  V30 48 1 6 44
M  V30 49 1 10 45
M  V30 50 1 11 46
M  V30 51 1 12 47
M  V30 52 1 18 48
M  V30 53 1 19 49
M  V30 54 1 22 50
M  V30 55 1 26 51
M  V30 56 1 27 52
M  V30 57 1 27 53
M  V30 58 1 28 54
M  V30 59 1 28 55
M  V30 60 1 30 56
M  V30 61 1 30 57
M  V30 62 1 31 58
M  V30 63 1 31 59
M  V30 64 1 34 60
M  V30 65 1 34 61
M  V30 66 1 35 62
M  V30 67 1 35 63
M  V30 68 1 37 64
M  V30 69 1 37 65
M  V30 70 1 38 66
M  V30 71 1 38 67
M  V30 72 1 39 68
M  V30 END BOND
M  V30 END CTAB
M  END
>  <Dataset>  (353) 
ChEMBL_Kinases

>  <Ligand_Instance>  (353) 
nan

>  <PDB_ID>  (353) 
nan

>  <Standardized_SMILES>  (353) 
Cc1ncc(NC(=O)c2cccc(C(F)(F)F)c2)cc1-c1cnc(OC2CCOCC2)c(N2CCOCC2)c1

>  <Name>  (353) 
nan

>  <Pocket>  (353) 
nan

>  <ATP_Site>  (353) 
nan

>  <Peripheral>  (353) 
nan

>  <Num_H_Atoms_ProtBoundConf>  (353) 
nan

>  <Num_Resolved_Atoms>  (353) 
nan

>  <Num_Not_Resolved_Atoms>  (353) 
nan

$$$$
CHEMBL3962696
     RDKit          3D

  0  0  0  0  0  0  0  0  0  0999 V3000
M  V30 BEGIN CTAB
M  V30 COUNTS 63 65 0 0 0
M  V30 BEGIN ATOM
M  V30 1 C 0.524958 1.513190 5.961608 0
M  V30 2 O 1.539790 2.196651 5.252266 0
M  V30 3 C 2.380326 1.470371 4.459800 0
M  V30 4 O 2.179075 0.245171 4.427809 0
M  V30 5 N 3.442680 1.974456 3.683723 0
M  V30 6 C 4.417766 1.395087 2.800089 0
M  V30 7 C 3.858799 0.699387 1.590665 0 CFG=2
M  V30 8 C 3.041940 1.681403 0.771123 0
M  V30 9 N 3.094529 -0.474729 1.828184 0
M  V30 10 C 2.696470 -0.918868 0.505197 0
M  V30 11 N 3.440858 -1.750758 -0.245619 0
M  V30 12 C 3.041466 -2.123655 -1.452087 0
M  V30 13 C 1.855816 -1.689950 -2.006463 0
M  V30 14 C 1.083714 -0.836038 -1.244676 0
M  V30 15 C -0.165029 -0.390257 -1.846142 0
M  V30 16 C -0.456849 0.344564 -2.988575 0
M  V30 17 N -1.787796 0.479951 -3.094889 0
M  V30 18 C -2.493699 1.185130 -4.157635 0
M  V30 19 C -3.200849 2.350251 -3.554005 0
M  V30 20 C -1.566995 1.548402 -5.279625 0
M  V30 21 N -2.338244 -0.128686 -2.083810 0
M  V30 22 C -1.379565 -0.682615 -1.282815 0
M  V30 23 C -1.783252 -1.415446 -0.084713 0
M  V30 24 C -1.485566 -1.054188 1.216362 0
M  V30 25 C -1.939900 -1.857643 2.242325 0
M  V30 26 Cl -1.551243 -1.380245 3.877988 0
M  V30 27 C -2.674956 -2.995264 1.963947 0
M  V30 28 C -2.991564 -3.387919 0.681403 0
M  V30 29 N -3.746629 -4.559234 0.382487 0
M  V30 30 S -4.275817 -5.507471 1.747810 0
M  V30 31 C -2.913456 -6.120219 2.676533 0
M  V30 32 O -5.067159 -6.707487 1.256622 0
M  V30 33 O -5.202942 -4.709791 2.618319 0
M  V30 34 C -2.529640 -2.574220 -0.322804 0
M  V30 35 F -2.841277 -2.959224 -1.603651 0
M  V30 36 N 1.518367 -0.472404 -0.014677 0
M  V30 37 H -0.439327 1.972153 5.633435 0
M  V30 38 H 0.453407 0.445882 5.753047 0
M  V30 39 H 0.584606 1.704456 7.054446 0
M  V30 40 H 3.499472 3.030145 3.809896 0
M  V30 41 H 5.024920 0.648898 3.405145 0
M  V30 42 H 5.170052 2.158561 2.519839 0
M  V30 43 H 4.751609 0.462441 0.934524 0
M  V30 44 H 2.968869 1.390514 -0.303581 0
M  V30 45 H 3.500914 2.696180 0.811791 0
M  V30 46 H 2.012122 1.823445 1.172698 0
M  V30 47 H 2.600039 -1.271218 2.273078 0
M  V30 48 H 3.714254 -2.793974 -1.971356 0
M  V30 49 H 1.648215 -2.070768 -3.000582 0
M  V30 50 H 0.326121 0.711815 -3.635207 0
M  V30 51 H -3.286192 0.527055 -4.609459 0
M  V30 52 H -4.119669 2.624916 -4.130873 0
M  V30 53 H -2.580050 3.252837 -3.415764 0
M  V30 54 H -3.529086 2.037633 -2.519561 0
M  V30 55 H -2.188668 1.707726 -6.193293 0
M  V30 56 H -0.935784 0.648920 -5.501191 0
M  V30 57 H -0.878047 2.375384 -5.073495 0
M  V30 58 H -0.907317 -0.150899 1.342468 0
M  V30 59 H -3.036130 -3.633193 2.772757 0
M  V30 60 H -3.945578 -4.795364 -0.590005 0
M  V30 61 H -2.839125 -7.232956 2.665423 0
M  V30 62 H -3.021556 -5.858912 3.770027 0
M  V30 63 H -1.927664 -5.731949 2.364007 0
M  V30 END ATOM
M  V30 BEGIN BOND
M  V30 1 1 1 2
M  V30 2 1 2 3
M  V30 3 2 3 4
M  V30 4 1 3 5
M  V30 5 1 5 6
M  V30 6 1 6 7
M  V30 7 1 7 8
M  V30 8 1 7 9
M  V30 9 1 9 10
M  V30 10 2 10 11
M  V30 11 1 11 12
M  V30 12 2 12 13
M  V30 13 1 13 14
M  V30 14 1 14 15
M  V30 15 2 15 16
M  V30 16 1 16 17
M  V30 17 1 17 18
M  V30 18 1 18 19
M  V30 19 1 18 20
M  V30 20 1 17 21
M  V30 21 2 21 22
M  V30 22 1 22 23
M  V30 23 2 23 24
M  V30 24 1 24 25
M  V30 25 1 25 26
M  V30 26 2 25 27
M  V30 27 1 27 28
M  V30 28 1 28 29
M  V30 29 1 29 30
M  V30 30 1 30 31
M  V30 31 2 30 32
M  V30 32 2 30 33
M  V30 33 2 28 34
M  V30 34 1 34 35
M  V30 35 2 14 36
M  V30 36 1 36 10
M  V30 37 1 22 15
M  V30 38 1 34 23
M  V30 39 1 1 37
M  V30 40 1 1 38
M  V30 41 1 1 39
M  V30 42 1 5 40
M  V30 43 1 6 41
M  V30 44 1 6 42
M  V30 45 1 7 43 CFG=3
M  V30 46 1 8 44
M  V30 47 1 8 45
M  V30 48 1 8 46
M  V30 49 1 9 47
M  V30 50 1 12 48
M  V30 51 1 13 49
M  V30 52 1 16 50
M  V30 53 1 18 51
M  V30 54 1 19 52
M  V30 55 1 19 53
M  V30 56 1 19 54
M  V30 57 1 20 55
M  V30 58 1 20 56
M  V30 59 1 20 57
M  V30 60 1 24 58
M  V30 61 1 27 59
M  V30 62 1 29 60
M  V30 63 1 31 61
M  V30 64 1 31 62
M  V30 65 1 31 63
M  V30 END BOND
M  V30 END CTAB
M  END
>  <Dataset>  (354) 
ChEMBL_Kinases

>  <Ligand_Instance>  (354) 
nan

>  <PDB_ID>  (354) 
nan

>  <Standardized_SMILES>  (354) 
COC(=O)NC[C@H](C)Nc1nccc(-c2cn(C(C)C)nc2-c2cc(Cl)cc(NS(C)(=O)=O)c2F)n1

>  <Name>  (354) 
nan

>  <Pocket>  (354) 
nan

>  <ATP_Site>  (354) 
nan

>  <Peripheral>  (354) 
nan

>  <Num_H_Atoms_ProtBoundConf>  (354) 
nan

>  <Num_Resolved_Atoms>  (354) 
nan

>  <Num_Not_Resolved_Atoms>  (354) 
nan

$$$$
CHEMBL3962678
     RDKit          3D

  0  0  0  0  0  0  0  0  0  0999 V3000
M  V30 BEGIN CTAB
M  V30 COUNTS 67 70 0 0 0
M  V30 BEGIN ATOM
M  V30 1 C 2.291133 0.168804 3.233937 0
M  V30 2 C 3.383636 -0.176363 2.297719 0
M  V30 3 C 4.007077 -1.416141 2.445468 0
M  V30 4 C 5.034666 -1.812277 1.625400 0
M  V30 5 C 5.429845 -0.932719 0.643802 0
M  V30 6 C 6.538698 -1.329885 -0.260594 0
M  V30 7 O 5.931229 -1.981186 -1.343038 0
M  V30 8 C 4.789635 0.278082 0.532028 0
M  V30 9 C 3.759716 0.721380 1.323737 0
M  V30 10 N 3.186419 1.986359 1.082889 0
M  V30 11 C 3.827734 2.825614 0.091613 0
M  V30 12 C 2.064000 2.612765 1.635324 0
M  V30 13 N 0.795960 2.204947 1.536572 0
M  V30 14 C -0.211406 2.871475 2.082037 0
M  V30 15 N -1.579503 2.487885 2.010475 0
M  V30 16 C -2.176196 1.384125 1.388075 0
M  V30 17 C -3.560387 1.171655 1.416509 0
M  V30 18 C -4.101259 0.070946 0.787415 0
M  V30 19 C -3.316612 -0.868081 0.104725 0
M  V30 20 N -4.169780 -1.855270 -0.432741 0
M  V30 21 C -4.643082 -2.288491 -1.728935 0
M  V30 22 C -4.621001 -3.771711 -1.925257 0
M  V30 23 N -4.133999 -4.554392 -0.865770 0
M  V30 24 C -3.230187 -5.602328 -1.129628 0
M  V30 25 C -4.353618 -4.138245 0.454428 0
M  V30 26 C -4.767609 -2.696813 0.605425 0
M  V30 27 C -1.965598 -0.652853 0.082424 0
M  V30 28 S -1.039924 -1.846513 -0.776735 0
M  V30 29 C -1.386842 -1.919548 -2.504418 0
M  V30 30 O -1.259313 -3.218672 -0.159715 0
M  V30 31 O 0.444407 -1.595774 -0.611433 0
M  V30 32 C -1.446111 0.452483 0.716899 0
M  V30 33 N 0.091418 3.994816 2.751833 0
M  V30 34 C 1.320079 4.494351 2.913240 0
M  V30 35 C 2.337237 3.771393 2.330997 0
M  V30 36 F 3.594235 4.262508 2.483520 0
M  V30 37 H 1.298849 -0.164459 2.865849 0
M  V30 38 H 2.324836 1.197091 3.622036 0
M  V30 39 H 2.442673 -0.467251 4.165527 0
M  V30 40 H 3.666253 -2.078368 3.229852 0
M  V30 41 H 5.463657 -2.786431 1.805165 0
M  V30 42 H 7.082628 -0.427946 -0.584589 0
M  V30 43 H 7.170679 -2.064864 0.255352 0
M  V30 44 H 4.977434 -2.191311 -1.189797 0
M  V30 45 H 5.178808 0.907835 -0.283071 0
M  V30 46 H 3.413685 3.833678 0.002470 0
M  V30 47 H 4.916939 2.827423 0.334603 0
M  V30 48 H 3.775500 2.317584 -0.908855 0
M  V30 49 H -2.268596 3.114201 2.491960 0
M  V30 50 H -4.172251 1.914384 1.955425 0
M  V30 51 H -5.198769 0.057489 0.907607 0
M  V30 52 H -5.744625 -1.972610 -1.724432 0
M  V30 53 H -4.216844 -1.690361 -2.534672 0
M  V30 54 H -5.648652 -4.135263 -2.243483 0
M  V30 55 H -4.005970 -3.978013 -2.848081 0
M  V30 56 H -3.797498 -6.563687 -1.085515 0
M  V30 57 H -2.420739 -5.721440 -0.379882 0
M  V30 58 H -2.829666 -5.540167 -2.167098 0
M  V30 59 H -3.452375 -4.306037 1.074468 0
M  V30 60 H -5.134346 -4.802475 0.908882 0
M  V30 61 H -4.618612 -2.333286 1.622840 0
M  V30 62 H -5.885816 -2.664195 0.447357 0
M  V30 63 H -1.926681 -2.856716 -2.717160 0
M  V30 64 H -0.412723 -1.916833 -3.064499 0
M  V30 65 H -1.945701 -0.994848 -2.766399 0
M  V30 66 H -0.372655 0.466341 0.600437 0
M  V30 67 H 1.486639 5.417996 3.474253 0
M  V30 END ATOM
M  V30 BEGIN BOND
M  V30 1 1 1 2
M  V30 2 2 2 3
M  V30 3 1 3 4
M  V30 4 2 4 5
M  V30 5 1 5 6
M  V30 6 1 6 7
M  V30 7 1 5 8
M  V30 8 2 8 9
M  V30 9 1 9 10
M  V30 10 1 10 11
M  V30 11 1 10 12
M  V30 12 2 12 13
M  V30 13 1 13 14
M  V30 14 1 14 15
M  V30 15 1 15 16
M  V30 16 2 16 17
M  V30 17 1 17 18
M  V30 18 2 18 19
M  V30 19 1 19 20
M  V30 20 1 20 21
M  V30 21 1 21 22
M  V30 22 1 22 23
M  V30 23 1 23 24
M  V30 24 1 23 25
M  V30 25 1 25 26
M  V30 26 1 19 27
M  V30 27 1 27 28
M  V30 28 1 28 29
M  V30 29 2 28 30
M  V30 30 2 28 31
M  V30 31 2 27 32
M  V30 32 2 14 33
M  V30 33 1 33 34
M  V30 34 2 34 35
M  V30 35 1 35 36
M  V30 36 1 9 2
M  V30 37 1 35 12
M  V30 38 1 32 16
M  V30 39 1 26 20
M  V30 40 1 1 37
M  V30 41 1 1 38
M  V30 42 1 1 39
M  V30 43 1 3 40
M  V30 44 1 4 41
M  V30 45 1 6 42
M  V30 46 1 6 43
M  V30 47 1 7 44
M  V30 48 1 8 45
M  V30 49 1 11 46
M  V30 50 1 11 47
M  V30 51 1 11 48
M  V30 52 1 15 49
M  V30 53 1 17 50
M  V30 54 1 18 51
M  V30 55 1 21 52
M  V30 56 1 21 53
M  V30 57 1 22 54
M  V30 58 1 22 55
M  V30 59 1 24 56
M  V30 60 1 24 57
M  V30 61 1 24 58
M  V30 62 1 25 59
M  V30 63 1 25 60
M  V30 64 1 26 61
M  V30 65 1 26 62
M  V30 66 1 29 63
M  V30 67 1 29 64
M  V30 68 1 29 65
M  V30 69 1 32 66
M  V30 70 1 34 67
M  V30 END BOND
M  V30 END CTAB
M  END
>  <Dataset>  (355) 
ChEMBL_Kinases

>  <Ligand_Instance>  (355) 
nan

>  <PDB_ID>  (355) 
nan

>  <Standardized_SMILES>  (355) 
Cc1ccc(CO)cc1N(C)c1nc(Nc2ccc(N3CCN(C)CC3)c(S(C)(=O)=O)c2)ncc1F

>  <Name>  (355) 
nan

>  <Pocket>  (355) 
nan

>  <ATP_Site>  (355) 
nan

>  <Peripheral>  (355) 
nan

>  <Num_H_Atoms_ProtBoundConf>  (355) 
nan

>  <Num_Resolved_Atoms>  (355) 
nan

>  <Num_Not_Resolved_Atoms>  (355) 
nan

$$$$
CHEMBL3962318
     RDKit          3D

  0  0  0  0  0  0  0  0  0  0999 V3000
M  V30 BEGIN CTAB
M  V30 COUNTS 58 62 0 0 0
M  V30 BEGIN ATOM
M  V30 1 C 2.379639 -1.707182 3.556808 0
M  V30 2 C 1.259805 -0.669578 3.442191 0
M  V30 3 C 1.394474 0.060269 2.129567 0 CFG=2
M  V30 4 C 2.733011 0.739304 2.100852 0
M  V30 5 C 3.833528 0.047732 1.553453 0
M  V30 6 C 5.125270 0.493825 1.434936 0
M  V30 7 C 5.390556 1.746576 1.894341 0
M  V30 8 C 4.391463 2.497217 2.442418 0
M  V30 9 C 3.121774 1.983835 2.527640 0
M  V30 10 N 0.289825 0.892601 1.786644 0
M  V30 11 C -0.364930 1.942247 2.481655 0
M  V30 12 O -0.126187 2.336252 3.662304 0
M  V30 13 C -1.411487 2.596530 1.714380 0
M  V30 14 C -2.278104 3.641201 1.932961 0
M  V30 15 C -3.144396 3.996495 0.900121 0
M  V30 16 C -3.144627 3.331616 -0.307677 0
M  V30 17 C -2.250727 2.270493 -0.501607 0
M  V30 18 C -1.412208 1.941482 0.526475 0
M  V30 19 C -0.436804 0.855090 0.529648 0
M  V30 20 O 0.488448 1.113082 -0.487410 0
M  V30 21 C -1.106349 -0.439848 0.313413 0
M  V30 22 C -2.010987 -0.907031 1.235505 0
M  V30 23 C -2.649565 -2.123594 1.048378 0
M  V30 24 C -2.364195 -2.874680 -0.091596 0
M  V30 25 N -2.868278 -4.084780 -0.474928 0
M  V30 26 C -2.242758 -4.313496 -1.633662 0
M  V30 27 N -2.514426 -5.491632 -2.337885 0
M  V30 28 C -2.165866 -6.155902 -3.491543 0
M  V30 29 O -1.339985 -5.331986 -3.956684 0
M  V30 30 O -1.881515 -6.856188 -4.582562 0
M  V30 31 C -0.993917 -6.562257 -5.644614 0
M  V30 32 N -1.404907 -3.320103 -1.957921 0
M  V30 33 C -1.451579 -2.368266 -0.988702 0
M  V30 34 C -0.798054 -1.167508 -0.839033 0
M  V30 35 H 3.313967 -1.152121 3.701840 0
M  V30 36 H 2.372030 -2.343627 2.652913 0
M  V30 37 H 2.205791 -2.384628 4.412565 0
M  V30 38 H 1.268795 0.016139 4.307249 0
M  V30 39 H 0.307134 -1.263626 3.413535 0
M  V30 40 H 1.493980 -0.694198 1.274487 0
M  V30 41 H 3.664255 -0.972283 1.168459 0
M  V30 42 H 5.891235 -0.124834 0.996793 0
M  V30 43 H 6.375478 2.144773 1.828208 0
M  V30 44 H 4.578888 3.489976 2.811850 0
M  V30 45 H 2.376899 2.597649 2.956182 0
M  V30 46 H -2.256712 4.146993 2.892704 0
M  V30 47 H -3.795825 4.831166 1.153697 0
M  V30 48 H -3.865521 3.705376 -1.026050 0
M  V30 49 H -2.296965 1.783728 -1.474884 0
M  V30 50 H 0.817690 2.037831 -0.363045 0
M  V30 51 H -2.264938 -0.361423 2.133923 0
M  V30 52 H -3.359638 -2.488143 1.774063 0
M  V30 53 H -3.563029 -4.660584 0.028116 0
M  V30 54 H -3.128525 -6.302758 -2.179680 0
M  V30 55 H 0.055934 -6.514674 -5.325511 0
M  V30 56 H -1.186479 -7.249665 -6.492630 0
M  V30 57 H -1.209382 -5.540031 -6.078061 0
M  V30 58 H -0.096396 -0.850699 -1.597325 0
M  V30 END ATOM
M  V30 BEGIN BOND
M  V30 1 1 1 2
M  V30 2 1 2 3
M  V30 3 1 3 4
M  V30 4 2 4 5
M  V30 5 1 5 6
M  V30 6 2 6 7
M  V30 7 1 7 8
M  V30 8 2 8 9
M  V30 9 1 3 10
M  V30 10 1 10 11
M  V30 11 2 11 12
M  V30 12 1 11 13
M  V30 13 2 13 14
M  V30 14 1 14 15
M  V30 15 2 15 16
M  V30 16 1 16 17
M  V30 17 2 17 18
M  V30 18 1 18 19
M  V30 19 1 19 20
M  V30 20 1 19 21
M  V30 21 2 21 22
M  V30 22 1 22 23
M  V30 23 2 23 24
M  V30 24 1 24 25
M  V30 25 1 25 26
M  V30 26 1 26 27
M  V30 27 1 27 28
M  V30 28 2 28 29
M  V30 29 1 28 30
M  V30 30 1 30 31
M  V30 31 2 26 32
M  V30 32 1 32 33
M  V30 33 2 33 34
M  V30 34 1 9 4
M  V30 35 1 19 10
M  V30 36 1 34 21
M  V30 37 1 18 13
M  V30 38 1 33 24
M  V30 39 1 1 35
M  V30 40 1 1 36
M  V30 41 1 1 37
M  V30 42 1 2 38
M  V30 43 1 2 39
M  V30 44 1 3 40 CFG=3
M  V30 45 1 5 41
M  V30 46 1 6 42
M  V30 47 1 7 43
M  V30 48 1 8 44
M  V30 49 1 9 45
M  V30 50 1 14 46
M  V30 51 1 15 47
M  V30 52 1 16 48
M  V30 53 1 17 49
M  V30 54 1 20 50
M  V30 55 1 22 51
M  V30 56 1 23 52
M  V30 57 1 25 53
M  V30 58 1 27 54
M  V30 59 1 31 55
M  V30 60 1 31 56
M  V30 61 1 31 57
M  V30 62 1 34 58
M  V30 END BOND
M  V30 END CTAB
M  END
>  <Dataset>  (356) 
ChEMBL_Kinases

>  <Ligand_Instance>  (356) 
nan

>  <PDB_ID>  (356) 
nan

>  <Standardized_SMILES>  (356) 
CC[C@H](c1ccccc1)N1C(=O)c2ccccc2C1(O)c1ccc2[nH]c(NC(=O)OC)nc2c1

>  <Name>  (356) 
nan

>  <Pocket>  (356) 
nan

>  <ATP_Site>  (356) 
nan

>  <Peripheral>  (356) 
nan

>  <Num_H_Atoms_ProtBoundConf>  (356) 
nan

>  <Num_Resolved_Atoms>  (356) 
nan

>  <Num_Not_Resolved_Atoms>  (356) 
nan

$$$$
CHEMBL4869939
     RDKit          3D

  0  0  0  0  0  0  0  0  0  0999 V3000
M  V30 BEGIN CTAB
M  V30 COUNTS 52 55 0 0 0
M  V30 BEGIN ATOM
M  V30 1 N 2.856467 -4.997688 -4.008761 0
M  V30 2 C 3.393395 -4.325678 -3.229191 0
M  V30 3 C 4.069971 -3.493849 -2.285631 0
M  V30 4 C 5.197792 -3.948856 -1.603589 0
M  V30 5 C 5.844966 -3.119421 -0.685437 0
M  V30 6 C 5.405512 -1.841476 -0.419669 0
M  V30 7 N 5.992436 -1.004030 0.452747 0
M  V30 8 C 5.533333 0.243846 0.686842 0
M  V30 9 N 4.444543 0.645760 0.010409 0
M  V30 10 C 3.784923 -0.109899 -0.880568 0
M  V30 11 N 2.646510 0.424976 -1.536179 0
M  V30 12 C 2.198141 1.781333 -1.240529 0
M  V30 13 C 1.778950 1.975676 0.183059 0
M  V30 14 C 0.652129 1.087035 0.567515 0
M  V30 15 C -0.619016 1.601788 0.368220 0
M  V30 16 C -1.731589 0.846745 0.694839 0
M  V30 17 C -1.615443 -0.422987 1.221198 0
M  V30 18 C -2.721294 -1.291291 1.591293 0
M  V30 19 O -2.628209 -2.334673 0.861665 0
M  V30 20 N -3.754565 -1.120649 2.551015 0
M  V30 21 C -4.041609 -0.028463 3.473238 0
M  V30 22 C -5.467709 0.403459 3.229771 0
M  V30 23 C -5.987282 -0.216950 1.945634 0
M  V30 24 C -6.050388 -1.717294 2.123353 0
M  V30 25 C -4.731371 -2.178592 2.688428 0
M  V30 26 C -0.310749 -0.893823 1.401909 0
M  V30 27 C 0.819426 -0.159159 1.083475 0
M  V30 28 C 4.280499 -1.378737 -1.095759 0
M  V30 29 C 3.658023 -2.193414 -1.986738 0
M  V30 30 H 5.594828 -4.950747 -1.769339 0
M  V30 31 H 6.729564 -3.440115 -0.132817 0
M  V30 32 H 6.018243 0.913818 1.397277 0
M  V30 33 H 2.059248 -0.061742 -2.242458 0
M  V30 34 H 1.374807 2.114465 -1.895505 0
M  V30 35 H 3.037594 2.487905 -1.455801 0
M  V30 36 H 2.603988 1.831125 0.889049 0
M  V30 37 H 1.477059 3.040589 0.279440 0
M  V30 38 H -0.762595 2.592394 -0.040830 0
M  V30 39 H -2.740451 1.225192 0.549352 0
M  V30 40 H -3.323153 0.818500 3.301719 0
M  V30 41 H -3.922389 -0.379654 4.525532 0
M  V30 42 H -6.131834 0.117849 4.084351 0
M  V30 43 H -5.456603 1.518285 3.082565 0
M  V30 44 H -6.953391 0.221285 1.675088 0
M  V30 45 H -5.201351 -0.046187 1.161998 0
M  V30 46 H -6.858971 -1.988547 2.862249 0
M  V30 47 H -6.284964 -2.221228 1.157734 0
M  V30 48 H -4.384175 -3.088860 2.131669 0
M  V30 49 H -4.827056 -2.489395 3.750998 0
M  V30 50 H -0.165055 -1.887626 1.813166 0
M  V30 51 H 1.801453 -0.560980 1.239062 0
M  V30 52 H 2.781751 -1.896556 -2.543368 0
M  V30 END ATOM
M  V30 BEGIN BOND
M  V30 1 3 1 2
M  V30 2 1 2 3
M  V30 3 2 3 4
M  V30 4 1 4 5
M  V30 5 2 5 6
M  V30 6 1 6 7
M  V30 7 2 7 8
M  V30 8 1 8 9
M  V30 9 2 9 10
M  V30 10 1 10 11
M  V30 11 1 11 12
M  V30 12 1 12 13
M  V30 13 1 13 14
M  V30 14 2 14 15
M  V30 15 1 15 16
M  V30 16 2 16 17
M  V30 17 1 17 18
M  V30 18 2 18 19
M  V30 19 1 18 20
M  V30 20 1 20 21
M  V30 21 1 21 22
M  V30 22 1 22 23
M  V30 23 1 23 24
M  V30 24 1 24 25
M  V30 25 1 17 26
M  V30 26 2 26 27
M  V30 27 1 10 28
M  V30 28 2 28 29
M  V30 29 1 29 3
M  V30 30 1 28 6
M  V30 31 1 27 14
M  V30 32 1 25 20
M  V30 33 1 4 30
M  V30 34 1 5 31
M  V30 35 1 8 32
M  V30 36 1 11 33
M  V30 37 1 12 34
M  V30 38 1 12 35
M  V30 39 1 13 36
M  V30 40 1 13 37
M  V30 41 1 15 38
M  V30 42 1 16 39
M  V30 43 1 21 40
M  V30 44 1 21 41
M  V30 45 1 22 42
M  V30 46 1 22 43
M  V30 47 1 23 44
M  V30 48 1 23 45
M  V30 49 1 24 46
M  V30 50 1 24 47
M  V30 51 1 25 48
M  V30 52 1 25 49
M  V30 53 1 26 50
M  V30 54 1 27 51
M  V30 55 1 29 52
M  V30 END BOND
M  V30 END CTAB
M  END
>  <Dataset>  (357) 
ChEMBL_Kinases

>  <Ligand_Instance>  (357) 
nan

>  <PDB_ID>  (357) 
nan

>  <Standardized_SMILES>  (357) 
N#Cc1ccc2ncnc(NCCc3ccc(C(=O)N4CCCCC4)cc3)c2c1

>  <Name>  (357) 
nan

>  <Pocket>  (357) 
nan

>  <ATP_Site>  (357) 
nan

>  <Peripheral>  (357) 
nan

>  <Num_H_Atoms_ProtBoundConf>  (357) 
nan

>  <Num_Resolved_Atoms>  (357) 
nan

>  <Num_Not_Resolved_Atoms>  (357) 
nan

$$$$
CHEMBL3962242
     RDKit          3D

  0  0  0  0  0  0  0  0  0  0999 V3000
M  V30 BEGIN CTAB
M  V30 COUNTS 57 60 0 0 0
M  V30 BEGIN ATOM
M  V30 1 C 3.698819 -0.148799 4.652535 0
M  V30 2 C 4.037528 0.987295 3.732733 0
M  V30 3 N 4.378603 0.593445 2.381370 0
M  V30 4 N 5.621089 0.281110 1.949916 0
M  V30 5 C 5.609267 -0.064367 0.658184 0
M  V30 6 C 4.297462 0.051827 0.318239 0
M  V30 7 C 3.799439 -0.222421 -0.938097 0
M  V30 8 C 2.460490 -0.063027 -1.083850 0
M  V30 9 N 1.735699 0.341038 -0.031516 0
M  V30 10 C 2.095735 0.619595 1.169707 0
M  V30 11 C 3.475232 0.462639 1.360492 0
M  V30 12 C 1.309428 1.033186 2.303480 0
M  V30 13 C -0.136083 1.248568 2.088875 0
M  V30 14 C -1.110040 0.238836 1.679603 0
M  V30 15 O -1.149278 -0.167825 0.387691 0
M  V30 16 C -2.227043 -1.033286 0.069664 0 CFG=1
M  V30 17 C -3.024514 -0.212014 -0.962269 0 CFG=2
M  V30 18 C -3.431545 1.139994 -0.399254 0
M  V30 19 O -4.151792 -0.864263 -1.413995 0
M  V30 20 C -1.651874 -2.196366 -0.755323 0 CFG=1
M  V30 21 C -2.636940 -3.167271 -1.192957 0
M  V30 22 C -2.371200 -3.877573 -2.348744 0
M  V30 23 C -3.292193 -4.826552 -2.774072 0
M  V30 24 C -4.447507 -5.056669 -2.059435 0
M  V30 25 C -4.678995 -4.326648 -0.907761 0
M  V30 26 C -3.783853 -3.380042 -0.463084 0
M  V30 27 N -1.081487 -1.447289 -1.898296 0
M  V30 28 C 0.230956 -1.059328 -1.555599 0
M  V30 29 O 0.582027 -1.535246 -0.464705 0
M  V30 30 N 1.369584 -0.254127 -2.032147 0
M  V30 31 H 2.666933 -0.073610 5.097511 0
M  V30 32 H 3.677233 -1.077965 4.019801 0
M  V30 33 H 4.365367 -0.333843 5.486377 0
M  V30 34 H 5.047575 1.310816 4.166154 0
M  V30 35 H 3.515168 1.922169 3.865309 0
M  V30 36 H 6.446163 -0.367430 0.023814 0
M  V30 37 H 4.130407 -0.534664 -1.900423 0
M  V30 38 H 1.340284 0.280966 3.139515 0
M  V30 39 H 1.618806 2.047221 2.705172 0
M  V30 40 H -0.600131 1.786114 2.996039 0
M  V30 41 H -0.281867 2.120111 1.319731 0
M  V30 42 H -1.074927 -0.680835 2.377402 0
M  V30 43 H -2.163554 0.613589 1.915037 0
M  V30 44 H -2.833907 -1.310528 0.907226 0
M  V30 45 H -2.418800 0.022140 -1.860709 0
M  V30 46 H -4.050585 1.024950 0.504268 0
M  V30 47 H -2.552947 1.758411 -0.139812 0
M  V30 48 H -4.069980 1.662875 -1.139628 0
M  V30 49 H -4.827569 -0.163674 -1.651709 0
M  V30 50 H -0.927651 -2.653176 -0.097604 0
M  V30 51 H -1.468832 -3.693946 -2.900635 0
M  V30 52 H -3.073593 -5.374573 -3.678708 0
M  V30 53 H -5.150240 -5.809245 -2.419419 0
M  V30 54 H -5.593069 -4.570814 -0.421960 0
M  V30 55 H -4.047596 -2.868736 0.436353 0
M  V30 56 H -0.963555 -0.995066 -2.802565 0
M  V30 57 H 1.825870 0.350572 -2.726830 0
M  V30 END ATOM
M  V30 BEGIN BOND
M  V30 1 1 1 2
M  V30 2 1 2 3
M  V30 3 1 3 4
M  V30 4 2 4 5
M  V30 5 1 5 6
M  V30 6 2 6 7
M  V30 7 1 7 8
M  V30 8 2 8 9
M  V30 9 1 9 10
M  V30 10 2 10 11
M  V30 11 1 10 12
M  V30 12 1 12 13
M  V30 13 1 13 14
M  V30 14 1 14 15
M  V30 15 1 15 16
M  V30 16 1 16 17
M  V30 17 1 17 18
M  V30 18 1 17 19
M  V30 19 1 16 20
M  V30 20 1 20 21
M  V30 21 2 21 22
M  V30 22 1 22 23
M  V30 23 2 23 24
M  V30 24 1 24 25
M  V30 25 2 25 26
M  V30 26 1 20 27
M  V30 27 1 27 28
M  V30 28 2 28 29
M  V30 29 1 28 30
M  V30 30 1 11 3
M  V30 31 1 26 21
M  V30 32 1 11 6
M  V30 33 1 30 8
M  V30 34 1 1 31
M  V30 35 1 1 32
M  V30 36 1 1 33
M  V30 37 1 2 34
M  V30 38 1 2 35
M  V30 39 1 5 36
M  V30 40 1 7 37
M  V30 41 1 12 38
M  V30 42 1 12 39
M  V30 43 1 13 40
M  V30 44 1 13 41
M  V30 45 1 14 42
M  V30 46 1 14 43
M  V30 47 1 16 44 CFG=1
M  V30 48 1 17 45 CFG=3
M  V30 49 1 18 46
M  V30 50 1 18 47
M  V30 51 1 18 48
M  V30 52 1 19 49
M  V30 53 1 20 50 CFG=1
M  V30 54 1 22 51
M  V30 55 1 23 52
M  V30 56 1 24 53
M  V30 57 1 25 54
M  V30 58 1 26 55
M  V30 59 1 27 56
M  V30 60 1 30 57
M  V30 END BOND
M  V30 END CTAB
M  END
>  <Dataset>  (358) 
ChEMBL_Kinases

>  <Ligand_Instance>  (358) 
nan

>  <PDB_ID>  (358) 
nan

>  <Standardized_SMILES>  (358) 
CCn1ncc2cc3nc(c21)CCCO[C@@H]([C@H](C)O)[C@@H](c1ccccc1)NC(=O)N3

>  <Name>  (358) 
nan

>  <Pocket>  (358) 
nan

>  <ATP_Site>  (358) 
nan

>  <Peripheral>  (358) 
nan

>  <Num_H_Atoms_ProtBoundConf>  (358) 
nan

>  <Num_Resolved_Atoms>  (358) 
nan

>  <Num_Not_Resolved_Atoms>  (358) 
nan

$$$$
CHEMBL396160
     RDKit          3D

  0  0  0  0  0  0  0  0  0  0999 V3000
M  V30 BEGIN CTAB
M  V30 COUNTS 49 52 0 0 0
M  V30 BEGIN ATOM
M  V30 1 C 3.705683 -2.975607 0.478511 0
M  V30 2 C 4.873765 -2.059168 0.274226 0
M  V30 3 C 6.033431 -2.619818 1.072592 0
M  V30 4 N 7.141442 -1.702107 1.188400 0
M  V30 5 C 6.872064 -0.377232 1.631083 0
M  V30 6 O 7.762681 0.296236 2.205154 0
M  V30 7 C 5.523102 0.126613 1.376010 0
M  V30 8 N 4.996843 1.324338 1.680109 0
M  V30 9 C 3.721135 1.343995 1.254656 0
M  V30 10 C 2.798323 2.365834 1.353115 0
M  V30 11 C 1.525388 2.165238 0.839789 0
M  V30 12 C 1.235341 0.949958 0.251298 0
M  V30 13 C -0.076681 0.620498 -0.327293 0
M  V30 14 O -0.344628 -0.504889 -0.871987 0
M  V30 15 N -1.169067 1.529130 -0.332171 0
M  V30 16 C -2.351300 0.928123 -0.976133 0
M  V30 17 N -3.211894 0.267443 -0.297056 0
M  V30 18 C -4.263071 -0.261291 -0.898743 0
M  V30 19 C -5.268717 -1.029079 -0.127163 0
M  V30 20 O -6.265231 -1.528584 -0.706045 0
M  V30 21 N -5.200597 -1.259387 1.272013 0
M  V30 22 C -6.064855 -1.955567 2.142019 0
M  V30 23 C -7.458082 -1.514594 2.303140 0
M  V30 24 N -8.191582 -1.551630 1.071953 0
M  V30 25 C -4.395802 -0.071380 -2.294846 0
M  V30 26 S -2.859640 0.932456 -2.604462 0
M  V30 27 C 2.190887 -0.053510 0.171369 0
M  V30 28 C 3.467435 0.105098 0.668994 0
M  V30 29 C 4.611535 -0.677309 0.742228 0
M  V30 30 H 4.035386 -3.968508 0.848455 0
M  V30 31 H 3.157610 -3.094103 -0.497313 0
M  V30 32 H 2.967911 -2.606459 1.200673 0
M  V30 33 H 5.167902 -2.014070 -0.803207 0
M  V30 34 H 5.642077 -2.763848 2.115333 0
M  V30 35 H 6.324292 -3.610929 0.715661 0
M  V30 36 H 8.122199 -1.996443 0.954309 0
M  V30 37 H 5.494175 2.100243 2.161877 0
M  V30 38 H 3.048061 3.298065 1.813798 0
M  V30 39 H 0.757793 2.913453 0.880662 0
M  V30 40 H -1.062714 2.459330 0.078936 0
M  V30 41 H -4.327055 -0.807086 1.689706 0
M  V30 42 H -6.080313 -3.037559 1.859513 0
M  V30 43 H -5.604559 -1.964579 3.171905 0
M  V30 44 H -7.596035 -0.571941 2.869362 0
M  V30 45 H -7.953697 -2.284386 2.968249 0
M  V30 46 H -9.065744 -0.976380 1.081161 0
M  V30 47 H -8.496264 -2.519102 0.812478 0
M  V30 48 H -5.243864 -0.469293 -2.927636 0
M  V30 49 H 1.967831 -1.007663 -0.289084 0
M  V30 END ATOM
M  V30 BEGIN BOND
M  V30 1 1 1 2
M  V30 2 1 2 3
M  V30 3 1 3 4
M  V30 4 1 4 5
M  V30 5 2 5 6
M  V30 6 1 5 7
M  V30 7 1 7 8
M  V30 8 1 8 9
M  V30 9 2 9 10
M  V30 10 1 10 11
M  V30 11 2 11 12
M  V30 12 1 12 13
M  V30 13 2 13 14
M  V30 14 1 13 15
M  V30 15 1 15 16
M  V30 16 2 16 17
M  V30 17 1 17 18
M  V30 18 1 18 19
M  V30 19 2 19 20
M  V30 20 1 19 21
M  V30 21 1 21 22
M  V30 22 1 22 23
M  V30 23 1 23 24
M  V30 24 2 18 25
M  V30 25 1 25 26
M  V30 26 1 12 27
M  V30 27 2 27 28
M  V30 28 1 28 29
M  V30 29 1 29 2
M  V30 30 2 29 7
M  V30 31 1 28 9
M  V30 32 1 26 16
M  V30 33 1 1 30
M  V30 34 1 1 31
M  V30 35 1 1 32
M  V30 36 1 2 33
M  V30 37 1 3 34
M  V30 38 1 3 35
M  V30 39 1 4 36
M  V30 40 1 8 37
M  V30 41 1 10 38
M  V30 42 1 11 39
M  V30 43 1 15 40
M  V30 44 1 21 41
M  V30 45 1 22 42
M  V30 46 1 22 43
M  V30 47 1 23 44
M  V30 48 1 23 45
M  V30 49 1 24 46
M  V30 50 1 24 47
M  V30 51 1 25 48
M  V30 52 1 27 49
M  V30 END BOND
M  V30 END CTAB
M  END
>  <Dataset>  (359) 
ChEMBL_Kinases

>  <Ligand_Instance>  (359) 
nan

>  <PDB_ID>  (359) 
nan

>  <Standardized_SMILES>  (359) 
CC1CNC(=O)c2[nH]c3ccc(C(=O)Nc4nc(C(=O)NCCN)cs4)cc3c21

>  <Name>  (359) 
nan

>  <Pocket>  (359) 
nan

>  <ATP_Site>  (359) 
nan

>  <Peripheral>  (359) 
nan

>  <Num_H_Atoms_ProtBoundConf>  (359) 
nan

>  <Num_Resolved_Atoms>  (359) 
nan

>  <Num_Not_Resolved_Atoms>  (359) 
nan

$$$$
CHEMBL3962115
     RDKit          3D

  0  0  0  0  0  0  0  0  0  0999 V3000
M  V30 BEGIN CTAB
M  V30 COUNTS 47 51 0 0 0
M  V30 BEGIN ATOM
M  V30 1 O -1.628447 -3.179033 4.989479 0
M  V30 2 C -1.023521 -3.115780 3.893290 0
M  V30 3 C -0.488077 -4.355302 3.282576 0
M  V30 4 O 0.704498 -4.150472 2.565324 0
M  V30 5 C 0.946501 -2.969297 1.836714 0
M  V30 6 C 1.910555 -2.940097 0.847768 0
M  V30 7 C 2.138225 -1.774915 0.140121 0
M  V30 8 C 1.366394 -0.672045 0.470953 0
M  V30 9 C 1.599916 0.597663 -0.275966 0
M  V30 10 O 2.596178 0.483016 -1.220429 0
M  V30 11 C 1.878060 1.649975 0.733950 0
M  V30 12 C 2.992848 1.739831 1.565036 0
M  V30 13 C 3.120335 2.780945 2.482916 0
M  V30 14 C 2.160521 3.747996 2.601203 0
M  V30 15 C 1.087667 3.624139 1.771094 0
M  V30 16 C 0.907969 2.626260 0.851712 0
M  V30 17 C -0.084023 2.243820 -0.147119 0
M  V30 18 O -1.132154 2.955201 -0.295846 0
M  V30 19 N 0.338980 1.042606 -0.829917 0
M  V30 20 C -0.520318 0.541191 -1.885455 0
M  V30 21 C -1.514836 -0.406307 -1.326620 0
M  V30 22 C -2.752833 0.001382 -0.841865 0
M  V30 23 C -3.698992 -0.861594 -0.322074 0
M  V30 24 C -3.419817 -2.205959 -0.272360 0
M  V30 25 C -2.217225 -2.675743 -0.733953 0
M  V30 26 F -1.905090 -4.007857 -0.700044 0
M  V30 27 C -1.319854 -1.776935 -1.237020 0
M  V30 28 C 0.390344 -0.649897 1.451207 0
M  V30 29 C 0.185950 -1.843060 2.146744 0
M  V30 30 N -0.813819 -1.888771 3.178661 0
M  V30 31 H -1.296715 -4.750368 2.617323 0
M  V30 32 H -0.311169 -5.110449 4.060731 0
M  V30 33 H 2.474973 -3.860499 0.652560 0
M  V30 34 H 2.884486 -1.736059 -0.632308 0
M  V30 35 H 3.439054 0.231207 -0.787003 0
M  V30 36 H 3.791811 1.003609 1.521521 0
M  V30 37 H 4.005055 2.799626 3.100905 0
M  V30 38 H 2.223907 4.560186 3.292860 0
M  V30 39 H 0.297089 4.386429 1.841145 0
M  V30 40 H -0.995516 1.361991 -2.472315 0
M  V30 41 H 0.062732 -0.050284 -2.632834 0
M  V30 42 H -3.018164 1.040514 -0.858685 0
M  V30 43 H -4.655707 -0.472962 0.043581 0
M  V30 44 H -4.160042 -2.888232 0.134758 0
M  V30 45 H -0.369480 -2.174559 -1.598591 0
M  V30 46 H -0.189662 0.215660 1.685291 0
M  V30 47 H -1.398498 -1.061044 3.432577 0
M  V30 END ATOM
M  V30 BEGIN BOND
M  V30 1 2 1 2
M  V30 2 1 2 3
M  V30 3 1 3 4
M  V30 4 1 4 5
M  V30 5 2 5 6
M  V30 6 1 6 7
M  V30 7 2 7 8
M  V30 8 1 8 9
M  V30 9 1 9 10
M  V30 10 1 9 11
M  V30 11 2 11 12
M  V30 12 1 12 13
M  V30 13 2 13 14
M  V30 14 1 14 15
M  V30 15 2 15 16
M  V30 16 1 16 17
M  V30 17 2 17 18
M  V30 18 1 17 19
M  V30 19 1 19 20
M  V30 20 1 20 21
M  V30 21 2 21 22
M  V30 22 1 22 23
M  V30 23 2 23 24
M  V30 24 1 24 25
M  V30 25 1 25 26
M  V30 26 2 25 27
M  V30 27 1 8 28
M  V30 28 2 28 29
M  V30 29 1 29 30
M  V30 30 1 30 2
M  V30 31 1 29 5
M  V30 32 1 19 9
M  V30 33 1 27 21
M  V30 34 1 16 11
M  V30 35 1 3 31
M  V30 36 1 3 32
M  V30 37 1 6 33
M  V30 38 1 7 34
M  V30 39 1 10 35
M  V30 40 1 12 36
M  V30 41 1 13 37
M  V30 42 1 14 38
M  V30 43 1 15 39
M  V30 44 1 20 40
M  V30 45 1 20 41
M  V30 46 1 22 42
M  V30 47 1 23 43
M  V30 48 1 24 44
M  V30 49 1 27 45
M  V30 50 1 28 46
M  V30 51 1 30 47
M  V30 END BOND
M  V30 END CTAB
M  END
>  <Dataset>  (360) 
ChEMBL_Kinases

>  <Ligand_Instance>  (360) 
nan

>  <PDB_ID>  (360) 
nan

>  <Standardized_SMILES>  (360) 
O=C1COc2ccc(C3(O)c4ccccc4C(=O)N3Cc3cccc(F)c3)cc2N1

>  <Name>  (360) 
nan

>  <Pocket>  (360) 
nan

>  <ATP_Site>  (360) 
nan

>  <Peripheral>  (360) 
nan

>  <Num_H_Atoms_ProtBoundConf>  (360) 
nan

>  <Num_Resolved_Atoms>  (360) 
nan

>  <Num_Not_Resolved_Atoms>  (360) 
nan

$$$$
CHEMBL3962041
     RDKit          3D

  0  0  0  0  0  0  0  0  0  0999 V3000
M  V30 BEGIN CTAB
M  V30 COUNTS 56 60 0 0 0
M  V30 BEGIN ATOM
M  V30 1 C 5.846350 -4.630535 4.939286 0
M  V30 2 O 6.124568 -3.361694 4.354364 0
M  V30 3 C 5.155745 -2.734531 3.560100 0
M  V30 4 O 4.173897 -3.532602 3.559795 0
M  V30 5 N 5.317690 -1.459461 2.918435 0
M  V30 6 C 4.164487 -1.074767 2.175976 0
M  V30 7 N 3.061301 -0.377175 2.509713 0
M  V30 8 C 2.237526 -0.267007 1.461866 0
M  V30 9 C 1.011648 0.304918 1.192644 0
M  V30 10 C 0.376792 0.257665 -0.030473 0
M  V30 11 C -0.906095 0.852900 -0.320870 0
M  V30 12 O -1.352710 0.393100 -1.561013 0
M  V30 13 C -1.072715 2.284160 -0.279611 0
M  V30 14 C -0.314168 3.210833 -1.006058 0
M  V30 15 C -0.561438 4.563235 -0.890098 0
M  V30 16 C -1.551268 5.048150 -0.065907 0
M  V30 17 C -2.308255 4.126292 0.658881 0
M  V30 18 C -2.070918 2.770650 0.551808 0
M  V30 19 C -2.651992 1.562026 1.145543 0
M  V30 20 O -3.602316 1.528601 1.973575 0
M  V30 21 N -1.957844 0.427444 0.626084 0
M  V30 22 C -2.277082 -0.926974 1.005604 0
M  V30 23 C -3.280585 -1.595358 0.182190 0
M  V30 24 C -4.637017 -1.551269 0.452902 0
M  V30 25 C -5.535837 -2.217674 -0.383626 0
M  V30 26 C -5.115843 -2.930008 -1.487835 0
M  V30 27 C -3.771126 -3.010357 -1.809743 0
M  V30 28 O -3.264505 -3.693497 -2.884504 0
M  V30 29 C -1.912223 -3.800219 -3.246215 0
M  V30 30 C -2.908142 -2.330295 -0.947807 0
M  V30 31 C 1.096999 -0.437646 -1.006362 0
M  V30 32 C 2.326199 -1.035425 -0.813226 0
M  V30 33 C 2.897799 -0.943811 0.443100 0
M  V30 34 N 4.072338 -1.438729 0.870326 0
M  V30 35 H 5.437204 -5.342547 4.169307 0
M  V30 36 H 6.815288 -5.009988 5.362440 0
M  V30 37 H 5.137108 -4.580885 5.773485 0
M  V30 38 H 6.245659 -1.012977 3.091655 0
M  V30 39 H 0.532786 0.818977 2.004596 0
M  V30 40 H -2.346058 0.525021 -1.643901 0
M  V30 41 H 0.502031 2.986775 -1.698426 0
M  V30 42 H -0.004213 5.326475 -1.430040 0
M  V30 43 H -1.770297 6.111476 0.046512 0
M  V30 44 H -3.103001 4.456500 1.325074 0
M  V30 45 H -2.583006 -1.037714 2.058900 0
M  V30 46 H -1.317935 -1.517704 0.909910 0
M  V30 47 H -4.965324 -0.999841 1.308248 0
M  V30 48 H -6.604591 -2.162447 -0.140420 0
M  V30 49 H -5.822142 -3.448516 -2.137667 0
M  V30 50 H -1.830534 -4.665067 -3.964575 0
M  V30 51 H -1.253443 -3.920347 -2.376890 0
M  V30 52 H -1.615298 -2.903861 -3.854768 0
M  V30 53 H -1.828665 -2.359363 -1.153973 0
M  V30 54 H 0.642890 -0.509668 -2.002705 0
M  V30 55 H 2.788100 -1.547597 -1.648834 0
M  V30 56 H 4.755687 -1.993509 0.276074 0
M  V30 END ATOM
M  V30 BEGIN BOND
M  V30 1 1 1 2
M  V30 2 1 2 3
M  V30 3 2 3 4
M  V30 4 1 3 5
M  V30 5 1 5 6
M  V30 6 2 6 7
M  V30 7 1 7 8
M  V30 8 2 8 9
M  V30 9 1 9 10
M  V30 10 1 10 11
M  V30 11 1 11 12
M  V30 12 1 11 13
M  V30 13 2 13 14
M  V30 14 1 14 15
M  V30 15 2 15 16
M  V30 16 1 16 17
M  V30 17 2 17 18
M  V30 18 1 18 19
M  V30 19 2 19 20
M  V30 20 1 19 21
M  V30 21 1 21 22
M  V30 22 1 22 23
M  V30 23 2 23 24
M  V30 24 1 24 25
M  V30 25 2 25 26
M  V30 26 1 26 27
M  V30 27 1 27 28
M  V30 28 1 28 29
M  V30 29 2 27 30
M  V30 30 2 10 31
M  V30 31 1 31 32
M  V30 32 2 32 33
M  V30 33 1 33 34
M  V30 34 1 34 6
M  V30 35 1 33 8
M  V30 36 1 21 11
M  V30 37 1 30 23
M  V30 38 1 18 13
M  V30 39 1 1 35
M  V30 40 1 1 36
M  V30 41 1 1 37
M  V30 42 1 5 38
M  V30 43 1 9 39
M  V30 44 1 12 40
M  V30 45 1 14 41
M  V30 46 1 15 42
M  V30 47 1 16 43
M  V30 48 1 17 44
M  V30 49 1 22 45
M  V30 50 1 22 46
M  V30 51 1 24 47
M  V30 52 1 25 48
M  V30 53 1 26 49
M  V30 54 1 29 50
M  V30 55 1 29 51
M  V30 56 1 29 52
M  V30 57 1 30 53
M  V30 58 1 31 54
M  V30 59 1 32 55
M  V30 60 1 34 56
M  V30 END BOND
M  V30 END CTAB
M  END
>  <Dataset>  (361) 
ChEMBL_Kinases

>  <Ligand_Instance>  (361) 
nan

>  <PDB_ID>  (361) 
nan

>  <Standardized_SMILES>  (361) 
COC(=O)Nc1nc2cc(C3(O)c4ccccc4C(=O)N3Cc3cccc(OC)c3)ccc2[nH]1

>  <Name>  (361) 
nan

>  <Pocket>  (361) 
nan

>  <ATP_Site>  (361) 
nan

>  <Peripheral>  (361) 
nan

>  <Num_H_Atoms_ProtBoundConf>  (361) 
nan

>  <Num_Resolved_Atoms>  (361) 
nan

>  <Num_Not_Resolved_Atoms>  (361) 
nan

$$$$
CHEMBL3702037
     RDKit          3D

  0  0  0  0  0  0  0  0  0  0999 V3000
M  V30 BEGIN CTAB
M  V30 COUNTS 60 65 0 0 0
M  V30 BEGIN ATOM
M  V30 1 C 4.018776 -5.101513 5.605477 0
M  V30 2 C 3.876145 -3.627333 5.402196 0 CFG=1
M  V30 3 C 4.379400 -3.274424 4.003450 0
M  V30 4 N 3.167814 -3.094635 3.203183 0
M  V30 5 C 2.972832 -2.055765 2.246587 0
M  V30 6 C 4.005298 -1.338411 1.700400 0
M  V30 7 C 3.655954 -0.351054 0.815481 0
M  V30 8 C 2.326997 -0.070772 0.472486 0
M  V30 9 N 2.023371 0.988512 -0.457051 0
M  V30 10 C 0.715651 1.386932 -0.830517 0
M  V30 11 N 0.626069 2.737944 -0.662519 0
M  V30 12 C -0.476948 3.456609 -0.914221 0
M  V30 13 C -1.570817 2.746410 -1.371854 0
M  V30 14 C -2.827534 3.197379 -1.704511 0
M  V30 15 C -3.382553 4.472571 -1.688365 0
M  V30 16 C -4.698975 4.621919 -2.077843 0
M  V30 17 N -5.388249 3.531913 -2.455894 0
M  V30 18 C -4.828914 2.300548 -2.464251 0
M  V30 19 O -5.532593 1.336131 -2.828128 0
M  V30 20 C -3.532466 2.051403 -2.095607 0
M  V30 21 N -2.724720 0.981135 -1.996128 0
M  V30 22 C -3.094733 -0.357299 -2.308121 0
M  V30 23 C -2.083329 -1.381843 -1.827698 0
M  V30 24 C -2.743322 -2.654367 -2.377569 0
M  V30 25 C -3.374486 -2.207215 -3.701125 0
M  V30 26 C -3.109897 -0.695501 -3.783169 0
M  V30 27 C -1.521155 1.380386 -1.555478 0
M  V30 28 N -0.364054 0.712570 -1.278775 0
M  V30 29 N 1.350822 -0.834289 1.060680 0
M  V30 30 N 1.689382 -1.795229 1.921811 0
M  V30 31 C 2.138085 -4.097508 3.461179 0
M  V30 32 C 1.559737 -3.810558 4.822925 0
M  V30 33 N 2.538645 -3.168547 5.649945 0
M  V30 34 H 4.457009 -5.259342 6.633930 0
M  V30 35 H 4.688834 -5.588798 4.865389 0
M  V30 36 H 3.043466 -5.645016 5.652682 0
M  V30 37 H 4.520938 -3.073725 6.134041 0
M  V30 38 H 4.918372 -2.296078 4.063695 0
M  V30 39 H 4.997556 -4.106431 3.655801 0
M  V30 40 H 5.023637 -1.552547 1.962092 0
M  V30 41 H 4.430459 0.238568 0.360420 0
M  V30 42 H 2.857420 1.463787 -0.860964 0
M  V30 43 H -0.540644 4.536158 -0.773951 0
M  V30 44 H -2.768106 5.301469 -1.370349 0
M  V30 45 H -5.091467 5.629209 -2.049078 0
M  V30 46 H -6.370377 3.743921 -2.730360 0
M  V30 47 H -4.088429 -0.650321 -1.912667 0
M  V30 48 H -1.146617 -1.271163 -2.383727 0
M  V30 49 H -1.996447 -1.440224 -0.748638 0
M  V30 50 H -3.544645 -2.932958 -1.669028 0
M  V30 51 H -1.994970 -3.455667 -2.527403 0
M  V30 52 H -2.952321 -2.755118 -4.552686 0
M  V30 53 H -4.467646 -2.332282 -3.674482 0
M  V30 54 H -2.088382 -0.600129 -4.225115 0
M  V30 55 H -3.879573 -0.188733 -4.366850 0
M  V30 56 H 1.323779 -3.921225 2.716829 0
M  V30 57 H 2.549407 -5.124026 3.371826 0
M  V30 58 H 1.179320 -4.745241 5.285140 0
M  V30 59 H 0.664885 -3.150579 4.675365 0
M  V30 60 H 2.440983 -2.154578 5.745983 0
M  V30 END ATOM
M  V30 BEGIN BOND
M  V30 1 1 1 2
M  V30 2 1 2 3
M  V30 3 1 3 4
M  V30 4 1 4 5
M  V30 5 2 5 6
M  V30 6 1 6 7
M  V30 7 2 7 8
M  V30 8 1 8 9
M  V30 9 1 9 10
M  V30 10 2 10 11
M  V30 11 1 11 12
M  V30 12 2 12 13
M  V30 13 1 13 14
M  V30 14 1 14 15
M  V30 15 2 15 16
M  V30 16 1 16 17
M  V30 17 1 17 18
M  V30 18 2 18 19
M  V30 19 1 18 20
M  V30 20 1 20 21
M  V30 21 1 21 22
M  V30 22 1 22 23
M  V30 23 1 23 24
M  V30 24 1 24 25
M  V30 25 1 25 26
M  V30 26 1 21 27
M  V30 27 2 27 28
M  V30 28 1 8 29
M  V30 29 2 29 30
M  V30 30 1 4 31
M  V30 31 1 31 32
M  V30 32 1 32 33
M  V30 33 1 33 2
M  V30 34 1 30 5
M  V30 35 1 28 10
M  V30 36 1 27 13
M  V30 37 2 20 14
M  V30 38 1 26 22
M  V30 39 1 1 34
M  V30 40 1 1 35
M  V30 41 1 1 36
M  V30 42 1 2 37 CFG=1
M  V30 43 1 3 38
M  V30 44 1 3 39
M  V30 45 1 6 40
M  V30 46 1 7 41
M  V30 47 1 9 42
M  V30 48 1 12 43
M  V30 49 1 15 44
M  V30 50 1 16 45
M  V30 51 1 17 46
M  V30 52 1 22 47
M  V30 53 1 23 48
M  V30 54 1 23 49
M  V30 55 1 24 50
M  V30 56 1 24 51
M  V30 57 1 25 52
M  V30 58 1 25 53
M  V30 59 1 26 54
M  V30 60 1 26 55
M  V30 61 1 31 56
M  V30 62 1 31 57
M  V30 63 1 32 58
M  V30 64 1 32 59
M  V30 65 1 33 60
M  V30 END BOND
M  V30 END CTAB
M  END
>  <Dataset>  (362) 
ChEMBL_Kinases

>  <Ligand_Instance>  (362) 
nan

>  <PDB_ID>  (362) 
nan

>  <Standardized_SMILES>  (362) 
C[C@H]1CN(c2ccc(Nc3ncc4c5cc[nH]c(=O)c5n(C5CCCC5)c4n3)nn2)CCN1

>  <Name>  (362) 
nan

>  <Pocket>  (362) 
nan

>  <ATP_Site>  (362) 
nan

>  <Peripheral>  (362) 
nan

>  <Num_H_Atoms_ProtBoundConf>  (362) 
nan

>  <Num_Resolved_Atoms>  (362) 
nan

>  <Num_Not_Resolved_Atoms>  (362) 
nan

$$$$
CHEMBL3962015
     RDKit          3D

  0  0  0  0  0  0  0  0  0  0999 V3000
M  V30 BEGIN CTAB
M  V30 COUNTS 42 45 0 0 0
M  V30 BEGIN ATOM
M  V30 1 C 0.679254 -3.961295 -1.369214 0
M  V30 2 C 0.898002 -2.478214 -1.438309 0 CFG=2
M  V30 3 C 0.112663 -1.903536 -2.598618 0
M  V30 4 O 0.514107 -2.465088 -3.791191 0
M  V30 5 N 2.312649 -2.184576 -1.619519 0
M  V30 6 C 3.251795 -3.012353 -2.145646 0
M  V30 7 N 4.468929 -2.394229 -2.156521 0
M  V30 8 N 4.260853 -1.178865 -1.630452 0
M  V30 9 C 2.949897 -1.045667 -1.301695 0
M  V30 10 C 2.291698 0.111458 -0.704007 0
M  V30 11 C 2.504412 1.343273 -1.312314 0
M  V30 12 C 1.862349 2.416947 -0.715049 0
M  V30 13 C 1.067271 2.264502 0.407707 0
M  V30 14 C 0.883645 1.021638 0.979234 0
M  V30 15 N 0.084378 0.768731 2.133668 0
M  V30 16 C -0.620450 1.838196 2.817544 0
M  V30 17 C -1.302753 1.126720 3.931143 0
M  V30 18 C -2.136898 1.595861 4.946398 0
M  V30 19 C -2.640329 0.690733 5.866356 0
M  V30 20 C -2.333750 -0.657759 5.797278 0
M  V30 21 C -1.500392 -1.155824 4.790571 0
M  V30 22 C -1.020804 -0.223420 3.896047 0
M  V30 23 C -0.138651 -0.490919 2.763237 0
M  V30 24 O 0.386415 -1.560788 2.324426 0
M  V30 25 N 1.514404 -0.013850 0.387498 0
M  V30 26 H -0.291274 -4.128882 -0.860722 0
M  V30 27 H 0.650143 -4.437838 -2.366685 0
M  V30 28 H 1.440756 -4.459697 -0.720920 0
M  V30 29 H 0.597420 -2.030822 -0.490630 0
M  V30 30 H 0.288046 -0.806977 -2.632908 0
M  V30 31 H -0.961206 -2.127883 -2.450347 0
M  V30 32 H -0.126932 -3.168429 -4.076813 0
M  V30 33 H 3.085118 -4.022282 -2.511323 0
M  V30 34 H 3.126955 1.442909 -2.186335 0
M  V30 35 H 1.983662 3.403144 -1.135308 0
M  V30 36 H 0.567091 3.103752 0.872261 0
M  V30 37 H 0.143269 2.520127 3.247532 0
M  V30 38 H -1.328011 2.367098 2.161462 0
M  V30 39 H -2.382305 2.639112 5.011052 0
M  V30 40 H -3.295170 1.056936 6.663919 0
M  V30 41 H -2.725066 -1.387048 6.519026 0
M  V30 42 H -1.256297 -2.207441 4.729878 0
M  V30 END ATOM
M  V30 BEGIN BOND
M  V30 1 1 1 2
M  V30 2 1 2 3
M  V30 3 1 3 4
M  V30 4 1 2 5
M  V30 5 1 5 6
M  V30 6 2 6 7
M  V30 7 1 7 8
M  V30 8 2 8 9
M  V30 9 1 9 10
M  V30 10 2 10 11
M  V30 11 1 11 12
M  V30 12 2 12 13
M  V30 13 1 13 14
M  V30 14 1 14 15
M  V30 15 1 15 16
M  V30 16 1 16 17
M  V30 17 2 17 18
M  V30 18 1 18 19
M  V30 19 2 19 20
M  V30 20 1 20 21
M  V30 21 2 21 22
M  V30 22 1 22 23
M  V30 23 2 23 24
M  V30 24 2 14 25
M  V30 25 1 9 5
M  V30 26 1 25 10
M  V30 27 1 23 15
M  V30 28 1 22 17
M  V30 29 1 1 26
M  V30 30 1 1 27
M  V30 31 1 1 28
M  V30 32 1 2 29 CFG=1
M  V30 33 1 3 30
M  V30 34 1 3 31
M  V30 35 1 4 32
M  V30 36 1 6 33
M  V30 37 1 11 34
M  V30 38 1 12 35
M  V30 39 1 13 36
M  V30 40 1 16 37
M  V30 41 1 16 38
M  V30 42 1 18 39
M  V30 43 1 19 40
M  V30 44 1 20 41
M  V30 45 1 21 42
M  V30 END BOND
M  V30 END CTAB
M  END
>  <Dataset>  (363) 
ChEMBL_Kinases

>  <Ligand_Instance>  (363) 
nan

>  <PDB_ID>  (363) 
nan

>  <Standardized_SMILES>  (363) 
C[C@H](CO)n1cnnc1-c1cccc(N2Cc3ccccc3C2=O)n1

>  <Name>  (363) 
nan

>  <Pocket>  (363) 
nan

>  <ATP_Site>  (363) 
nan

>  <Peripheral>  (363) 
nan

>  <Num_H_Atoms_ProtBoundConf>  (363) 
nan

>  <Num_Resolved_Atoms>  (363) 
nan

>  <Num_Not_Resolved_Atoms>  (363) 
nan

$$$$
CHEMBL3961999
     RDKit          3D

  0  0  0  0  0  0  0  0  0  0999 V3000
M  V30 BEGIN CTAB
M  V30 COUNTS 66 69 0 0 0
M  V30 BEGIN ATOM
M  V30 1 C 0.857713 -3.629449 3.221867 0
M  V30 2 C 1.654588 -2.739779 2.336542 0
M  V30 3 C 3.019652 -2.788222 2.562894 0
M  V30 4 C 3.856059 -2.001031 1.775301 0
M  V30 5 C 3.323397 -1.204207 0.804955 0
M  V30 6 N 4.117612 -0.379416 -0.027134 0
M  V30 7 C 4.809992 -0.458515 -1.261567 0
M  V30 8 O 4.767171 -1.548991 -1.881357 0
M  V30 9 C 5.538939 0.680971 -1.783682 0
M  V30 10 C 6.164995 0.436999 -2.989073 0
M  V30 11 C 6.886933 1.503982 -3.542823 0
M  V30 12 N 6.968889 2.699750 -2.938502 0
M  V30 13 C 6.337226 2.888090 -1.758972 0
M  V30 14 C 6.453641 4.216247 -1.139822 0
M  V30 15 F 6.003683 4.194599 0.180774 0
M  V30 16 F 7.721966 4.727810 -1.188646 0
M  V30 17 F 5.630534 5.108981 -1.835705 0
M  V30 18 C 5.596320 1.890496 -1.130105 0
M  V30 19 C 1.947209 -1.180173 0.605616 0
M  V30 20 C 1.074703 -1.947456 1.366347 0
M  V30 21 C -0.376057 -1.908345 1.163114 0
M  V30 22 C -0.835080 -2.058507 -0.154207 0
M  V30 23 N -2.163708 -2.002462 -0.256498 0
M  V30 24 C -3.024770 -1.826130 0.732967 0
M  V30 25 O -4.369054 -1.798153 0.415879 0
M  V30 26 C -4.930468 -1.933526 -0.853533 0
M  V30 27 C -4.482454 -0.872970 -1.821219 0
M  V30 28 O -5.054762 -1.018613 -3.096201 0
M  V30 29 P -4.495688 0.224431 -4.090492 0
M  V30 30 O -5.474783 1.358294 -4.083438 0
M  V30 31 O -4.314797 -0.375700 -5.663453 0
M  V30 32 O -2.990789 0.791330 -3.545250 0
M  V30 33 C -2.634103 -1.673418 2.040426 0
M  V30 34 N -3.502447 -1.479418 3.131700 0
M  V30 35 C -3.129269 -1.351315 4.527316 0
M  V30 36 C -3.451214 0.090581 4.893203 0
M  V30 37 O -4.812794 0.244212 4.797757 0
M  V30 38 C -5.493623 -0.836484 4.292497 0
M  V30 39 C -4.940616 -1.374604 2.988407 0
M  V30 40 C -1.265703 -1.723620 2.202943 0
M  V30 41 H 1.341212 -4.625337 3.342699 0
M  V30 42 H 0.680261 -3.169141 4.208824 0
M  V30 43 H -0.151969 -3.868916 2.795557 0
M  V30 44 H 3.471045 -3.419701 3.334425 0
M  V30 45 H 4.932651 -1.973892 1.878868 0
M  V30 46 H 4.088708 0.478069 0.569381 0
M  V30 47 H 6.137330 -0.498158 -3.525831 0
M  V30 48 H 7.396041 1.331631 -4.504874 0
M  V30 49 H 5.103643 2.054628 -0.200499 0
M  V30 50 H 1.538556 -0.540878 -0.167923 0
M  V30 51 H -0.127670 -2.198328 -0.933731 0
M  V30 52 H -6.050181 -1.911489 -0.729085 0
M  V30 53 H -4.620161 -2.914971 -1.268982 0
M  V30 54 H -3.400966 -0.880139 -1.930825 0
M  V30 55 H -4.767427 0.115912 -1.410814 0
M  V30 56 H -5.163438 -0.291660 -6.165064 0
M  V30 57 H -2.334497 0.059262 -3.530934 0
M  V30 58 H -3.714857 -2.052035 5.184928 0
M  V30 59 H -2.074703 -1.600930 4.739580 0
M  V30 60 H -3.005131 0.408060 5.841664 0
M  V30 61 H -3.019498 0.721643 4.058825 0
M  V30 62 H -6.535907 -0.474421 4.038449 0
M  V30 63 H -5.691297 -1.633884 5.048448 0
M  V30 64 H -5.249862 -0.647810 2.207988 0
M  V30 65 H -5.418817 -2.378011 2.858444 0
M  V30 66 H -0.795327 -1.610077 3.178897 0
M  V30 END ATOM
M  V30 BEGIN BOND
M  V30 1 1 1 2
M  V30 2 2 2 3
M  V30 3 1 3 4
M  V30 4 2 4 5
M  V30 5 1 5 6
M  V30 6 1 6 7
M  V30 7 2 7 8
M  V30 8 1 7 9
M  V30 9 2 9 10
M  V30 10 1 10 11
M  V30 11 2 11 12
M  V30 12 1 12 13
M  V30 13 1 13 14
M  V30 14 1 14 15
M  V30 15 1 14 16
M  V30 16 1 14 17
M  V30 17 2 13 18
M  V30 18 1 5 19
M  V30 19 2 19 20
M  V30 20 1 20 21
M  V30 21 2 21 22
M  V30 22 1 22 23
M  V30 23 2 23 24
M  V30 24 1 24 25
M  V30 25 1 25 26
M  V30 26 1 26 27
M  V30 27 1 27 28
M  V30 28 1 28 29
M  V30 29 2 29 30
M  V30 30 1 29 31
M  V30 31 1 29 32
M  V30 32 1 24 33
M  V30 33 1 33 34
M  V30 34 1 34 35
M  V30 35 1 35 36
M  V30 36 1 36 37
M  V30 37 1 37 38
M  V30 38 1 38 39
M  V30 39 2 33 40
M  V30 40 1 20 2
M  V30 41 1 40 21
M  V30 42 1 18 9
M  V30 43 1 39 34
M  V30 44 1 1 41
M  V30 45 1 1 42
M  V30 46 1 1 43
M  V30 47 1 3 44
M  V30 48 1 4 45
M  V30 49 1 6 46
M  V30 50 1 10 47
M  V30 51 1 11 48
M  V30 52 1 18 49
M  V30 53 1 19 50
M  V30 54 1 22 51
M  V30 55 1 26 52
M  V30 56 1 26 53
M  V30 57 1 27 54
M  V30 58 1 27 55
M  V30 59 1 31 56
M  V30 60 1 32 57
M  V30 61 1 35 58
M  V30 62 1 35 59
M  V30 63 1 36 60
M  V30 64 1 36 61
M  V30 65 1 38 62
M  V30 66 1 38 63
M  V30 67 1 39 64
M  V30 68 1 39 65
M  V30 69 1 40 66
M  V30 END BOND
M  V30 END CTAB
M  END
>  <Dataset>  (364) 
ChEMBL_Kinases

>  <Ligand_Instance>  (364) 
nan

>  <PDB_ID>  (364) 
nan

>  <Standardized_SMILES>  (364) 
Cc1ccc(NC(=O)c2ccnc(C(F)(F)F)c2)cc1-c1cnc(OCCOP(=O)(O)O)c(N2CCOCC2)c1

>  <Name>  (364) 
nan

>  <Pocket>  (364) 
nan

>  <ATP_Site>  (364) 
nan

>  <Peripheral>  (364) 
nan

>  <Num_H_Atoms_ProtBoundConf>  (364) 
nan

>  <Num_Resolved_Atoms>  (364) 
nan

>  <Num_Not_Resolved_Atoms>  (364) 
nan

$$$$
CHEMBL3961938
     RDKit          3D

  0  0  0  0  0  0  0  0  0  0999 V3000
M  V30 BEGIN CTAB
M  V30 COUNTS 55 59 0 0 0
M  V30 BEGIN ATOM
M  V30 1 N 9.613859 -1.887126 -0.835743 0
M  V30 2 C 9.440177 -0.944886 0.251578 0
M  V30 3 O 10.621077 -1.257796 0.085052 0
M  V30 4 C 8.105048 -0.478908 0.572845 0
M  V30 5 C 8.073773 0.412956 1.623606 0
M  V30 6 C 6.843366 0.909600 1.999644 0
M  V30 7 C 5.759750 0.458770 1.278804 0
M  V30 8 N 4.465616 0.784288 1.441314 0
M  V30 9 C 3.728750 0.125105 0.533714 0
M  V30 10 C 2.281558 0.181252 0.350943 0
M  V30 11 C 1.507411 0.982266 1.165666 0
M  V30 12 C 0.142357 1.015206 0.969675 0
M  V30 13 C -0.525565 0.294241 0.001624 0
M  V30 14 N -1.930446 0.310698 -0.221360 0
M  V30 15 C -2.483829 -0.518794 -1.254562 0
M  V30 16 C -3.975371 -0.590818 -1.145748 0
M  V30 17 N -4.461659 -0.623391 0.219833 0
M  V30 18 C -5.618362 -1.333435 0.674492 0
M  V30 19 C -6.035335 -1.393647 1.978860 0
M  V30 20 C -7.155112 -2.086212 2.374240 0
M  V30 21 C -7.927316 -2.765171 1.467918 0
M  V30 22 N -9.062498 -3.448100 1.983531 0 CHG=1 VAL=4
M  V30 23 O -9.743738 -4.058542 1.120442 0
M  V30 24 O -9.424003 -3.466623 3.310591 0 CHG=-1 VAL=1
M  V30 25 C -7.541563 -2.729024 0.146452 0
M  V30 26 C -6.419577 -2.029208 -0.215087 0
M  V30 27 C -3.755164 0.115814 1.274004 0
M  V30 28 C -2.859751 1.121794 0.536741 0
M  V30 29 C 0.290691 -0.489757 -0.785602 0
M  V30 30 C 1.661297 -0.559673 -0.632609 0
M  V30 31 N 4.566497 -0.634385 -0.221303 0
M  V30 32 C 5.837796 -0.434611 0.234301 0
M  V30 33 C 7.045097 -0.949359 -0.167148 0
M  V30 34 H 8.995867 -2.247976 -1.624784 0
M  V30 35 H 9.015847 -2.262766 -1.632463 0
M  V30 36 H 8.932875 0.744424 2.163794 0
M  V30 37 H 6.719007 1.604331 2.801654 0
M  V30 38 H 4.060181 1.437940 2.145905 0
M  V30 39 H 1.945595 1.582757 1.951790 0
M  V30 40 H -0.429706 1.653009 1.626914 0
M  V30 41 H -2.242520 -0.070654 -2.236657 0
M  V30 42 H -2.040473 -1.538401 -1.270175 0
M  V30 43 H -4.420096 0.313828 -1.619167 0
M  V30 44 H -4.308534 -1.522127 -1.638112 0
M  V30 45 H -5.456717 -0.872966 2.728889 0
M  V30 46 H -7.410294 -2.078962 3.432898 0
M  V30 47 H -8.165391 -3.273903 -0.559734 0
M  V30 48 H -6.218059 -2.071726 -1.274437 0
M  V30 49 H -4.435855 0.690051 1.919029 0
M  V30 50 H -3.125458 -0.616143 1.815129 0
M  V30 51 H -2.397589 1.819361 1.229367 0
M  V30 52 H -3.526394 1.667305 -0.164210 0
M  V30 53 H -0.072884 -1.113852 -1.587206 0
M  V30 54 H 2.303547 -1.173221 -1.248164 0
M  V30 55 H 7.157302 -1.643767 -0.969721 0
M  V30 END ATOM
M  V30 BEGIN BOND
M  V30 1 1 1 2
M  V30 2 2 2 3
M  V30 3 1 2 4
M  V30 4 2 4 5
M  V30 5 1 5 6
M  V30 6 2 6 7
M  V30 7 1 7 8
M  V30 8 1 8 9
M  V30 9 1 9 10
M  V30 10 2 10 11
M  V30 11 1 11 12
M  V30 12 2 12 13
M  V30 13 1 13 14
M  V30 14 1 14 15
M  V30 15 1 15 16
M  V30 16 1 16 17
M  V30 17 1 17 18
M  V30 18 2 18 19
M  V30 19 1 19 20
M  V30 20 2 20 21
M  V30 21 1 21 22
M  V30 22 2 22 23
M  V30 23 1 22 24
M  V30 24 1 21 25
M  V30 25 2 25 26
M  V30 26 1 17 27
M  V30 27 1 27 28
M  V30 28 1 13 29
M  V30 29 2 29 30
M  V30 30 2 9 31
M  V30 31 1 31 32
M  V30 32 2 32 33
M  V30 33 1 33 4
M  V30 34 1 32 7
M  V30 35 1 30 10
M  V30 36 1 28 14
M  V30 37 1 26 18
M  V30 38 1 1 34
M  V30 39 1 1 35
M  V30 40 1 5 36
M  V30 41 1 6 37
M  V30 42 1 8 38
M  V30 43 1 11 39
M  V30 44 1 12 40
M  V30 45 1 15 41
M  V30 46 1 15 42
M  V30 47 1 16 43
M  V30 48 1 16 44
M  V30 49 1 19 45
M  V30 50 1 20 46
M  V30 51 1 25 47
M  V30 52 1 26 48
M  V30 53 1 27 49
M  V30 54 1 27 50
M  V30 55 1 28 51
M  V30 56 1 28 52
M  V30 57 1 29 53
M  V30 58 1 30 54
M  V30 59 1 33 55
M  V30 END BOND
M  V30 END CTAB
M  END
>  <Dataset>  (365) 
ChEMBL_Kinases

>  <Ligand_Instance>  (365) 
nan

>  <PDB_ID>  (365) 
nan

>  <Standardized_SMILES>  (365) 
NC(=O)c1ccc2[nH]c(-c3ccc(N4CCN(c5ccc([N+](=O)[O-])cc5)CC4)cc3)nc2c1

>  <Name>  (365) 
nan

>  <Pocket>  (365) 
nan

>  <ATP_Site>  (365) 
nan

>  <Peripheral>  (365) 
nan

>  <Num_H_Atoms_ProtBoundConf>  (365) 
nan

>  <Num_Resolved_Atoms>  (365) 
nan

>  <Num_Not_Resolved_Atoms>  (365) 
nan

$$$$
CHEMBL3961791
     RDKit          3D

  0  0  0  0  0  0  0  0  0  0999 V3000
M  V30 BEGIN CTAB
M  V30 COUNTS 51 54 0 0 0
M  V30 BEGIN ATOM
M  V30 1 O -1.653750 -1.061502 6.115712 0
M  V30 2 C -1.394045 -0.736509 7.299193 0
M  V30 3 O -2.661189 -1.213221 7.055786 0
M  V30 4 C -0.177760 -0.208129 7.885758 0
M  V30 5 C 0.857815 -0.016064 7.093672 0
M  V30 6 C 1.024105 -0.243612 5.672420 0
M  V30 7 O 0.418928 -0.650228 4.661777 0
M  V30 8 N 2.289598 0.072686 5.111682 0
M  V30 9 C 2.389157 -0.176718 3.693378 0
M  V30 10 C 2.815895 -1.417735 3.280370 0
M  V30 11 C 2.907777 -1.647433 1.907264 0
M  V30 12 C 2.566612 -0.620732 1.065284 0
M  V30 13 C 2.138270 0.625254 1.473536 0
M  V30 14 C 1.780713 1.701901 0.566772 0
M  V30 15 N 2.142378 2.991766 0.661650 0
M  V30 16 N 1.631855 3.684599 -0.340713 0
M  V30 17 C 0.908856 2.859450 -1.136406 0
M  V30 18 C 0.173995 3.038744 -2.296604 0
M  V30 19 C -0.463893 1.959752 -2.876993 0
M  V30 20 C -0.397340 0.692110 -2.339320 0
M  V30 21 N -1.047761 -0.433254 -2.921045 0
M  V30 22 C -0.924203 -1.720038 -2.291458 0
M  V30 23 C -1.641984 -2.799867 -2.986914 0
M  V30 24 C -2.968714 -3.119034 -2.688134 0
M  V30 25 C -3.619479 -4.126664 -3.345957 0
M  V30 26 C -3.023076 -4.875192 -4.323315 0
M  V30 27 C -1.694567 -4.566100 -4.632541 0
M  V30 28 C -1.046521 -3.546990 -3.962629 0
M  V30 29 C 0.348240 0.561427 -1.179863 0
M  V30 30 C 0.999648 1.606642 -0.567696 0
M  V30 31 C 2.046744 0.853972 2.833678 0
M  V30 32 H -3.390607 -1.127518 7.782327 0
M  V30 33 H -0.187017 -0.000612 8.942786 0
M  V30 34 H 1.680927 0.373705 7.652070 0
M  V30 35 H 3.153297 0.464509 5.610032 0
M  V30 36 H 3.079146 -2.211233 3.970595 0
M  V30 37 H 3.237556 -2.605541 1.533022 0
M  V30 38 H 2.644517 -0.817681 -0.011316 0
M  V30 39 H 1.706687 4.688663 -0.575826 0
M  V30 40 H 0.124104 4.022089 -2.710843 0
M  V30 41 H -1.050386 2.074504 -3.792368 0
M  V30 42 H -1.595287 -0.304779 -3.782901 0
M  V30 43 H 0.157222 -1.955268 -2.264487 0
M  V30 44 H -1.231957 -1.631828 -1.227304 0
M  V30 45 H -3.450578 -2.525002 -1.908117 0
M  V30 46 H -4.641412 -4.316291 -3.062759 0
M  V30 47 H -3.591475 -5.658161 -4.806240 0
M  V30 48 H -1.215340 -5.139223 -5.391146 0
M  V30 49 H -0.014770 -3.296000 -4.192645 0
M  V30 50 H 0.391019 -0.444336 -0.768056 0
M  V30 51 H 1.715756 1.814014 3.239492 0
M  V30 END ATOM
M  V30 BEGIN BOND
M  V30 1 2 1 2
M  V30 2 1 2 3
M  V30 3 1 2 4
M  V30 4 2 4 5
M  V30 5 1 5 6
M  V30 6 2 6 7
M  V30 7 1 6 8
M  V30 8 1 8 9
M  V30 9 2 9 10
M  V30 10 1 10 11
M  V30 11 2 11 12
M  V30 12 1 12 13
M  V30 13 1 13 14
M  V30 14 2 14 15
M  V30 15 1 15 16
M  V30 16 1 16 17
M  V30 17 2 17 18
M  V30 18 1 18 19
M  V30 19 2 19 20
M  V30 20 1 20 21
M  V30 21 1 21 22
M  V30 22 1 22 23
M  V30 23 2 23 24
M  V30 24 1 24 25
M  V30 25 2 25 26
M  V30 26 1 26 27
M  V30 27 2 27 28
M  V30 28 1 20 29
M  V30 29 2 29 30
M  V30 30 2 13 31
M  V30 31 1 31 9
M  V30 32 1 30 14
M  V30 33 1 30 17
M  V30 34 1 28 23
M  V30 35 1 3 32
M  V30 36 1 4 33
M  V30 37 1 5 34
M  V30 38 1 8 35
M  V30 39 1 10 36
M  V30 40 1 11 37
M  V30 41 1 12 38
M  V30 42 1 16 39
M  V30 43 1 18 40
M  V30 44 1 19 41
M  V30 45 1 21 42
M  V30 46 1 22 43
M  V30 47 1 22 44
M  V30 48 1 24 45
M  V30 49 1 25 46
M  V30 50 1 26 47
M  V30 51 1 27 48
M  V30 52 1 28 49
M  V30 53 1 29 50
M  V30 54 1 31 51
M  V30 END BOND
M  V30 END CTAB
M  END
>  <Dataset>  (366) 
ChEMBL_Kinases

>  <Ligand_Instance>  (366) 
nan

>  <PDB_ID>  (366) 
nan

>  <Standardized_SMILES>  (366) 
O=C(O)/C=C\C(=O)Nc1cccc(-c2n[nH]c3ccc(NCc4ccccc4)cc23)c1

>  <Name>  (366) 
nan

>  <Pocket>  (366) 
nan

>  <ATP_Site>  (366) 
nan

>  <Peripheral>  (366) 
nan

>  <Num_H_Atoms_ProtBoundConf>  (366) 
nan

>  <Num_Resolved_Atoms>  (366) 
nan

>  <Num_Not_Resolved_Atoms>  (366) 
nan

$$$$
CHEMBL3961695
     RDKit          3D

  0  0  0  0  0  0  0  0  0  0999 V3000
M  V30 BEGIN CTAB
M  V30 COUNTS 43 46 0 0 0
M  V30 BEGIN ATOM
M  V30 1 C 1.497188 -8.433094 0.046730 0
M  V30 2 O 1.089140 -7.623499 -1.039967 0
M  V30 3 C 1.472138 -6.293685 -1.145067 0
M  V30 4 C 1.010224 -5.601223 -2.254604 0
M  V30 5 C 1.311080 -4.285915 -2.482908 0
M  V30 6 C 2.103827 -3.571500 -1.603165 0
M  V30 7 O 2.496141 -2.244867 -1.691697 0
M  V30 8 C 1.767655 -1.195635 -1.148191 0
M  V30 9 C 0.767991 -0.435340 -1.720375 0
M  V30 10 C 0.174544 0.570946 -0.983668 0
M  V30 11 C 0.581837 0.810094 0.314153 0
M  V30 12 C -0.062073 1.880940 1.072846 0
M  V30 13 N 0.214904 2.242158 2.340459 0
M  V30 14 C -0.577182 3.269339 2.711129 0
M  V30 15 C -0.607247 3.926741 3.924614 0
M  V30 16 C -1.520641 4.954518 4.048110 0
M  V30 17 C -1.669479 5.747054 5.280475 0
M  V30 18 O -2.433941 6.685416 5.535561 0
M  V30 19 O -0.910124 5.535480 6.424435 0
M  V30 20 C -2.358408 5.302977 3.008883 0
M  V30 21 C -2.282188 4.607801 1.816615 0
M  V30 22 C -1.388810 3.569550 1.631827 0
M  V30 23 N -1.038332 2.697956 0.658860 0
M  V30 24 C 1.578737 0.065095 0.910342 0
M  V30 25 C 2.166628 -0.940375 0.163842 0
M  V30 26 C 2.567184 -4.262605 -0.492054 0
M  V30 27 C 2.263258 -5.588911 -0.262726 0
M  V30 28 H 1.441656 -9.506562 -0.278064 0
M  V30 29 H 2.499512 -8.166544 0.393753 0
M  V30 30 H 0.727422 -8.322448 0.863336 0
M  V30 31 H 0.388563 -6.089138 -2.983424 0
M  V30 32 H 0.966065 -3.714912 -3.340607 0
M  V30 33 H 0.547663 -0.728088 -2.739336 0
M  V30 34 H -0.594738 1.122204 -1.489588 0
M  V30 35 H 0.027578 3.683294 4.752050 0
M  V30 36 H -1.313828 5.407226 7.344108 0
M  V30 37 H -3.094281 6.110595 3.068808 0
M  V30 38 H -2.925757 4.851610 0.971974 0
M  V30 39 H -1.510357 2.719319 -0.266033 0
M  V30 40 H 1.841084 0.310956 1.924393 0
M  V30 41 H 2.942937 -1.473909 0.718529 0
M  V30 42 H 3.199934 -3.832050 0.285329 0
M  V30 43 H 2.617462 -6.140349 0.599104 0
M  V30 END ATOM
M  V30 BEGIN BOND
M  V30 1 1 1 2
M  V30 2 1 2 3
M  V30 3 2 3 4
M  V30 4 1 4 5
M  V30 5 2 5 6
M  V30 6 1 6 7
M  V30 7 1 7 8
M  V30 8 2 8 9
M  V30 9 1 9 10
M  V30 10 2 10 11
M  V30 11 1 11 12
M  V30 12 2 12 13
M  V30 13 1 13 14
M  V30 14 2 14 15
M  V30 15 1 15 16
M  V30 16 1 16 17
M  V30 17 2 17 18
M  V30 18 1 17 19
M  V30 19 2 16 20
M  V30 20 1 20 21
M  V30 21 2 21 22
M  V30 22 1 22 23
M  V30 23 1 11 24
M  V30 24 2 24 25
M  V30 25 1 6 26
M  V30 26 2 26 27
M  V30 27 1 27 3
M  V30 28 1 25 8
M  V30 29 1 23 12
M  V30 30 1 22 14
M  V30 31 1 1 28
M  V30 32 1 1 29
M  V30 33 1 1 30
M  V30 34 1 4 31
M  V30 35 1 5 32
M  V30 36 1 9 33
M  V30 37 1 10 34
M  V30 38 1 15 35
M  V30 39 1 19 36
M  V30 40 1 20 37
M  V30 41 1 21 38
M  V30 42 1 23 39
M  V30 43 1 24 40
M  V30 44 1 25 41
M  V30 45 1 26 42
M  V30 46 1 27 43
M  V30 END BOND
M  V30 END CTAB
M  END
>  <Dataset>  (367) 
ChEMBL_Kinases

>  <Ligand_Instance>  (367) 
nan

>  <PDB_ID>  (367) 
nan

>  <Standardized_SMILES>  (367) 
COc1ccc(Oc2ccc(-c3nc4cc(C(=O)O)ccc4[nH]3)cc2)cc1

>  <Name>  (367) 
nan

>  <Pocket>  (367) 
nan

>  <ATP_Site>  (367) 
nan

>  <Peripheral>  (367) 
nan

>  <Num_H_Atoms_ProtBoundConf>  (367) 
nan

>  <Num_Resolved_Atoms>  (367) 
nan

>  <Num_Not_Resolved_Atoms>  (367) 
nan

$$$$
CHEMBL3961648
     RDKit          3D

  0  0  0  0  0  0  0  0  0  0999 V3000
M  V30 BEGIN CTAB
M  V30 COUNTS 56 60 0 0 0
M  V30 BEGIN ATOM
M  V30 1 N 8.804715 -4.658505 0.990153 0
M  V30 2 C 7.812206 -4.257868 0.065368 0
M  V30 3 O 8.008134 -4.532146 -1.146644 0
M  V30 4 C 6.658833 -3.561499 0.639709 0
M  V30 5 C 6.499279 -3.286353 1.995806 0
M  V30 6 C 5.354429 -2.618959 2.395558 0
M  V30 7 C 4.383107 -2.226593 1.493351 0
M  V30 8 N 3.210897 -1.569494 1.715106 0
M  V30 9 C 2.637625 -1.432931 0.504194 0
M  V30 10 C 1.347912 -0.777047 0.268578 0
M  V30 11 C 0.684967 -0.268267 1.370485 0
M  V30 12 C -0.546432 0.354833 1.123066 0
M  V30 13 C -1.043435 0.439841 -0.163143 0
M  V30 14 C -2.348035 1.101702 -0.424977 0
M  V30 15 C -2.996292 1.549246 0.835591 0
M  V30 16 C -3.811328 0.756718 1.617857 0
M  V30 17 C -4.404641 1.185197 2.782434 0
M  V30 18 C -4.192534 2.475394 3.220481 0
M  V30 19 Cl -4.956804 2.998089 4.703335 0
M  V30 20 C -3.389339 3.326501 2.491085 0
M  V30 21 C -2.818603 2.846758 1.330818 0
M  V30 22 N -3.209192 0.384803 -1.297449 0
M  V30 23 C -4.444214 1.030970 -1.537750 0
M  V30 24 C -5.680542 0.210741 -1.416094 0
M  V30 25 N -5.422915 -1.059765 -2.079700 0
M  V30 26 C -4.480981 -1.742211 -1.193034 0
M  V30 27 C -3.179232 -1.023559 -1.247180 0
M  V30 28 C -0.362496 -0.075870 -1.246211 0
M  V30 29 C 0.853867 -0.694151 -1.021555 0
M  V30 30 N 3.439333 -1.993030 -0.437746 0
M  V30 31 C 4.545406 -2.504006 0.131550 0
M  V30 32 C 5.689660 -3.170591 -0.264713 0
M  V30 33 H 9.574983 -4.392323 1.628936 0
M  V30 34 H 9.194939 -5.520398 1.450080 0
M  V30 35 H 7.292441 -3.618258 2.650230 0
M  V30 36 H 5.267870 -2.424121 3.456828 0
M  V30 37 H 2.882997 -1.263599 2.648785 0
M  V30 38 H 1.072609 -0.334101 2.377058 0
M  V30 39 H -1.090931 0.764139 1.966917 0
M  V30 40 H -2.073312 2.052640 -0.971630 0
M  V30 41 H -3.997717 -0.242571 1.313015 0
M  V30 42 H -5.038905 0.522590 3.364043 0
M  V30 43 H -3.205448 4.343185 2.810546 0
M  V30 44 H -2.195179 3.535547 0.781301 0
M  V30 45 H -4.492791 1.562478 -2.527324 0
M  V30 46 H -4.540674 1.855691 -0.775974 0
M  V30 47 H -5.980176 -0.035462 -0.386385 0
M  V30 48 H -6.517700 0.770067 -1.867371 0
M  V30 49 H -6.280564 -1.610177 -2.232590 0
M  V30 50 H -4.323646 -2.775687 -1.595093 0
M  V30 51 H -4.900684 -1.878437 -0.188146 0
M  V30 52 H -2.575723 -1.396178 -0.393793 0
M  V30 53 H -2.662160 -1.379262 -2.185260 0
M  V30 54 H -0.667383 -0.055248 -2.265918 0
M  V30 55 H 1.450748 -1.123701 -1.810329 0
M  V30 56 H 5.786553 -3.370623 -1.323412 0
M  V30 END ATOM
M  V30 BEGIN BOND
M  V30 1 1 1 2
M  V30 2 2 2 3
M  V30 3 1 2 4
M  V30 4 2 4 5
M  V30 5 1 5 6
M  V30 6 2 6 7
M  V30 7 1 7 8
M  V30 8 1 8 9
M  V30 9 1 9 10
M  V30 10 2 10 11
M  V30 11 1 11 12
M  V30 12 2 12 13
M  V30 13 1 13 14
M  V30 14 1 14 15
M  V30 15 2 15 16
M  V30 16 1 16 17
M  V30 17 2 17 18
M  V30 18 1 18 19
M  V30 19 1 18 20
M  V30 20 2 20 21
M  V30 21 1 14 22
M  V30 22 1 22 23
M  V30 23 1 23 24
M  V30 24 1 24 25
M  V30 25 1 25 26
M  V30 26 1 26 27
M  V30 27 1 13 28
M  V30 28 2 28 29
M  V30 29 2 9 30
M  V30 30 1 30 31
M  V30 31 2 31 32
M  V30 32 1 32 4
M  V30 33 1 31 7
M  V30 34 1 29 10
M  V30 35 1 21 15
M  V30 36 1 27 22
M  V30 37 1 1 33
M  V30 38 1 1 34
M  V30 39 1 5 35
M  V30 40 1 6 36
M  V30 41 1 8 37
M  V30 42 1 11 38
M  V30 43 1 12 39
M  V30 44 1 14 40
M  V30 45 1 16 41
M  V30 46 1 17 42
M  V30 47 1 20 43
M  V30 48 1 21 44
M  V30 49 1 23 45
M  V30 50 1 23 46
M  V30 51 1 24 47
M  V30 52 1 24 48
M  V30 53 1 25 49
M  V30 54 1 26 50
M  V30 55 1 26 51
M  V30 56 1 27 52
M  V30 57 1 27 53
M  V30 58 1 28 54
M  V30 59 1 29 55
M  V30 60 1 32 56
M  V30 END BOND
M  V30 END CTAB
M  END
>  <Dataset>  (368) 
ChEMBL_Kinases

>  <Ligand_Instance>  (368) 
nan

>  <PDB_ID>  (368) 
nan

>  <Standardized_SMILES>  (368) 
NC(=O)c1ccc2[nH]c(-c3ccc(C(c4ccc(Cl)cc4)N4CCNCC4)cc3)nc2c1

>  <Name>  (368) 
nan

>  <Pocket>  (368) 
nan

>  <ATP_Site>  (368) 
nan

>  <Peripheral>  (368) 
nan

>  <Num_H_Atoms_ProtBoundConf>  (368) 
nan

>  <Num_Resolved_Atoms>  (368) 
nan

>  <Num_Not_Resolved_Atoms>  (368) 
nan

$$$$
CHEMBL3961632
     RDKit          3D

  0  0  0  0  0  0  0  0  0  0999 V3000
M  V30 BEGIN CTAB
M  V30 COUNTS 31 33 0 0 0
M  V30 BEGIN ATOM
M  V30 1 C -2.588065 -1.416627 3.748720 0
M  V30 2 C -1.299331 -1.776957 3.061111 0
M  V30 3 C -0.429652 -2.743807 3.520809 0
M  V30 4 C 0.711723 -2.956863 2.776418 0
M  V30 5 C 0.945644 -2.224780 1.634148 0
M  V30 6 C 0.058041 -1.243271 1.172221 0
M  V30 7 C 0.542932 -0.645970 -0.060749 0
M  V30 8 C 0.809205 -1.541186 -1.105451 0
M  V30 9 C 1.246133 -1.149809 -2.355766 0
M  V30 10 N 1.498794 -2.110180 -3.375437 0
M  V30 11 N 1.432490 0.175486 -2.599493 0
M  V30 12 C 1.188837 1.068834 -1.622525 0
M  V30 13 N 1.282498 2.428394 -1.541648 0
M  V30 14 C 0.924837 2.862021 -0.307548 0
M  V30 15 C 0.578451 1.749939 0.466909 0
M  V30 16 C 0.161347 1.833696 1.834720 0
M  V30 17 N -0.166970 1.919688 2.940156 0
M  V30 18 C 0.753078 0.676210 -0.375536 0
M  V30 19 C -1.057532 -1.048648 1.916221 0
M  V30 20 H -2.659377 -0.310265 3.768383 0
M  V30 21 H -3.396817 -1.888548 3.159439 0
M  V30 22 H -2.597957 -1.831080 4.771039 0
M  V30 23 H -0.713048 -3.259132 4.430914 0
M  V30 24 H 1.375416 -3.719536 3.158524 0
M  V30 25 H 1.895224 -2.511624 1.154642 0
M  V30 26 H 0.678827 -2.605465 -0.968630 0
M  V30 27 H 0.854299 -2.942419 -3.447274 0
M  V30 28 H 2.329852 -1.928063 -4.008433 0
M  V30 29 H 1.590790 3.004566 -2.344843 0
M  V30 30 H 0.913004 3.895656 0.013216 0
M  V30 31 H -1.708038 -0.284571 1.501207 0
M  V30 END ATOM
M  V30 BEGIN BOND
M  V30 1 1 1 2
M  V30 2 2 2 3
M  V30 3 1 3 4
M  V30 4 2 4 5
M  V30 5 1 5 6
M  V30 6 1 6 7
M  V30 7 2 7 8
M  V30 8 1 8 9
M  V30 9 1 9 10
M  V30 10 2 9 11
M  V30 11 1 11 12
M  V30 12 1 12 13
M  V30 13 1 13 14
M  V30 14 2 14 15
M  V30 15 1 15 16
M  V30 16 3 16 17
M  V30 17 1 15 18
M  V30 18 2 6 19
M  V30 19 1 19 2
M  V30 20 1 18 7
M  V30 21 2 18 12
M  V30 22 1 1 20
M  V30 23 1 1 21
M  V30 24 1 1 22
M  V30 25 1 3 23
M  V30 26 1 4 24
M  V30 27 1 5 25
M  V30 28 1 8 26
M  V30 29 1 10 27
M  V30 30 1 10 28
M  V30 31 1 13 29
M  V30 32 1 14 30
M  V30 33 1 19 31
M  V30 END BOND
M  V30 END CTAB
M  END
>  <Dataset>  (369) 
ChEMBL_Kinases

>  <Ligand_Instance>  (369) 
nan

>  <PDB_ID>  (369) 
nan

>  <Standardized_SMILES>  (369) 
Cc1cccc(-c2cc(N)nc3[nH]cc(C#N)c23)c1

>  <Name>  (369) 
nan

>  <Pocket>  (369) 
nan

>  <ATP_Site>  (369) 
nan

>  <Peripheral>  (369) 
nan

>  <Num_H_Atoms_ProtBoundConf>  (369) 
nan

>  <Num_Resolved_Atoms>  (369) 
nan

>  <Num_Not_Resolved_Atoms>  (369) 
nan

$$$$
CHEMBL3961614
     RDKit          3D

  0  0  0  0  0  0  0  0  0  0999 V3000
M  V30 BEGIN CTAB
M  V30 COUNTS 63 66 0 0 0
M  V30 BEGIN ATOM
M  V30 1 C 2.133109 1.913460 4.278576 0
M  V30 2 C 2.615585 1.237130 3.067896 0
M  V30 3 C 3.310748 0.060384 3.278661 0
M  V30 4 C 3.823731 -0.687806 2.251773 0
M  V30 5 C 3.632658 -0.238253 0.944244 0
M  V30 6 C 4.130945 -0.950537 -0.245390 0
M  V30 7 O 3.183970 -1.872237 -0.740128 0
M  V30 8 C 2.939660 0.934688 0.744596 0
M  V30 9 C 2.416761 1.700585 1.761941 0
M  V30 10 N 1.693623 2.903157 1.715238 0
M  V30 11 C 1.939583 4.220292 2.250220 0
M  V30 12 C 0.451644 2.779244 0.988373 0
M  V30 13 N -0.441343 1.850282 1.375504 0
M  V30 14 C -1.623323 1.621293 0.806163 0
M  V30 15 N -2.382829 0.573365 1.397167 0
M  V30 16 C -2.499562 -0.760018 0.910389 0
M  V30 17 C -1.911984 -1.057025 -0.303427 0
M  V30 18 C -2.044504 -2.367574 -0.772646 0
M  V30 19 N -1.463236 -2.747281 -2.015165 0
M  V30 20 C -1.699480 -4.000551 -2.750406 0
M  V30 21 C -2.479852 -3.517912 -3.983494 0
M  V30 22 O -1.626200 -2.818583 -4.802553 0
M  V30 23 C -0.940568 -1.778560 -4.232670 0
M  V30 24 C -0.521909 -1.986669 -2.801988 0
M  V30 25 C -2.729689 -3.290397 -0.040466 0
M  V30 26 C -3.302253 -2.928151 1.183073 0
M  V30 27 S -4.187338 -4.102880 2.147392 0
M  V30 28 C -3.113213 -4.951332 3.248840 0
M  V30 29 O -4.847046 -5.113223 1.231604 0
M  V30 30 O -5.278229 -3.433179 2.952827 0
M  V30 31 C -3.202642 -1.649464 1.693964 0
M  V30 32 N -1.994120 2.378011 -0.268076 0
M  V30 33 C -1.135014 3.334270 -0.709822 0
M  V30 34 C 0.080275 3.541872 -0.094805 0
M  V30 35 F 0.977490 4.484582 -0.499176 0
M  V30 36 H 2.975896 2.362755 4.870640 0
M  V30 37 H 1.679776 1.139159 4.959262 0
M  V30 38 H 1.315718 2.644114 4.112139 0
M  V30 39 H 3.507291 -0.369042 4.270593 0
M  V30 40 H 4.372052 -1.610875 2.350455 0
M  V30 41 H 5.011959 -1.559303 0.099231 0
M  V30 42 H 4.489160 -0.273940 -1.039878 0
M  V30 43 H 3.632026 -2.650754 -1.145764 0
M  V30 44 H 2.744326 1.358443 -0.243119 0
M  V30 45 H 2.279950 4.849057 1.382716 0
M  V30 46 H 2.731043 4.265164 3.009098 0
M  V30 47 H 0.988145 4.679023 2.567586 0
M  V30 48 H -2.844739 0.934063 2.250868 0
M  V30 49 H -1.381933 -0.289766 -0.845610 0
M  V30 50 H -0.761707 -4.447292 -3.134625 0
M  V30 51 H -2.319753 -4.710358 -2.208034 0
M  V30 52 H -3.384811 -2.957256 -3.680247 0
M  V30 53 H -2.811478 -4.426373 -4.511845 0
M  V30 54 H 0.020727 -1.677142 -4.818060 0
M  V30 55 H -1.437522 -0.789216 -4.369801 0
M  V30 56 H 0.442487 -2.576665 -2.745357 0
M  V30 57 H -0.276122 -1.000268 -2.368834 0
M  V30 58 H -2.885018 -4.307446 -0.307202 0
M  V30 59 H -2.198124 -4.349633 3.450300 0
M  V30 60 H -2.777416 -5.928894 2.832177 0
M  V30 61 H -3.615812 -5.087898 4.224289 0
M  V30 62 H -3.647626 -1.373260 2.645184 0
M  V30 63 H -1.409409 3.940054 -1.554093 0
M  V30 END ATOM
M  V30 BEGIN BOND
M  V30 1 1 1 2
M  V30 2 2 2 3
M  V30 3 1 3 4
M  V30 4 2 4 5
M  V30 5 1 5 6
M  V30 6 1 6 7
M  V30 7 1 5 8
M  V30 8 2 8 9
M  V30 9 1 9 10
M  V30 10 1 10 11
M  V30 11 1 10 12
M  V30 12 2 12 13
M  V30 13 1 13 14
M  V30 14 1 14 15
M  V30 15 1 15 16
M  V30 16 2 16 17
M  V30 17 1 17 18
M  V30 18 1 18 19
M  V30 19 1 19 20
M  V30 20 1 20 21
M  V30 21 1 21 22
M  V30 22 1 22 23
M  V30 23 1 23 24
M  V30 24 2 18 25
M  V30 25 1 25 26
M  V30 26 1 26 27
M  V30 27 1 27 28
M  V30 28 2 27 29
M  V30 29 2 27 30
M  V30 30 2 26 31
M  V30 31 2 14 32
M  V30 32 1 32 33
M  V30 33 2 33 34
M  V30 34 1 34 35
M  V30 35 1 9 2
M  V30 36 1 34 12
M  V30 37 1 31 16
M  V30 38 1 24 19
M  V30 39 1 1 36
M  V30 40 1 1 37
M  V30 41 1 1 38
M  V30 42 1 3 39
M  V30 43 1 4 40
M  V30 44 1 6 41
M  V30 45 1 6 42
M  V30 46 1 7 43
M  V30 47 1 8 44
M  V30 48 1 11 45
M  V30 49 1 11 46
M  V30 50 1 11 47
M  V30 51 1 15 48
M  V30 52 1 17 49
M  V30 53 1 20 50
M  V30 54 1 20 51
M  V30 55 1 21 52
M  V30 56 1 21 53
M  V30 57 1 23 54
M  V30 58 1 23 55
M  V30 59 1 24 56
M  V30 60 1 24 57
M  V30 61 1 25 58
M  V30 62 1 28 59
M  V30 63 1 28 60
M  V30 64 1 28 61
M  V30 65 1 31 62
M  V30 66 1 33 63
M  V30 END BOND
M  V30 END CTAB
M  END
>  <Dataset>  (370) 
ChEMBL_Kinases

>  <Ligand_Instance>  (370) 
nan

>  <PDB_ID>  (370) 
nan

>  <Standardized_SMILES>  (370) 
Cc1ccc(CO)cc1N(C)c1nc(Nc2cc(N3CCOCC3)cc(S(C)(=O)=O)c2)ncc1F

>  <Name>  (370) 
nan

>  <Pocket>  (370) 
nan

>  <ATP_Site>  (370) 
nan

>  <Peripheral>  (370) 
nan

>  <Num_H_Atoms_ProtBoundConf>  (370) 
nan

>  <Num_Resolved_Atoms>  (370) 
nan

>  <Num_Not_Resolved_Atoms>  (370) 
nan

$$$$
CHEMBL3962160
     RDKit          3D

  0  0  0  0  0  0  0  0  0  0999 V3000
M  V30 BEGIN CTAB
M  V30 COUNTS 51 54 0 0 0
M  V30 BEGIN ATOM
M  V30 1 C 0.462349 2.055316 5.858099 0
M  V30 2 C -0.122040 0.703082 5.540976 0
M  V30 3 N 0.854815 -0.240443 5.037101 0
M  V30 4 N 1.597254 -1.074208 5.775493 0
M  V30 5 C 2.408743 -1.830499 5.014741 0
M  V30 6 C 2.183945 -1.469442 3.692114 0
M  V30 7 C 2.730222 -1.923945 2.504664 0
M  V30 8 C 2.173871 -1.259794 1.444318 0
M  V30 9 N 1.238825 -0.302721 1.494685 0
M  V30 10 C 0.716052 0.130547 2.650400 0
M  V30 11 C 1.218593 -0.488049 3.778638 0
M  V30 12 C -0.269531 1.180672 2.445719 0
M  V30 13 C -1.405746 0.891251 1.494542 0 CFG=2
M  V30 14 O -2.235514 -0.143254 1.780947 0
M  V30 15 C -1.098439 1.018495 0.060379 0
M  V30 16 O -0.596245 -0.084853 -0.601665 0
M  V30 17 C -0.221358 0.313191 -1.861359 0
M  V30 18 C 0.320496 -0.687806 -2.825295 0 CFG=2
M  V30 19 C -0.677702 -1.667377 -3.196535 0
M  V30 20 C -2.004387 -1.582061 -2.839662 0
M  V30 21 C -2.974666 -2.504334 -3.185904 0
M  V30 22 C -2.630840 -3.604723 -3.943294 0
M  V30 23 C -1.313742 -3.733103 -4.324502 0
M  V30 24 F -1.000837 -4.825132 -5.069668 0
M  V30 25 C -0.390961 -2.786173 -3.952222 0
M  V30 26 N 1.505343 -1.426445 -2.319493 0
M  V30 27 C 2.442534 -1.852329 -1.273218 0
M  V30 28 O 1.468875 -1.163625 -1.004030 0
M  V30 29 N 2.633052 -1.731149 0.141227 0
M  V30 30 H -0.339195 2.759872 6.153373 0
M  V30 31 H 0.976241 2.519817 5.002832 0
M  V30 32 H 1.191898 1.960795 6.667831 0
M  V30 33 H -0.334050 0.308129 6.596711 0
M  V30 34 H -1.108842 0.663944 5.114079 0
M  V30 35 H 3.116104 -2.585897 5.324465 0
M  V30 36 H 3.479700 -2.685755 2.407757 0
M  V30 37 H 0.343232 1.948787 1.818608 0
M  V30 38 H -0.554962 1.825866 3.258658 0
M  V30 39 H -2.122733 1.805834 1.676846 0
M  V30 40 H -3.191392 0.016866 1.587594 0
M  V30 41 H -2.060265 1.264347 -0.485542 0
M  V30 42 H -0.482720 1.936815 -0.119617 0
M  V30 43 H -1.098733 0.786106 -2.378523 0
M  V30 44 H 0.480765 1.195456 -1.736041 0
M  V30 45 H 0.686794 -0.015009 -3.669260 0
M  V30 46 H -2.381043 -0.774150 -2.253715 0
M  V30 47 H -4.011562 -2.415441 -2.893336 0
M  V30 48 H -3.357136 -4.330496 -4.224291 0
M  V30 49 H 0.605198 -2.997704 -4.312467 0
M  V30 50 H 1.903391 -1.927179 -3.188837 0
M  V30 51 H 3.494052 -2.298795 0.060340 0
M  V30 END ATOM
M  V30 BEGIN BOND
M  V30 1 1 1 2
M  V30 2 1 2 3
M  V30 3 1 3 4
M  V30 4 2 4 5
M  V30 5 1 5 6
M  V30 6 2 6 7
M  V30 7 1 7 8
M  V30 8 2 8 9
M  V30 9 1 9 10
M  V30 10 2 10 11
M  V30 11 1 10 12
M  V30 12 1 12 13
M  V30 13 1 13 14
M  V30 14 1 13 15
M  V30 15 1 15 16
M  V30 16 1 16 17
M  V30 17 1 17 18
M  V30 18 1 18 19
M  V30 19 2 19 20
M  V30 20 1 20 21
M  V30 21 2 21 22
M  V30 22 1 22 23
M  V30 23 1 23 24
M  V30 24 2 23 25
M  V30 25 1 18 26
M  V30 26 1 26 27
M  V30 27 2 27 28
M  V30 28 1 27 29
M  V30 29 1 11 3
M  V30 30 1 25 19
M  V30 31 1 11 6
M  V30 32 1 29 8
M  V30 33 1 1 30
M  V30 34 1 1 31
M  V30 35 1 1 32
M  V30 36 1 2 33
M  V30 37 1 2 34
M  V30 38 1 5 35
M  V30 39 1 7 36
M  V30 40 1 12 37
M  V30 41 1 12 38
M  V30 42 1 13 39 CFG=1
M  V30 43 1 14 40
M  V30 44 1 15 41
M  V30 45 1 15 42
M  V30 46 1 17 43
M  V30 47 1 17 44
M  V30 48 1 18 45 CFG=3
M  V30 49 1 20 46
M  V30 50 1 21 47
M  V30 51 1 22 48
M  V30 52 1 25 49
M  V30 53 1 26 50
M  V30 54 1 29 51
M  V30 END BOND
M  V30 END CTAB
M  END
>  <Dataset>  (371) 
ChEMBL_Kinases

>  <Ligand_Instance>  (371) 
nan

>  <PDB_ID>  (371) 
nan

>  <Standardized_SMILES>  (371) 
CCn1ncc2cc3nc(c21)C[C@H](O)COC[C@H](c1cccc(F)c1)NC(=O)N3

>  <Name>  (371) 
nan

>  <Pocket>  (371) 
nan

>  <ATP_Site>  (371) 
nan

>  <Peripheral>  (371) 
nan

>  <Num_H_Atoms_ProtBoundConf>  (371) 
nan

>  <Num_Resolved_Atoms>  (371) 
nan

>  <Num_Not_Resolved_Atoms>  (371) 
nan

$$$$
CHEMBL3974070
     RDKit          3D

  0  0  0  0  0  0  0  0  0  0999 V3000
M  V30 BEGIN CTAB
M  V30 COUNTS 50 53 0 0 0
M  V30 BEGIN ATOM
M  V30 1 C 6.906781 -2.486086 4.320340 0
M  V30 2 C 5.683213 -2.531434 3.386201 0
M  V30 3 C 4.505613 -2.680671 4.269182 0
M  V30 4 C 5.756077 -1.344884 2.500724 0
M  V30 5 N 4.709354 -1.179935 1.539829 0
M  V30 6 C 3.361461 -0.731953 1.568937 0
M  V30 7 C 2.773321 -0.261839 2.726195 0
M  V30 8 C 1.482016 0.212832 2.820873 0
M  V30 9 C 0.702993 0.227828 1.684461 0
M  V30 10 C 1.243109 -0.224955 0.526717 0
M  V30 11 C 2.528943 -0.696324 0.439391 0
M  V30 12 N 2.769646 -1.068563 -0.826488 0
M  V30 13 C 1.688746 -0.864801 -1.599975 0
M  V30 14 N 0.792418 -0.353744 -0.736271 0
M  V30 15 C -0.550205 0.032945 -1.109653 0
M  V30 16 C -1.582922 -0.762671 -0.653150 0
M  V30 17 C -2.900313 -0.479666 -0.953806 0
M  V30 18 C -3.217273 0.632275 -1.736287 0
M  V30 19 C -4.573035 1.022733 -2.113158 0
M  V30 20 O -4.838059 2.035476 -2.823905 0
M  V30 21 N -5.703332 0.292964 -1.709406 0
M  V30 22 C -7.079156 0.652175 -2.066643 0
M  V30 23 C -8.129960 -0.379234 -2.184879 0
M  V30 24 C -8.099444 0.425604 -0.948569 0
M  V30 25 C -2.159883 1.401999 -2.173156 0
M  V30 26 C -0.829797 1.143199 -1.887925 0
M  V30 27 H 7.364368 -3.483766 4.387713 0
M  V30 28 H 7.660596 -1.748806 3.974452 0
M  V30 29 H 6.611718 -2.144655 5.333996 0
M  V30 30 H 5.791035 -3.456840 2.767802 0
M  V30 31 H 4.666299 -3.604612 4.893234 0
M  V30 32 H 4.422952 -1.832591 4.983283 0
M  V30 33 H 3.535314 -2.825231 3.796213 0
M  V30 34 H 6.721857 -1.422721 1.941866 0
M  V30 35 H 5.899410 -0.412785 3.116312 0
M  V30 36 H 4.975902 -1.456181 0.548096 0
M  V30 37 H 3.278468 -0.209857 3.667219 0
M  V30 38 H 1.019698 0.580845 3.725991 0
M  V30 39 H -0.316633 0.586221 1.686594 0
M  V30 40 H 1.513984 -1.040627 -2.643552 0
M  V30 41 H -1.376158 -1.645040 -0.035894 0
M  V30 42 H -3.712937 -1.085061 -0.608643 0
M  V30 43 H -5.618169 -0.563348 -1.119842 0
M  V30 44 H -7.198796 1.559224 -2.693384 0
M  V30 45 H -8.963446 -0.182741 -2.879010 0
M  V30 46 H -7.780747 -1.433683 -2.146234 0
M  V30 47 H -7.723462 -0.113406 -0.036729 0
M  V30 48 H -8.831297 1.220167 -0.729594 0
M  V30 49 H -2.270853 2.303789 -2.795758 0
M  V30 50 H -0.007894 1.737001 -2.224444 0
M  V30 END ATOM
M  V30 BEGIN BOND
M  V30 1 1 1 2
M  V30 2 1 2 3
M  V30 3 1 2 4
M  V30 4 1 4 5
M  V30 5 1 5 6
M  V30 6 2 6 7
M  V30 7 1 7 8
M  V30 8 2 8 9
M  V30 9 1 9 10
M  V30 10 2 10 11
M  V30 11 1 11 12
M  V30 12 2 12 13
M  V30 13 1 13 14
M  V30 14 1 14 15
M  V30 15 2 15 16
M  V30 16 1 16 17
M  V30 17 2 17 18
M  V30 18 1 18 19
M  V30 19 2 19 20
M  V30 20 1 19 21
M  V30 21 1 21 22
M  V30 22 1 22 23
M  V30 23 1 23 24
M  V30 24 1 18 25
M  V30 25 2 25 26
M  V30 26 1 11 6
M  V30 27 1 26 15
M  V30 28 1 14 10
M  V30 29 1 24 22
M  V30 30 1 1 27
M  V30 31 1 1 28
M  V30 32 1 1 29
M  V30 33 1 2 30
M  V30 34 1 3 31
M  V30 35 1 3 32
M  V30 36 1 3 33
M  V30 37 1 4 34
M  V30 38 1 4 35
M  V30 39 1 5 36
M  V30 40 1 7 37
M  V30 41 1 8 38
M  V30 42 1 9 39
M  V30 43 1 13 40
M  V30 44 1 16 41
M  V30 45 1 17 42
M  V30 46 1 21 43
M  V30 47 1 22 44
M  V30 48 1 23 45
M  V30 49 1 23 46
M  V30 50 1 24 47
M  V30 51 1 24 48
M  V30 52 1 25 49
M  V30 53 1 26 50
M  V30 END BOND
M  V30 END CTAB
M  END
>  <Dataset>  (372) 
ChEMBL_Kinases

>  <Ligand_Instance>  (372) 
nan

>  <PDB_ID>  (372) 
nan

>  <Standardized_SMILES>  (372) 
CC(C)CNc1cccc2c1ncn2-c1ccc(C(=O)NC2CC2)cc1

>  <Name>  (372) 
nan

>  <Pocket>  (372) 
nan

>  <ATP_Site>  (372) 
nan

>  <Peripheral>  (372) 
nan

>  <Num_H_Atoms_ProtBoundConf>  (372) 
nan

>  <Num_Resolved_Atoms>  (372) 
nan

>  <Num_Not_Resolved_Atoms>  (372) 
nan

$$$$
CHEMBL3701799
     RDKit          3D

  0  0  0  0  0  0  0  0  0  0999 V3000
M  V30 BEGIN CTAB
M  V30 COUNTS 79 81 0 0 0
M  V30 BEGIN ATOM
M  V30 1 C -3.563665 4.238987 -4.655119 0
M  V30 2 C -2.535690 3.644109 -3.713142 0
M  V30 3 N -2.922951 2.294373 -3.280377 0
M  V30 4 C -4.056122 2.580410 -2.482968 0
M  V30 5 C -4.776819 1.428439 -1.849864 0
M  V30 6 C -2.208258 1.142519 -3.694106 0
M  V30 7 C -2.432229 -0.160761 -3.332256 0
M  V30 8 C -1.728071 -1.256236 -3.770812 0
M  V30 9 C -0.691908 -1.046122 -4.661213 0
M  V30 10 N 0.001402 -2.202833 -5.076425 0
M  V30 11 S 1.708806 -2.438584 -5.171471 0
M  V30 12 O 2.364050 -1.496094 -6.137220 0
M  V30 13 O 2.007832 -3.830524 -5.653959 0
M  V30 14 C 2.491679 -2.279304 -3.614090 0
M  V30 15 C 3.042917 -1.049973 -3.288243 0
M  V30 16 C 3.675956 -0.800829 -2.097471 0
M  V30 17 C 3.755853 -1.838636 -1.197234 0
M  V30 18 C 3.208937 -3.064853 -1.516259 0
M  V30 19 S 3.342103 -4.343829 -0.298747 0
M  V30 20 O 4.615674 -4.113123 0.459026 0
M  V30 21 O 3.372020 -5.689745 -0.948653 0
M  V30 22 N 2.003809 -4.222832 0.807603 0
M  V30 23 C 2.136942 -2.924144 1.428166 0
M  V30 24 C 1.089526 -2.579093 2.419261 0
M  V30 25 C 0.969863 -3.493987 3.603172 0
M  V30 26 C -0.305979 -3.072034 4.345823 0
M  V30 27 N -0.610767 -1.726999 3.919613 0
M  V30 28 C -0.433039 -0.551479 4.698685 0
M  V30 29 O -0.008825 -0.633388 5.867281 0
M  V30 30 O -0.749938 0.673977 4.099581 0
M  V30 31 C -0.586078 1.865761 4.847508 0
M  V30 32 C -1.457604 1.878756 6.078959 0
M  V30 33 C -0.943932 3.028357 3.958568 0
M  V30 34 C 0.857711 2.038826 5.284586 0
M  V30 35 C -1.148577 -1.664521 2.552258 0
M  V30 36 C -0.240542 -2.515458 1.679355 0
M  V30 37 C 2.573804 -3.332527 -2.699073 0
M  V30 38 C -0.435331 0.252674 -5.049567 0
M  V30 39 C -1.173325 1.316988 -4.578961 0
M  V30 40 H -3.078314 4.958393 -5.364385 0
M  V30 41 H -4.288353 4.827457 -4.045557 0
M  V30 42 H -4.003696 3.427957 -5.236477 0
M  V30 43 H -1.581041 3.669994 -4.243086 0
M  V30 44 H -2.366184 4.320280 -2.818561 0
M  V30 45 H -4.832641 3.088897 -3.152168 0
M  V30 46 H -3.821761 3.322523 -1.673326 0
M  V30 47 H -5.723204 1.855033 -1.385671 0
M  V30 48 H -4.187462 0.936420 -1.069777 0
M  V30 49 H -5.168565 0.773107 -2.649754 0
M  V30 50 H -3.217249 -0.393186 -2.642080 0
M  V30 51 H -1.977733 -2.256855 -3.428586 0
M  V30 52 H -0.625842 -3.021055 -5.362308 0
M  V30 53 H 2.977857 -0.228266 -4.001943 0
M  V30 54 H 4.110139 0.163062 -1.840495 0
M  V30 55 H 4.253507 -1.650714 -0.261161 0
M  V30 56 H 2.206222 -4.930882 1.568471 0
M  V30 57 H 2.069964 -2.164989 0.599943 0
M  V30 58 H 3.184090 -2.789863 1.832591 0
M  V30 59 H 1.234045 -1.539046 2.839069 0
M  V30 60 H 1.801855 -3.296925 4.313892 0
M  V30 61 H 0.899651 -4.541930 3.275869 0
M  V30 62 H -1.128200 -3.742641 4.023868 0
M  V30 63 H -0.154938 -3.136463 5.445783 0
M  V30 64 H -1.047333 1.229475 6.896603 0
M  V30 65 H -1.603266 2.925963 6.440210 0
M  V30 66 H -2.441924 1.427453 5.804021 0
M  V30 67 H -0.999589 3.982081 4.540147 0
M  V30 68 H -0.159093 3.085384 3.173837 0
M  V30 69 H -1.893467 2.786873 3.443868 0
M  V30 70 H 1.003570 1.693282 6.335698 0
M  V30 71 H 1.071127 3.126254 5.279479 0
M  V30 72 H 1.550699 1.548947 4.591625 0
M  V30 73 H -2.165186 -2.100053 2.604581 0
M  V30 74 H -1.123937 -0.628544 2.180434 0
M  V30 75 H -0.044254 -1.969123 0.729178 0
M  V30 76 H -0.632264 -3.535408 1.522718 0
M  V30 77 H 2.140919 -4.288738 -2.961353 0
M  V30 78 H 0.397173 0.292824 -5.746034 0
M  V30 79 H -0.777156 2.202324 -5.035326 0
M  V30 END ATOM
M  V30 BEGIN BOND
M  V30 1 1 1 2
M  V30 2 1 2 3
M  V30 3 1 3 4
M  V30 4 1 4 5
M  V30 5 1 3 6
M  V30 6 2 6 7
M  V30 7 1 7 8
M  V30 8 2 8 9
M  V30 9 1 9 10
M  V30 10 1 10 11
M  V30 11 2 11 12
M  V30 12 2 11 13
M  V30 13 1 11 14
M  V30 14 2 14 15
M  V30 15 1 15 16
M  V30 16 2 16 17
M  V30 17 1 17 18
M  V30 18 1 18 19
M  V30 19 2 19 20
M  V30 20 2 19 21
M  V30 21 1 19 22
M  V30 22 1 22 23
M  V30 23 1 23 24
M  V30 24 1 24 25
M  V30 25 1 25 26
M  V30 26 1 26 27
M  V30 27 1 27 28
M  V30 28 2 28 29
M  V30 29 1 28 30
M  V30 30 1 30 31
M  V30 31 1 31 32
M  V30 32 1 31 33
M  V30 33 1 31 34
M  V30 34 1 27 35
M  V30 35 1 35 36
M  V30 36 2 18 37
M  V30 37 1 9 38
M  V30 38 2 38 39
M  V30 39 1 39 6
M  V30 40 1 37 14
M  V30 41 1 36 24
M  V30 42 1 1 40
M  V30 43 1 1 41
M  V30 44 1 1 42
M  V30 45 1 2 43
M  V30 46 1 2 44
M  V30 47 1 4 45
M  V30 48 1 4 46
M  V30 49 1 5 47
M  V30 50 1 5 48
M  V30 51 1 5 49
M  V30 52 1 7 50
M  V30 53 1 8 51
M  V30 54 1 10 52
M  V30 55 1 15 53
M  V30 56 1 16 54
M  V30 57 1 17 55
M  V30 58 1 22 56
M  V30 59 1 23 57
M  V30 60 1 23 58
M  V30 61 1 24 59
M  V30 62 1 25 60
M  V30 63 1 25 61
M  V30 64 1 26 62
M  V30 65 1 26 63
M  V30 66 1 32 64
M  V30 67 1 32 65
M  V30 68 1 32 66
M  V30 69 1 33 67
M  V30 70 1 33 68
M  V30 71 1 33 69
M  V30 72 1 34 70
M  V30 73 1 34 71
M  V30 74 1 34 72
M  V30 75 1 35 73
M  V30 76 1 35 74
M  V30 77 1 36 75
M  V30 78 1 36 76
M  V30 79 1 37 77
M  V30 80 1 38 78
M  V30 81 1 39 79
M  V30 END BOND
M  V30 END CTAB
M  END
>  <Dataset>  (373) 
ChEMBL_Kinases

>  <Ligand_Instance>  (373) 
nan

>  <PDB_ID>  (373) 
nan

>  <Standardized_SMILES>  (373) 
CCN(CC)c1ccc(NS(=O)(=O)c2cccc(S(=O)(=O)NCC3CCN(C(=O)OC(C)(C)C)CC3)c2)cc1

>  <Name>  (373) 
nan

>  <Pocket>  (373) 
nan

>  <ATP_Site>  (373) 
nan

>  <Peripheral>  (373) 
nan

>  <Num_H_Atoms_ProtBoundConf>  (373) 
nan

>  <Num_Resolved_Atoms>  (373) 
nan

>  <Num_Not_Resolved_Atoms>  (373) 
nan

$$$$
CHEMBL3701803
     RDKit          3D

  0  0  0  0  0  0  0  0  0  0999 V3000
M  V30 BEGIN CTAB
M  V30 COUNTS 67 69 0 0 0
M  V30 BEGIN ATOM
M  V30 1 C 3.811394 -2.025077 4.446630 0
M  V30 2 C 4.251702 -2.571246 3.086222 0
M  V30 3 C 5.760927 -2.715819 3.130160 0
M  V30 4 C 3.576789 -3.916811 2.916576 0
M  V30 5 O 3.809968 -1.652273 2.129747 0
M  V30 6 C 3.982373 -1.734368 0.774151 0
M  V30 7 O 4.598272 -2.727223 0.305463 0
M  V30 8 N 3.486052 -0.728390 -0.135580 0
M  V30 9 C 3.747584 -0.956971 -1.540448 0
M  V30 10 C 4.225047 0.388726 -2.099856 0
M  V30 11 C 3.283015 1.496085 -1.686195 0
M  V30 12 C 1.845181 1.233292 -2.062410 0
M  V30 13 N 1.055910 2.364296 -1.602483 0
M  V30 14 S -0.613115 2.165734 -1.983355 0
M  V30 15 O -0.724863 2.027874 -3.490566 0
M  V30 16 O -1.413189 3.375719 -1.603149 0
M  V30 17 C -1.284275 0.756739 -1.203591 0
M  V30 18 C -1.274543 -0.491812 -1.812604 0
M  V30 19 C -1.813528 -1.592530 -1.171819 0
M  V30 20 C -2.380853 -1.483145 0.099918 0
M  V30 21 C -2.399773 -0.246355 0.723130 0
M  V30 22 S -3.090594 -0.032852 2.309363 0
M  V30 23 O -2.955083 -1.295165 3.104635 0
M  V30 24 O -2.358913 1.060923 3.035753 0
M  V30 25 N -4.770762 0.361472 2.246342 0
M  V30 26 C -5.712214 -0.535488 1.672999 0
M  V30 27 C -5.829829 -1.901416 1.849707 0
M  V30 28 C -6.822222 -2.593312 1.195298 0
M  V30 29 C -7.728165 -1.965583 0.348490 0
M  V30 30 N -8.751018 -2.718269 -0.318080 0
M  V30 31 N -9.228927 -2.311634 -1.386609 0 CHG=1 VAL=4
M  V30 32 N -9.545536 -2.154525 -2.569828 0 CHG=-1 VAL=2
M  V30 33 C -7.627437 -0.604674 0.159304 0
M  V30 34 C -6.631571 0.082377 0.817456 0
M  V30 35 C -1.857740 0.841247 0.069611 0
M  V30 36 C 3.362614 1.643249 -0.193101 0
M  V30 37 C 2.781487 0.400115 0.436656 0
M  V30 38 H 3.885327 -0.925452 4.483108 0
M  V30 39 H 4.397463 -2.466391 5.265455 0
M  V30 40 H 2.753614 -2.286803 4.657045 0
M  V30 41 H 6.192989 -1.778859 2.778840 0
M  V30 42 H 6.084793 -3.558107 2.469476 0
M  V30 43 H 6.030106 -2.960518 4.181112 0
M  V30 44 H 3.469168 -4.390095 3.922669 0
M  V30 45 H 2.527574 -3.683870 2.599205 0
M  V30 46 H 4.102368 -4.580572 2.206973 0
M  V30 47 H 4.507263 -1.734687 -1.703311 0
M  V30 48 H 2.825466 -1.208223 -2.123336 0
M  V30 49 H 4.336854 0.272762 -3.176929 0
M  V30 50 H 5.208519 0.605265 -1.637318 0
M  V30 51 H 3.613616 2.434274 -2.197501 0
M  V30 52 H 1.454570 0.259983 -1.790765 0
M  V30 53 H 1.825786 1.292180 -3.193412 0
M  V30 54 H 1.437779 3.262447 -1.911805 0
M  V30 55 H -0.824780 -0.551545 -2.808162 0
M  V30 56 H -1.793021 -2.568211 -1.675468 0
M  V30 57 H -2.791951 -2.348399 0.576602 0
M  V30 58 H -5.117706 1.276090 2.634399 0
M  V30 59 H -5.098905 -2.311843 2.513902 0
M  V30 60 H -6.867621 -3.664515 1.371290 0
M  V30 61 H -8.330876 -0.110421 -0.499583 0
M  V30 62 H -6.619012 1.149641 0.616060 0
M  V30 63 H -1.886328 1.809726 0.587163 0
M  V30 64 H 4.440853 1.761818 0.049316 0
M  V30 65 H 2.872791 2.566953 0.173607 0
M  V30 66 H 2.901979 0.421474 1.548489 0
M  V30 67 H 1.707918 0.272770 0.189715 0
M  V30 END ATOM
M  V30 BEGIN BOND
M  V30 1 1 1 2
M  V30 2 1 2 3
M  V30 3 1 2 4
M  V30 4 1 2 5
M  V30 5 1 5 6
M  V30 6 2 6 7
M  V30 7 1 6 8
M  V30 8 1 8 9
M  V30 9 1 9 10
M  V30 10 1 10 11
M  V30 11 1 11 12
M  V30 12 1 12 13
M  V30 13 1 13 14
M  V30 14 2 14 15
M  V30 15 2 14 16
M  V30 16 1 14 17
M  V30 17 2 17 18
M  V30 18 1 18 19
M  V30 19 2 19 20
M  V30 20 1 20 21
M  V30 21 1 21 22
M  V30 22 2 22 23
M  V30 23 2 22 24
M  V30 24 1 22 25
M  V30 25 1 25 26
M  V30 26 2 26 27
M  V30 27 1 27 28
M  V30 28 2 28 29
M  V30 29 1 29 30
M  V30 30 2 30 31
M  V30 31 2 31 32
M  V30 32 1 29 33
M  V30 33 2 33 34
M  V30 34 2 21 35
M  V30 35 1 11 36
M  V30 36 1 36 37
M  V30 37 1 37 8
M  V30 38 1 35 17
M  V30 39 1 34 26
M  V30 40 1 1 38
M  V30 41 1 1 39
M  V30 42 1 1 40
M  V30 43 1 3 41
M  V30 44 1 3 42
M  V30 45 1 3 43
M  V30 46 1 4 44
M  V30 47 1 4 45
M  V30 48 1 4 46
M  V30 49 1 9 47
M  V30 50 1 9 48
M  V30 51 1 10 49
M  V30 52 1 10 50
M  V30 53 1 11 51
M  V30 54 1 12 52
M  V30 55 1 12 53
M  V30 56 1 13 54
M  V30 57 1 18 55
M  V30 58 1 19 56
M  V30 59 1 20 57
M  V30 60 1 25 58
M  V30 61 1 27 59
M  V30 62 1 28 60
M  V30 63 1 33 61
M  V30 64 1 34 62
M  V30 65 1 35 63
M  V30 66 1 36 64
M  V30 67 1 36 65
M  V30 68 1 37 66
M  V30 69 1 37 67
M  V30 END BOND
M  V30 END CTAB
M  END
>  <Dataset>  (374) 
ChEMBL_Kinases

>  <Ligand_Instance>  (374) 
nan

>  <PDB_ID>  (374) 
nan

>  <Standardized_SMILES>  (374) 
CC(C)(C)OC(=O)N1CCC(CNS(=O)(=O)c2cccc(S(=O)(=O)Nc3ccc(N=[N+]=[N-])cc3)c2)CC1

>  <Name>  (374) 
nan

>  <Pocket>  (374) 
nan

>  <ATP_Site>  (374) 
nan

>  <Peripheral>  (374) 
nan

>  <Num_H_Atoms_ProtBoundConf>  (374) 
nan

>  <Num_Resolved_Atoms>  (374) 
nan

>  <Num_Not_Resolved_Atoms>  (374) 
nan

$$$$
CHEMBL397388
     RDKit          3D

  0  0  0  0  0  0  0  0  0  0999 V3000
M  V30 BEGIN CTAB
M  V30 COUNTS 48 51 0 0 0
M  V30 BEGIN ATOM
M  V30 1 C 4.599611 -7.988671 -0.539052 0
M  V30 2 C 3.929497 -6.646721 -0.434343 0
M  V30 3 O 3.220055 -6.458163 0.577072 0
M  V30 4 N 4.075074 -5.613378 -1.425408 0
M  V30 5 C 3.308497 -4.482636 -1.010060 0
M  V30 6 C 3.893207 -3.502420 -0.217809 0
M  V30 7 C 3.094787 -2.433962 0.149012 0
M  V30 8 C 1.772129 -2.353219 -0.260011 0
M  V30 9 N 0.908574 -1.286051 0.083550 0
M  V30 10 C 0.789275 -0.120921 -0.720906 0
M  V30 11 O 1.502108 -0.103585 -1.756457 0
M  V30 12 C -0.078397 1.023726 -0.436262 0
M  V30 13 C -0.035112 2.049341 -1.357529 0
M  V30 14 C -0.834551 3.181376 -1.160054 0
M  V30 15 C -1.654474 3.249808 -0.042171 0
M  V30 16 N -2.523571 4.170153 0.432517 0
M  V30 17 C -3.064237 3.733474 1.573308 0
M  V30 18 C -2.550759 2.485968 1.882423 0
M  V30 19 C -1.653363 2.181769 0.850997 0
M  V30 20 C -0.876373 1.045991 0.688835 0
M  V30 21 C -3.012423 1.797935 3.120515 0
M  V30 22 C -2.138214 2.168102 4.311726 0
M  V30 23 C -4.403322 2.219426 3.477363 0
M  V30 24 N -4.459713 3.676985 3.621033 0
M  V30 25 C -4.058288 4.398990 2.440688 0
M  V30 26 O -4.525039 5.538241 2.155287 0
M  V30 27 C 1.218702 -3.349854 -1.051322 0
M  V30 28 C 1.992405 -4.443927 -1.442110 0
M  V30 29 H 5.594697 -7.967607 -0.081189 0
M  V30 30 H 3.958140 -8.784280 -0.122576 0
M  V30 31 H 4.724229 -8.210404 -1.619650 0
M  V30 32 H 4.692358 -5.894418 -2.219974 0
M  V30 33 H 4.928112 -3.571838 0.098469 0
M  V30 34 H 3.491114 -1.637932 0.765224 0
M  V30 35 H 0.327345 -1.326758 0.950094 0
M  V30 36 H 0.570056 2.071937 -2.243867 0
M  V30 37 H -0.830544 4.009223 -1.859319 0
M  V30 38 H -2.678369 5.072113 -0.101230 0
M  V30 39 H -0.898211 0.239490 1.395791 0
M  V30 40 H -3.015244 0.700336 2.951066 0
M  V30 41 H -2.212247 1.384403 5.094302 0
M  V30 42 H -2.465917 3.117077 4.769781 0
M  V30 43 H -1.058715 2.169543 4.003770 0
M  V30 44 H -4.668008 1.736197 4.444219 0
M  V30 45 H -5.165224 1.865759 2.748000 0
M  V30 46 H -4.749158 4.265558 4.456408 0
M  V30 47 H 0.170517 -3.304767 -1.386834 0
M  V30 48 H 1.593011 -5.238621 -2.058593 0
M  V30 END ATOM
M  V30 BEGIN BOND
M  V30 1 1 1 2
M  V30 2 2 2 3
M  V30 3 1 2 4
M  V30 4 1 4 5
M  V30 5 2 5 6
M  V30 6 1 6 7
M  V30 7 2 7 8
M  V30 8 1 8 9
M  V30 9 1 9 10
M  V30 10 2 10 11
M  V30 11 1 10 12
M  V30 12 2 12 13
M  V30 13 1 13 14
M  V30 14 2 14 15
M  V30 15 1 15 16
M  V30 16 1 16 17
M  V30 17 2 17 18
M  V30 18 1 18 19
M  V30 19 2 19 20
M  V30 20 1 18 21
M  V30 21 1 21 22
M  V30 22 1 21 23
M  V30 23 1 23 24
M  V30 24 1 24 25
M  V30 25 2 25 26
M  V30 26 1 8 27
M  V30 27 2 27 28
M  V30 28 1 28 5
M  V30 29 1 20 12
M  V30 30 1 19 15
M  V30 31 1 25 17
M  V30 32 1 1 29
M  V30 33 1 1 30
M  V30 34 1 1 31
M  V30 35 1 4 32
M  V30 36 1 6 33
M  V30 37 1 7 34
M  V30 38 1 9 35
M  V30 39 1 13 36
M  V30 40 1 14 37
M  V30 41 1 16 38
M  V30 42 1 20 39
M  V30 43 1 21 40
M  V30 44 1 22 41
M  V30 45 1 22 42
M  V30 46 1 22 43
M  V30 47 1 23 44
M  V30 48 1 23 45
M  V30 49 1 24 46
M  V30 50 1 27 47
M  V30 51 1 28 48
M  V30 END BOND
M  V30 END CTAB
M  END
>  <Dataset>  (375) 
ChEMBL_Kinases

>  <Ligand_Instance>  (375) 
nan

>  <PDB_ID>  (375) 
nan

>  <Standardized_SMILES>  (375) 
CC(=O)Nc1ccc(NC(=O)c2ccc3[nH]c4c(c3c2)C(C)CNC4=O)cc1

>  <Name>  (375) 
nan

>  <Pocket>  (375) 
nan

>  <ATP_Site>  (375) 
nan

>  <Peripheral>  (375) 
nan

>  <Num_H_Atoms_ProtBoundConf>  (375) 
nan

>  <Num_Resolved_Atoms>  (375) 
nan

>  <Num_Not_Resolved_Atoms>  (375) 
nan

$$$$
CHEMBL4869161
     RDKit          3D

  0  0  0  0  0  0  0  0  0  0999 V3000
M  V30 BEGIN CTAB
M  V30 COUNTS 38 41 0 0 0
M  V30 BEGIN ATOM
M  V30 1 O -3.010967 -1.631684 2.618232 0
M  V30 2 C -2.016353 -1.871354 1.890073 0
M  V30 3 N -1.758828 -3.141528 1.532732 0
M  V30 4 C -0.717686 -3.476569 0.758482 0
M  V30 5 C 0.176739 -2.537733 0.264601 0
M  V30 6 N 1.256651 -2.942598 -0.528069 0
M  V30 7 C 2.073236 -2.267964 -1.470692 0
M  V30 8 C 3.325606 -2.714706 -1.815084 0
M  V30 9 C 4.117929 -2.078793 -2.737153 0
M  V30 10 C 3.692588 -0.937031 -3.379243 0
M  V30 11 C 2.443314 -0.448568 -3.068913 0
M  V30 12 Br 1.857676 1.125137 -3.954288 0
M  V30 13 C 1.688194 -1.125181 -2.136301 0
M  V30 14 C -0.118834 -1.265099 0.649457 0
M  V30 15 C -1.179778 -0.883082 1.443872 0
M  V30 16 C -1.420306 0.515151 1.807284 0
M  V30 17 C -2.222397 1.263344 0.967290 0
M  V30 18 C -2.467334 2.598776 1.291048 0
M  V30 19 C -1.876923 3.069680 2.444909 0
M  V30 20 C -1.072846 2.352022 3.303960 0
M  V30 21 N -0.443827 2.687173 4.445950 0
M  V30 22 C 0.185062 1.551870 4.816921 0
M  V30 23 C -0.038055 0.518488 3.932468 0
M  V30 24 C -0.849711 1.032650 2.955126 0
M  V30 25 H -2.414421 -3.899721 1.884904 0
M  V30 26 H -0.586061 -4.542924 0.517625 0
M  V30 27 H 1.539613 -3.965323 -0.414777 0
M  V30 28 H 3.734826 -3.606121 -1.356140 0
M  V30 29 H 5.107357 -2.480015 -2.972184 0
M  V30 30 H 4.340461 -0.462772 -4.097915 0
M  V30 31 H 0.729887 -0.671169 -1.974286 0
M  V30 32 H 0.513839 -0.441680 0.336823 0
M  V30 33 H -2.660635 0.851300 0.078056 0
M  V30 34 H -3.085042 3.248372 0.682632 0
M  V30 35 H -2.055784 4.118232 2.719790 0
M  V30 36 H -0.443659 3.611103 4.930530 0
M  V30 37 H 0.791205 1.518633 5.730661 0
M  V30 38 H 0.339982 -0.491448 3.983798 0
M  V30 END ATOM
M  V30 BEGIN BOND
M  V30 1 2 1 2
M  V30 2 1 2 3
M  V30 3 1 3 4
M  V30 4 2 4 5
M  V30 5 1 5 6
M  V30 6 1 6 7
M  V30 7 2 7 8
M  V30 8 1 8 9
M  V30 9 2 9 10
M  V30 10 1 10 11
M  V30 11 1 11 12
M  V30 12 2 11 13
M  V30 13 1 5 14
M  V30 14 2 14 15
M  V30 15 1 15 16
M  V30 16 2 16 17
M  V30 17 1 17 18
M  V30 18 2 18 19
M  V30 19 1 19 20
M  V30 20 1 20 21
M  V30 21 1 21 22
M  V30 22 2 22 23
M  V30 23 1 23 24
M  V30 24 1 15 2
M  V30 25 1 24 16
M  V30 26 1 13 7
M  V30 27 2 24 20
M  V30 28 1 3 25
M  V30 29 1 4 26
M  V30 30 1 6 27
M  V30 31 1 8 28
M  V30 32 1 9 29
M  V30 33 1 10 30
M  V30 34 1 13 31
M  V30 35 1 14 32
M  V30 36 1 17 33
M  V30 37 1 18 34
M  V30 38 1 19 35
M  V30 39 1 21 36
M  V30 40 1 22 37
M  V30 41 1 23 38
M  V30 END BOND
M  V30 END CTAB
M  END
>  <Dataset>  (376) 
ChEMBL_Kinases

>  <Ligand_Instance>  (376) 
nan

>  <PDB_ID>  (376) 
nan

>  <Standardized_SMILES>  (376) 
O=c1[nH]cc(Nc2cccc(Br)c2)cc1-c1cccc2[nH]ccc12

>  <Name>  (376) 
nan

>  <Pocket>  (376) 
nan

>  <ATP_Site>  (376) 
nan

>  <Peripheral>  (376) 
nan

>  <Num_H_Atoms_ProtBoundConf>  (376) 
nan

>  <Num_Resolved_Atoms>  (376) 
nan

>  <Num_Not_Resolved_Atoms>  (376) 
nan

$$$$
CHEMBL4869229
     RDKit          3D

  0  0  0  0  0  0  0  0  0  0999 V3000
M  V30 BEGIN CTAB
M  V30 COUNTS 49 51 0 0 0
M  V30 BEGIN ATOM
M  V30 1 C 0.311338 -2.589891 3.786625 0
M  V30 2 C 0.872060 -3.195365 2.491977 0
M  V30 3 C 0.057427 -2.635130 1.368279 0
M  V30 4 N 0.416692 -1.500782 0.760694 0
M  V30 5 C -0.196056 -0.889260 -0.235717 0
M  V30 6 N 0.312523 0.306267 -0.786650 0
M  V30 7 C 1.441629 1.163930 -0.531173 0 CFG=2
M  V30 8 C 2.767846 0.485213 -0.479200 0
M  V30 9 N 2.984840 -0.495882 0.516928 0
M  V30 10 C 3.093940 0.025432 1.854017 0
M  V30 11 C 1.209759 2.166883 0.542179 0
M  V30 12 C 0.560762 1.973474 1.744209 0
M  V30 13 C 0.388951 2.957225 2.693007 0
M  V30 14 C 0.881116 4.223148 2.463346 0
M  V30 15 C 1.537647 4.511298 1.303839 0
M  V30 16 F 2.045229 5.733442 1.016753 0
M  V30 17 C 1.668548 3.489197 0.414816 0
M  V30 18 C -1.338521 -1.524603 -0.675989 0
M  V30 19 C -2.069931 -1.005844 -1.697975 0
M  V30 20 C -3.214855 -1.617717 -2.160255 0
M  V30 21 C -3.661169 -2.792935 -1.592193 0
M  V30 22 C -2.888818 -3.292988 -0.551317 0
M  V30 23 C -3.295588 -4.542221 0.106547 0
M  V30 24 N -4.483484 -5.218318 -0.344604 0
M  V30 25 O -2.800519 -5.201470 1.045900 0
M  V30 26 C -1.741337 -2.694234 -0.076409 0
M  V30 27 N -1.055495 -3.256054 0.940984 0
M  V30 28 H 0.798338 -3.027343 4.673617 0
M  V30 29 H 0.468162 -1.479587 3.780260 0
M  V30 30 H -0.785613 -2.747148 3.821795 0
M  V30 31 H 1.905649 -2.867164 2.395266 0
M  V30 32 H 0.745136 -4.284407 2.574692 0
M  V30 33 H -0.267856 0.672254 -1.572089 0
M  V30 34 H 1.549462 1.829167 -1.466378 0
M  V30 35 H 3.564816 1.284546 -0.489292 0
M  V30 36 H 2.895961 -0.003027 -1.493484 0
M  V30 37 H 3.879631 -0.983524 0.290727 0
M  V30 38 H 2.216158 -0.287357 2.437784 0
M  V30 39 H 3.992131 -0.420241 2.383098 0
M  V30 40 H 3.304128 1.110203 1.855337 0
M  V30 41 H 0.170636 0.988954 1.935934 0
M  V30 42 H -0.145495 2.682794 3.612826 0
M  V30 43 H 0.741326 4.988213 3.213810 0
M  V30 44 H 2.198531 3.715438 -0.525695 0
M  V30 45 H -1.841737 -0.113269 -2.221466 0
M  V30 46 H -3.833326 -1.240649 -2.975530 0
M  V30 47 H -4.548926 -3.330150 -1.900326 0
M  V30 48 H -5.042718 -5.416434 -1.218346 0
M  V30 49 H -5.176026 -5.761535 0.214443 0
M  V30 END ATOM
M  V30 BEGIN BOND
M  V30 1 1 1 2
M  V30 2 1 2 3
M  V30 3 2 3 4
M  V30 4 1 4 5
M  V30 5 1 5 6
M  V30 6 1 6 7
M  V30 7 1 7 8
M  V30 8 1 8 9
M  V30 9 1 9 10
M  V30 10 1 7 11
M  V30 11 2 11 12
M  V30 12 1 12 13
M  V30 13 2 13 14
M  V30 14 1 14 15
M  V30 15 1 15 16
M  V30 16 2 15 17
M  V30 17 2 5 18
M  V30 18 1 18 19
M  V30 19 2 19 20
M  V30 20 1 20 21
M  V30 21 2 21 22
M  V30 22 1 22 23
M  V30 23 1 23 24
M  V30 24 2 23 25
M  V30 25 1 22 26
M  V30 26 2 26 27
M  V30 27 1 27 3
M  V30 28 1 17 11
M  V30 29 1 26 18
M  V30 30 1 1 28
M  V30 31 1 1 29
M  V30 32 1 1 30
M  V30 33 1 2 31
M  V30 34 1 2 32
M  V30 35 1 6 33
M  V30 36 1 7 34 CFG=3
M  V30 37 1 8 35
M  V30 38 1 8 36
M  V30 39 1 9 37
M  V30 40 1 10 38
M  V30 41 1 10 39
M  V30 42 1 10 40
M  V30 43 1 12 41
M  V30 44 1 13 42
M  V30 45 1 14 43
M  V30 46 1 17 44
M  V30 47 1 19 45
M  V30 48 1 20 46
M  V30 49 1 21 47
M  V30 50 1 24 48
M  V30 51 1 24 49
M  V30 END BOND
M  V30 END CTAB
M  END
>  <Dataset>  (377) 
ChEMBL_Kinases

>  <Ligand_Instance>  (377) 
nan

>  <PDB_ID>  (377) 
nan

>  <Standardized_SMILES>  (377) 
CCc1nc(N[C@H](CNC)c2cccc(F)c2)c2cccc(C(N)=O)c2n1

>  <Name>  (377) 
nan

>  <Pocket>  (377) 
nan

>  <ATP_Site>  (377) 
nan

>  <Peripheral>  (377) 
nan

>  <Num_H_Atoms_ProtBoundConf>  (377) 
nan

>  <Num_Resolved_Atoms>  (377) 
nan

>  <Num_Not_Resolved_Atoms>  (377) 
nan

$$$$
CHEMBL4869255
     RDKit          3D

  0  0  0  0  0  0  0  0  0  0999 V3000
M  V30 BEGIN CTAB
M  V30 COUNTS 34 37 0 0 0
M  V30 BEGIN ATOM
M  V30 1 F -3.117027 -3.475153 2.578687 0
M  V30 2 C -1.813873 -3.357782 2.157148 0 CFG=1
M  V30 3 C -1.337944 -4.624426 1.442292 0
M  V30 4 C -0.961595 -4.151692 0.038534 0
M  V30 5 N -0.698732 -2.756944 0.220148 0
M  V30 6 C 0.363522 -1.969825 -0.307949 0
M  V30 7 N 1.301915 -2.521276 -1.098971 0
M  V30 8 C 2.316087 -1.778675 -1.605443 0
M  V30 9 C 2.405900 -0.428174 -1.315886 0
M  V30 10 C 1.432009 0.128829 -0.498927 0
M  V30 11 C 1.517028 1.552601 -0.186987 0
M  V30 12 C 2.469887 2.457738 -0.608632 0
M  V30 13 N 2.167985 3.661879 -0.086967 0
M  V30 14 N 1.062013 3.552502 0.647410 0
M  V30 15 N 0.455112 4.518806 1.317551 0
M  V30 16 C -0.663454 4.294112 2.030602 0
M  V30 17 C -1.131971 2.976372 2.010761 0
M  V30 18 C -0.494907 1.971284 1.309725 0
M  V30 19 C 0.643794 2.274047 0.603109 0
M  V30 20 N 0.430758 -0.657405 -0.012727 0
M  V30 21 C -1.762036 -2.300331 1.072699 0
M  V30 22 H -1.148548 -3.109445 2.998499 0
M  V30 23 H -0.450210 -5.030758 1.962503 0
M  V30 24 H -2.187060 -5.337482 1.410847 0
M  V30 25 H -1.845184 -4.246829 -0.654414 0
M  V30 26 H -0.115290 -4.732365 -0.386180 0
M  V30 27 H 3.087236 -2.184750 -2.243239 0
M  V30 28 H 3.197126 0.235865 -1.688969 0
M  V30 29 H 3.303145 2.251750 -1.236989 0
M  V30 30 H -1.203098 5.043994 2.598011 0
M  V30 31 H -2.031173 2.786731 2.581622 0
M  V30 32 H -0.868050 0.953781 1.302257 0
M  V30 33 H -1.580065 -1.326663 1.556184 0
M  V30 34 H -2.744905 -2.213799 0.551933 0
M  V30 END ATOM
M  V30 BEGIN BOND
M  V30 1 1 1 2
M  V30 2 1 2 3
M  V30 3 1 3 4
M  V30 4 1 4 5
M  V30 5 1 5 6
M  V30 6 2 6 7
M  V30 7 1 7 8
M  V30 8 2 8 9
M  V30 9 1 9 10
M  V30 10 1 10 11
M  V30 11 1 11 12
M  V30 12 2 12 13
M  V30 13 1 13 14
M  V30 14 1 14 15
M  V30 15 2 15 16
M  V30 16 1 16 17
M  V30 17 2 17 18
M  V30 18 1 18 19
M  V30 19 2 10 20
M  V30 20 1 5 21
M  V30 21 1 21 2
M  V30 22 1 20 6
M  V30 23 2 19 11
M  V30 24 1 19 14
M  V30 25 1 2 22 CFG=1
M  V30 26 1 3 23
M  V30 27 1 3 24
M  V30 28 1 4 25
M  V30 29 1 4 26
M  V30 30 1 8 27
M  V30 31 1 9 28
M  V30 32 1 12 29
M  V30 33 1 16 30
M  V30 34 1 17 31
M  V30 35 1 18 32
M  V30 36 1 21 33
M  V30 37 1 21 34
M  V30 END BOND
M  V30 END CTAB
M  END
>  <Dataset>  (378) 
ChEMBL_Kinases

>  <Ligand_Instance>  (378) 
nan

>  <PDB_ID>  (378) 
nan

>  <Standardized_SMILES>  (378) 
F[C@H]1CCN(c2nccc(-c3cnn4ncccc34)n2)C1

>  <Name>  (378) 
nan

>  <Pocket>  (378) 
nan

>  <ATP_Site>  (378) 
nan

>  <Peripheral>  (378) 
nan

>  <Num_H_Atoms_ProtBoundConf>  (378) 
nan

>  <Num_Resolved_Atoms>  (378) 
nan

>  <Num_Not_Resolved_Atoms>  (378) 
nan

$$$$
CHEMBL397356
     RDKit          3D

  0  0  0  0  0  0  0  0  0  0999 V3000
M  V30 BEGIN CTAB
M  V30 COUNTS 31 33 0 0 0
M  V30 BEGIN ATOM
M  V30 1 N 2.300560 -1.169791 2.991102 0
M  V30 2 C 1.477946 -1.228005 2.149517 0
M  V30 3 C 0.471964 -1.307391 1.125677 0
M  V30 4 C 0.508784 -0.475003 0.022648 0
M  V30 5 N 1.491851 0.541696 -0.268261 0
M  V30 6 C 1.154502 1.809310 0.255853 0
M  V30 7 O 0.066552 1.851034 0.884065 0
M  V30 8 C 2.038264 2.953722 0.054816 0
M  V30 9 C 1.617756 4.124155 0.600546 0
M  V30 10 C 2.452741 5.235451 0.418520 0
M  V30 11 S 3.873052 4.617996 -0.549261 0
M  V30 12 C 3.216211 2.901700 -0.627078 0
M  V30 13 S -0.918044 -0.897992 -1.002646 0
M  V30 14 C -1.498536 -2.215905 0.155599 0
M  V30 15 C -0.548444 -2.191482 1.192040 0
M  V30 16 C -0.944119 -3.234018 2.178095 0
M  V30 17 C -1.130444 -4.579763 1.533053 0
M  V30 18 C -2.147701 -4.549527 0.416570 0
M  V30 19 C -2.635951 -3.142068 0.145995 0
M  V30 20 H 2.381238 0.367589 -0.818573 0
M  V30 21 H 0.752720 4.422664 1.169604 0
M  V30 22 H 2.465187 6.264029 0.681409 0
M  V30 23 H 3.621840 2.015945 -1.089649 0
M  V30 24 H -1.879454 -2.906759 2.675132 0
M  V30 25 H -0.181269 -3.357056 2.970824 0
M  V30 26 H -0.151233 -4.983032 1.203964 0
M  V30 27 H -1.511207 -5.267348 2.316726 0
M  V30 28 H -3.048511 -5.145077 0.673209 0
M  V30 29 H -1.737797 -4.984123 -0.517879 0
M  V30 30 H -3.370183 -2.818312 0.879979 0
M  V30 31 H -3.033638 -3.176952 -0.906134 0
M  V30 END ATOM
M  V30 BEGIN BOND
M  V30 1 3 1 2
M  V30 2 1 2 3
M  V30 3 2 3 4
M  V30 4 1 4 5
M  V30 5 1 5 6
M  V30 6 2 6 7
M  V30 7 1 6 8
M  V30 8 1 8 9
M  V30 9 2 9 10
M  V30 10 1 10 11
M  V30 11 1 11 12
M  V30 12 1 4 13
M  V30 13 1 13 14
M  V30 14 2 14 15
M  V30 15 1 15 16
M  V30 16 1 16 17
M  V30 17 1 17 18
M  V30 18 1 18 19
M  V30 19 1 15 3
M  V30 20 2 12 8
M  V30 21 1 19 14
M  V30 22 1 5 20
M  V30 23 1 9 21
M  V30 24 1 10 22
M  V30 25 1 12 23
M  V30 26 1 16 24
M  V30 27 1 16 25
M  V30 28 1 17 26
M  V30 29 1 17 27
M  V30 30 1 18 28
M  V30 31 1 18 29
M  V30 32 1 19 30
M  V30 33 1 19 31
M  V30 END BOND
M  V30 END CTAB
M  END
>  <Dataset>  (379) 
ChEMBL_Kinases

>  <Ligand_Instance>  (379) 
nan

>  <PDB_ID>  (379) 
nan

>  <Standardized_SMILES>  (379) 
N#Cc1c(NC(=O)c2ccsc2)sc2c1CCCC2

>  <Name>  (379) 
nan

>  <Pocket>  (379) 
nan

>  <ATP_Site>  (379) 
nan

>  <Peripheral>  (379) 
nan

>  <Num_H_Atoms_ProtBoundConf>  (379) 
nan

>  <Num_Resolved_Atoms>  (379) 
nan

>  <Num_Not_Resolved_Atoms>  (379) 
nan

$$$$
CHEMBL3701804
     RDKit          3D

  0  0  0  0  0  0  0  0  0  0999 V3000
M  V30 BEGIN CTAB
M  V30 COUNTS 94 97 0 0 0
M  V30 BEGIN ATOM
M  V30 1 C -3.155602 4.440476 0.027038 0
M  V30 2 C -4.289124 4.947815 0.864392 0
M  V30 3 C -4.005293 6.403807 1.199852 0
M  V30 4 C -5.571041 4.986242 0.028254 0
M  V30 5 O -4.488213 4.190079 2.036597 0
M  V30 6 C -4.782632 2.844790 2.010613 0
M  V30 7 O -4.881110 2.242915 0.908757 0
M  V30 8 N -4.996142 2.042765 3.198487 0
M  V30 9 C -5.304670 0.637880 3.085361 0
M  V30 10 C -4.504762 -0.141385 4.079979 0
M  V30 11 C -3.872875 0.705438 5.139901 0
M  V30 12 C -2.546587 1.258284 4.681295 0
M  V30 13 N -1.584476 0.213300 4.397017 0
M  V30 14 S -0.134982 0.999349 3.868323 0
M  V30 15 O -0.308303 2.515502 3.826376 0
M  V30 16 O 0.948845 0.750134 4.844097 0
M  V30 17 C 0.286332 0.547342 2.245727 0
M  V30 18 C 1.369350 -0.346866 2.169477 0
M  V30 19 C 1.877530 -0.860717 1.000835 0
M  V30 20 C 1.285019 -0.474517 -0.180925 0
M  V30 21 C 0.228012 0.392833 -0.144237 0
M  V30 22 S -0.573373 0.886686 -1.644544 0
M  V30 23 O -1.440113 2.062824 -1.318061 0
M  V30 24 O 0.375683 1.267382 -2.705721 0
M  V30 25 N -1.667827 -0.390408 -2.113679 0
M  V30 26 C -0.997733 -1.623165 -2.386178 0
M  V30 27 C -1.248497 -2.841526 -1.790762 0
M  V30 28 C -0.492278 -3.947988 -2.128806 0
M  V30 29 C 0.529944 -3.931078 -3.047263 0
M  V30 30 N 1.343847 -5.045616 -3.389113 0
M  V30 31 C 1.629737 -6.206165 -2.563851 0
M  V30 32 C 3.089889 -6.239134 -2.156461 0
M  V30 33 N 3.789272 -5.265003 -2.969325 0
M  V30 34 C 4.629142 -4.214212 -2.568749 0
M  V30 35 O 4.914517 -3.966520 -1.377585 0
M  V30 36 O 5.160149 -3.421094 -3.543348 0
M  V30 37 C 6.012939 -2.327701 -3.393226 0
M  V30 38 C 5.443849 -1.202734 -2.558627 0
M  V30 39 C 7.326093 -2.769180 -2.735952 0
M  V30 40 C 6.366270 -1.723816 -4.750843 0
M  V30 41 C 3.506445 -5.516560 -4.389606 0
M  V30 42 C 2.025313 -5.217152 -4.651987 0
M  V30 43 C 0.786448 -2.717180 -3.647729 0
M  V30 44 C 0.040554 -1.577047 -3.328957 0
M  V30 45 C -0.266487 0.900514 1.063707 0
M  V30 46 C -4.739878 1.857345 5.543697 0
M  V30 47 C -4.864824 2.840380 4.406151 0
M  V30 48 H -2.542338 5.288376 -0.324492 0
M  V30 49 H -2.491153 3.762896 0.618161 0
M  V30 50 H -3.528191 3.932819 -0.914968 0
M  V30 51 H -4.695120 6.833895 1.923389 0
M  V30 52 H -4.077153 6.966301 0.230526 0
M  V30 53 H -2.930870 6.456184 1.493831 0
M  V30 54 H -5.631777 4.197245 -0.717002 0
M  V30 55 H -6.404457 4.912332 0.784591 0
M  V30 56 H -5.625976 5.957991 -0.526550 0
M  V30 57 H -6.402238 0.451934 3.180596 0
M  V30 58 H -5.011106 0.310606 2.045604 0
M  V30 59 H -3.648707 -0.620801 3.519706 0
M  V30 60 H -5.065190 -1.009028 4.498129 0
M  V30 61 H -3.739639 0.034486 6.029746 0
M  V30 62 H -2.678700 1.854765 3.782011 0
M  V30 63 H -2.123504 1.897983 5.488446 0
M  V30 64 H -1.396955 -0.408382 5.224255 0
M  V30 65 H 1.894991 -0.703667 3.063777 0
M  V30 66 H 2.703082 -1.542281 0.975739 0
M  V30 67 H 1.691308 -0.879627 -1.091589 0
M  V30 68 H -2.709066 -0.543464 -2.265006 0
M  V30 69 H -2.043829 -2.869293 -1.072609 0
M  V30 70 H -0.710436 -4.909126 -1.641747 0
M  V30 71 H 1.372731 -7.106415 -3.139707 0
M  V30 72 H 1.056504 -6.105500 -1.634093 0
M  V30 73 H 3.478148 -7.267211 -2.250329 0
M  V30 74 H 3.225691 -5.898853 -1.095657 0
M  V30 75 H 5.846639 -1.224102 -1.523825 0
M  V30 76 H 4.327619 -1.206319 -2.559319 0
M  V30 77 H 5.726087 -0.218066 -2.978327 0
M  V30 78 H 8.121329 -2.068584 -3.125035 0
M  V30 79 H 7.216114 -2.647431 -1.643088 0
M  V30 80 H 7.579257 -3.815620 -3.013708 0
M  V30 81 H 6.622691 -2.514232 -5.486701 0
M  V30 82 H 5.524672 -1.088331 -5.062822 0
M  V30 83 H 7.257472 -1.062626 -4.667148 0
M  V30 84 H 3.730572 -6.582490 -4.595271 0
M  V30 85 H 4.162770 -4.886916 -5.006292 0
M  V30 86 H 1.560879 -6.146194 -5.105138 0
M  V30 87 H 1.894086 -4.360386 -5.319592 0
M  V30 88 H 1.590611 -2.617199 -4.393485 0
M  V30 89 H 0.336871 -0.685441 -3.877871 0
M  V30 90 H -1.089667 1.583291 1.149706 0
M  V30 91 H -5.726973 1.543821 5.939218 0
M  V30 92 H -4.163461 2.398010 6.351892 0
M  V30 93 H -3.962298 3.488529 4.383723 0
M  V30 94 H -5.726025 3.493177 4.594804 0
M  V30 END ATOM
M  V30 BEGIN BOND
M  V30 1 1 1 2
M  V30 2 1 2 3
M  V30 3 1 2 4
M  V30 4 1 2 5
M  V30 5 1 5 6
M  V30 6 2 6 7
M  V30 7 1 6 8
M  V30 8 1 8 9
M  V30 9 1 9 10
M  V30 10 1 10 11
M  V30 11 1 11 12
M  V30 12 1 12 13
M  V30 13 1 13 14
M  V30 14 2 14 15
M  V30 15 2 14 16
M  V30 16 1 14 17
M  V30 17 2 17 18
M  V30 18 1 18 19
M  V30 19 2 19 20
M  V30 20 1 20 21
M  V30 21 1 21 22
M  V30 22 2 22 23
M  V30 23 2 22 24
M  V30 24 1 22 25
M  V30 25 1 25 26
M  V30 26 2 26 27
M  V30 27 1 27 28
M  V30 28 2 28 29
M  V30 29 1 29 30
M  V30 30 1 30 31
M  V30 31 1 31 32
M  V30 32 1 32 33
M  V30 33 1 33 34
M  V30 34 2 34 35
M  V30 35 1 34 36
M  V30 36 1 36 37
M  V30 37 1 37 38
M  V30 38 1 37 39
M  V30 39 1 37 40
M  V30 40 1 33 41
M  V30 41 1 41 42
M  V30 42 1 29 43
M  V30 43 2 43 44
M  V30 44 2 21 45
M  V30 45 1 11 46
M  V30 46 1 46 47
M  V30 47 1 47 8
M  V30 48 1 45 17
M  V30 49 1 44 26
M  V30 50 1 42 30
M  V30 51 1 1 48
M  V30 52 1 1 49
M  V30 53 1 1 50
M  V30 54 1 3 51
M  V30 55 1 3 52
M  V30 56 1 3 53
M  V30 57 1 4 54
M  V30 58 1 4 55
M  V30 59 1 4 56
M  V30 60 1 9 57
M  V30 61 1 9 58
M  V30 62 1 10 59
M  V30 63 1 10 60
M  V30 64 1 11 61
M  V30 65 1 12 62
M  V30 66 1 12 63
M  V30 67 1 13 64
M  V30 68 1 18 65
M  V30 69 1 19 66
M  V30 70 1 20 67
M  V30 71 1 25 68
M  V30 72 1 27 69
M  V30 73 1 28 70
M  V30 74 1 31 71
M  V30 75 1 31 72
M  V30 76 1 32 73
M  V30 77 1 32 74
M  V30 78 1 38 75
M  V30 79 1 38 76
M  V30 80 1 38 77
M  V30 81 1 39 78
M  V30 82 1 39 79
M  V30 83 1 39 80
M  V30 84 1 40 81
M  V30 85 1 40 82
M  V30 86 1 40 83
M  V30 87 1 41 84
M  V30 88 1 41 85
M  V30 89 1 42 86
M  V30 90 1 42 87
M  V30 91 1 43 88
M  V30 92 1 44 89
M  V30 93 1 45 90
M  V30 94 1 46 91
M  V30 95 1 46 92
M  V30 96 1 47 93
M  V30 97 1 47 94
M  V30 END BOND
M  V30 END CTAB
M  END
>  <Dataset>  (380) 
ChEMBL_Kinases

>  <Ligand_Instance>  (380) 
nan

>  <PDB_ID>  (380) 
nan

>  <Standardized_SMILES>  (380) 
CC(C)(C)OC(=O)N1CCC(CNS(=O)(=O)c2cccc(S(=O)(=O)Nc3ccc(N4CCN(C(=O)OC(C)(C)C)CC4)cc3)c2)CC1

>  <Name>  (380) 
nan

>  <Pocket>  (380) 
nan

>  <ATP_Site>  (380) 
nan

>  <Peripheral>  (380) 
nan

>  <Num_H_Atoms_ProtBoundConf>  (380) 
nan

>  <Num_Resolved_Atoms>  (380) 
nan

>  <Num_Not_Resolved_Atoms>  (380) 
nan

$$$$
CHEMBL4869303
     RDKit          3D

  0  0  0  0  0  0  0  0  0  0999 V3000
M  V30 BEGIN CTAB
M  V30 COUNTS 45 47 0 0 0
M  V30 BEGIN ATOM
M  V30 1 C -0.453613 -4.222003 -1.186885 0
M  V30 2 N 0.921830 -4.342893 -0.718826 0
M  V30 3 C 1.803954 -3.917701 -1.767012 0
M  V30 4 C 2.187307 -2.601990 -1.860053 0
M  V30 5 C 3.036238 -2.101616 -2.839585 0
M  V30 6 O 3.382030 -0.742203 -2.868190 0
M  V30 7 C 2.842880 0.096784 -1.875292 0
M  V30 8 C 3.598740 0.215596 -0.725072 0
M  V30 9 Cl 5.118054 -0.607064 -0.496844 0
M  V30 10 C 3.151314 1.017745 0.306785 0
M  V30 11 C 1.949697 1.680142 0.149343 0
M  V30 12 N 1.311247 2.559490 1.101014 0
M  V30 13 C 0.415700 1.903274 2.015540 0
M  V30 14 O 0.306504 0.667545 1.869964 0
M  V30 15 N -0.338839 2.507844 3.043538 0
M  V30 16 C -1.181049 1.658790 3.851996 0
M  V30 17 C -0.779129 1.037282 5.015247 0
M  V30 18 C -1.635945 0.246464 5.727638 0
M  V30 19 C -2.906453 0.080748 5.264746 0
M  V30 20 C -3.351402 0.692315 4.092347 0
M  V30 21 C -4.740213 0.524036 3.566938 0
M  V30 22 F -5.230746 -0.691177 3.982843 0
M  V30 23 F -4.589721 0.414730 2.178735 0
M  V30 24 F -5.555129 1.577996 3.858834 0
M  V30 25 C -2.478232 1.503496 3.358412 0
M  V30 26 C 1.192135 1.553144 -1.019013 0
M  V30 27 C 1.637910 0.744008 -2.066586 0
M  V30 28 Cl 0.739939 0.539950 -3.556548 0
M  V30 29 N 3.496013 -3.006011 -3.746826 0
M  V30 30 C 3.120921 -4.303834 -3.659142 0
M  V30 31 N 2.296149 -4.770523 -2.701255 0
M  V30 32 H -0.656160 -5.006914 -1.936388 0
M  V30 33 H -1.193535 -4.291004 -0.349567 0
M  V30 34 H -0.640932 -3.209620 -1.631347 0
M  V30 35 H 1.219273 -4.683536 0.225933 0
M  V30 36 H 1.825584 -1.877162 -1.142025 0
M  V30 37 H 3.641733 1.196701 1.253047 0
M  V30 38 H 1.391472 3.605948 1.238808 0
M  V30 39 H -0.219864 3.556746 3.135978 0
M  V30 40 H 0.223093 1.193518 5.341911 0
M  V30 41 H -1.331949 -0.245829 6.640980 0
M  V30 42 H -3.639352 -0.536954 5.785474 0
M  V30 43 H -2.807026 1.979352 2.455939 0
M  V30 44 H 0.249761 2.042065 -1.202502 0
M  V30 45 H 3.498645 -5.010677 -4.392885 0
M  V30 END ATOM
M  V30 BEGIN BOND
M  V30 1 1 1 2
M  V30 2 1 2 3
M  V30 3 2 3 4
M  V30 4 1 4 5
M  V30 5 1 5 6
M  V30 6 1 6 7
M  V30 7 2 7 8
M  V30 8 1 8 9
M  V30 9 1 8 10
M  V30 10 2 10 11
M  V30 11 1 11 12
M  V30 12 1 12 13
M  V30 13 2 13 14
M  V30 14 1 13 15
M  V30 15 1 15 16
M  V30 16 2 16 17
M  V30 17 1 17 18
M  V30 18 2 18 19
M  V30 19 1 19 20
M  V30 20 1 20 21
M  V30 21 1 21 22
M  V30 22 1 21 23
M  V30 23 1 21 24
M  V30 24 2 20 25
M  V30 25 1 11 26
M  V30 26 2 26 27
M  V30 27 1 27 28
M  V30 28 2 5 29
M  V30 29 1 29 30
M  V30 30 2 30 31
M  V30 31 1 31 3
M  V30 32 1 27 7
M  V30 33 1 25 16
M  V30 34 1 1 32
M  V30 35 1 1 33
M  V30 36 1 1 34
M  V30 37 1 2 35
M  V30 38 1 4 36
M  V30 39 1 10 37
M  V30 40 1 12 38
M  V30 41 1 15 39
M  V30 42 1 17 40
M  V30 43 1 18 41
M  V30 44 1 19 42
M  V30 45 1 25 43
M  V30 46 1 26 44
M  V30 47 1 30 45
M  V30 END BOND
M  V30 END CTAB
M  END
>  <Dataset>  (381) 
ChEMBL_Kinases

>  <Ligand_Instance>  (381) 
nan

>  <PDB_ID>  (381) 
nan

>  <Standardized_SMILES>  (381) 
CNc1cc(Oc2c(Cl)cc(NC(=O)Nc3cccc(C(F)(F)F)c3)cc2Cl)ncn1

>  <Name>  (381) 
nan

>  <Pocket>  (381) 
nan

>  <ATP_Site>  (381) 
nan

>  <Peripheral>  (381) 
nan

>  <Num_H_Atoms_ProtBoundConf>  (381) 
nan

>  <Num_Resolved_Atoms>  (381) 
nan

>  <Num_Not_Resolved_Atoms>  (381) 
nan

$$$$
CHEMBL3967136
     RDKit          3D

  0  0  0  0  0  0  0  0  0  0999 V3000
M  V30 BEGIN CTAB
M  V30 COUNTS 51 53 0 0 0
M  V30 BEGIN ATOM
M  V30 1 C 0.842414 -4.693355 5.340226 0
M  V30 2 C 1.142133 -4.224961 3.959988 0
M  V30 3 C 1.369941 -2.858362 3.779763 0
M  V30 4 C 1.650995 -2.369283 2.529037 0
M  V30 5 C 1.716083 -3.199315 1.428112 0
M  V30 6 O 1.964752 -3.013608 0.110082 0
M  V30 7 C 2.248538 -1.892268 -0.629278 0
M  V30 8 C 1.249892 -0.799386 -0.668787 0
M  V30 9 N -0.040105 -1.216169 -1.211886 0
M  V30 10 C -1.076683 -0.240162 -1.295388 0
M  V30 11 N -0.887279 1.028688 -0.890263 0
M  V30 12 C -1.871735 1.959126 -0.968621 0
M  V30 13 N -1.570944 3.273681 -0.513696 0
M  V30 14 C -0.278603 3.574792 0.000748 0
M  V30 15 C -0.104618 3.395455 1.377109 0
M  V30 16 C 1.207613 3.743620 1.646789 0
M  V30 17 C 1.907316 3.731180 2.968483 0
M  V30 18 N 1.789783 4.115936 0.471260 0
M  V30 19 N 0.903829 4.014554 -0.505543 0
M  V30 20 C -3.129207 1.685535 -1.462575 0
M  V30 21 C -3.356282 0.384693 -1.888889 0
M  V30 22 C -4.699048 0.029197 -2.433276 0
M  V30 23 C -2.335483 -0.531953 -1.794687 0
M  V30 24 C -2.601068 -1.863100 -2.242134 0
M  V30 25 N -2.822964 -2.942246 -2.587907 0
M  V30 26 C 1.480587 -4.560289 1.659401 0
M  V30 27 C 1.489206 -5.671842 0.652873 0
M  V30 28 N 1.198858 -5.072568 2.894615 0
M  V30 29 H 0.333139 -3.865395 5.880033 0
M  V30 30 H 1.783764 -4.958184 5.871125 0
M  V30 31 H 0.146773 -5.547976 5.340262 0
M  V30 32 H 1.347504 -2.111744 4.554301 0
M  V30 33 H 1.843544 -1.360100 2.266629 0
M  V30 34 H 2.428680 -2.234998 -1.691911 0
M  V30 35 H 3.237503 -1.414643 -0.361713 0
M  V30 36 H 1.159340 -0.247663 0.285314 0
M  V30 37 H 1.626135 -0.018211 -1.395771 0
M  V30 38 H -0.277987 -2.183491 -1.551725 0
M  V30 39 H -2.282005 4.038755 -0.546134 0
M  V30 40 H -0.771293 3.062356 2.169027 0
M  V30 41 H 1.163829 3.539918 3.761922 0
M  V30 42 H 2.665100 2.923080 3.030916 0
M  V30 43 H 2.338529 4.740209 3.088784 0
M  V30 44 H 2.780358 4.444658 0.283109 0
M  V30 45 H -3.898696 2.444494 -1.515312 0
M  V30 46 H -4.619915 -0.877773 -3.087507 0
M  V30 47 H -5.330951 -0.255275 -1.573755 0
M  V30 48 H -5.115497 0.835526 -3.060965 0
M  V30 49 H 0.488309 -6.150731 0.717006 0
M  V30 50 H 2.233075 -6.445877 0.911764 0
M  V30 51 H 1.580541 -5.271231 -0.376301 0
M  V30 END ATOM
M  V30 BEGIN BOND
M  V30 1 1 1 2
M  V30 2 2 2 3
M  V30 3 1 3 4
M  V30 4 2 4 5
M  V30 5 1 5 6
M  V30 6 1 6 7
M  V30 7 1 7 8
M  V30 8 1 8 9
M  V30 9 1 9 10
M  V30 10 2 10 11
M  V30 11 1 11 12
M  V30 12 1 12 13
M  V30 13 1 13 14
M  V30 14 1 14 15
M  V30 15 2 15 16
M  V30 16 1 16 17
M  V30 17 1 16 18
M  V30 18 1 18 19
M  V30 19 2 12 20
M  V30 20 1 20 21
M  V30 21 1 21 22
M  V30 22 2 21 23
M  V30 23 1 23 24
M  V30 24 3 24 25
M  V30 25 1 5 26
M  V30 26 1 26 27
M  V30 27 2 26 28
M  V30 28 1 28 2
M  V30 29 1 23 10
M  V30 30 2 19 14
M  V30 31 1 1 29
M  V30 32 1 1 30
M  V30 33 1 1 31
M  V30 34 1 3 32
M  V30 35 1 4 33
M  V30 36 1 7 34
M  V30 37 1 7 35
M  V30 38 1 8 36
M  V30 39 1 8 37
M  V30 40 1 9 38
M  V30 41 1 13 39
M  V30 42 1 15 40
M  V30 43 1 17 41
M  V30 44 1 17 42
M  V30 45 1 17 43
M  V30 46 1 18 44
M  V30 47 1 20 45
M  V30 48 1 22 46
M  V30 49 1 22 47
M  V30 50 1 22 48
M  V30 51 1 27 49
M  V30 52 1 27 50
M  V30 53 1 27 51
M  V30 END BOND
M  V30 END CTAB
M  END
>  <Dataset>  (382) 
ChEMBL_Kinases

>  <Ligand_Instance>  (382) 
nan

>  <PDB_ID>  (382) 
nan

>  <Standardized_SMILES>  (382) 
Cc1ccc(OCCNc2nc(Nc3cc(C)[nH]n3)cc(C)c2C#N)c(C)n1

>  <Name>  (382) 
nan

>  <Pocket>  (382) 
nan

>  <ATP_Site>  (382) 
nan

>  <Peripheral>  (382) 
nan

>  <Num_H_Atoms_ProtBoundConf>  (382) 
nan

>  <Num_Resolved_Atoms>  (382) 
nan

>  <Num_Not_Resolved_Atoms>  (382) 
nan

$$$$
CHEMBL3973244
     RDKit          3D

  0  0  0  0  0  0  0  0  0  0999 V3000
M  V30 BEGIN CTAB
M  V30 COUNTS 67 69 0 0 0
M  V30 BEGIN ATOM
M  V30 1 C 5.207417 1.947161 2.460782 0
M  V30 2 C 3.887283 1.319894 2.089472 0 CFG=2
M  V30 3 C 3.886269 0.967740 0.665275 0
M  V30 4 C 3.657538 -0.155922 0.070513 0
M  V30 5 C 3.330376 -1.392984 0.727228 0
M  V30 6 O 3.242681 -1.563847 1.962772 0
M  V30 7 C 2.983005 -2.760754 1.067699 0 CFG=1
M  V30 8 O 3.169209 -3.075229 2.440254 0
M  V30 9 C 1.613203 -3.247060 0.742062 0 CFG=1
M  V30 10 O 0.677687 -2.667437 1.669534 0
M  V30 11 C 1.121503 -2.938863 -0.645194 0
M  V30 12 C 0.723530 -1.532003 -0.864274 0
M  V30 13 C 0.549512 -0.280994 -1.225921 0
M  V30 14 C -0.348354 0.844432 -0.863975 0
M  V30 15 C -1.537264 0.688533 -1.595999 0
M  V30 16 C -2.598044 1.566317 -1.471567 0
M  V30 17 N -3.807430 1.412774 -2.216844 0
M  V30 18 C -3.881474 0.306882 -3.145815 0
M  V30 19 C -5.270688 0.292853 -3.769090 0
M  V30 20 N -5.468781 -0.743974 -4.724860 0
M  V30 21 C -5.473230 -2.071758 -4.213491 0
M  V30 22 C -4.636698 -2.952663 -5.089393 0
M  V30 23 C -4.198181 -2.073633 -6.212967 0
M  V30 24 C -4.681745 -0.673809 -5.911295 0
M  V30 25 C -2.543406 2.642387 -0.624618 0
M  V30 26 C -1.331230 2.738186 0.070869 0
M  V30 27 O -1.111009 3.794716 0.979789 0
M  V30 28 C -0.238582 1.902037 -0.001907 0
M  V30 29 C 0.926775 2.177279 0.804763 0
M  V30 30 O 1.345350 3.139990 0.069511 0
M  V30 31 O 1.545908 1.722528 1.941628 0
M  V30 32 C 2.764071 2.354549 2.334026 0 CFG=1
M  V30 33 C 2.670282 2.812409 3.730873 0
M  V30 34 H 5.953401 1.114773 2.426458 0
M  V30 35 H 5.501179 2.788932 1.799420 0
M  V30 36 H 5.141239 2.310796 3.511688 0
M  V30 37 H 3.712204 0.497435 2.787350 0
M  V30 38 H 4.066711 1.523059 -0.216622 0
M  V30 39 H 3.540547 -0.849993 -0.722430 0
M  V30 40 H 3.683527 -3.497573 0.558317 0
M  V30 41 H 3.225447 -4.060213 2.501721 0
M  V30 42 H 1.558512 -4.326344 0.912971 0
M  V30 43 H -0.007168 -3.337865 1.882084 0
M  V30 44 H 0.290885 -3.599561 -0.964867 0
M  V30 45 H 1.924857 -3.153401 -1.408136 0
M  V30 46 H -0.072825 -1.546624 -0.079620 0
M  V30 47 H 1.071253 0.281331 -1.989820 0
M  V30 48 H -1.625507 -0.141024 -2.292444 0
M  V30 49 H -4.614944 2.062013 -2.110478 0
M  V30 50 H -3.679386 -0.673991 -2.720015 0
M  V30 51 H -3.174157 0.563775 -3.974072 0
M  V30 52 H -5.446968 1.270999 -4.292853 0
M  V30 53 H -6.028493 0.184470 -2.961506 0
M  V30 54 H -5.098247 -2.112866 -3.167143 0
M  V30 55 H -6.526039 -2.479261 -4.227210 0
M  V30 56 H -3.781082 -3.392021 -4.516232 0
M  V30 57 H -5.223189 -3.837221 -5.479588 0
M  V30 58 H -4.570380 -2.440854 -7.194013 0
M  V30 59 H -3.096151 -2.030694 -6.283233 0
M  V30 60 H -5.320221 -0.342283 -6.774610 0
M  V30 61 H -3.858026 0.069003 -5.874765 0
M  V30 62 H -3.294687 3.389706 -0.439609 0
M  V30 63 H -1.118320 4.724835 0.545107 0
M  V30 64 H 2.951929 3.185415 1.642325 0
M  V30 65 H 1.680415 3.283318 3.931760 0
M  V30 66 H 2.725236 1.919786 4.398640 0
M  V30 67 H 3.499844 3.485931 4.044290 0
M  V30 END ATOM
M  V30 BEGIN BOND
M  V30 1 1 1 2
M  V30 2 1 2 3
M  V30 3 2 3 4
M  V30 4 1 4 5
M  V30 5 2 5 6
M  V30 6 1 5 7
M  V30 7 1 7 8
M  V30 8 1 7 9
M  V30 9 1 9 10
M  V30 10 1 9 11
M  V30 11 1 11 12
M  V30 12 2 12 13
M  V30 13 1 13 14
M  V30 14 2 14 15
M  V30 15 1 15 16
M  V30 16 1 16 17
M  V30 17 1 17 18
M  V30 18 1 18 19
M  V30 19 1 19 20
M  V30 20 1 20 21
M  V30 21 1 21 22
M  V30 22 1 22 23
M  V30 23 1 23 24
M  V30 24 2 16 25
M  V30 25 1 25 26
M  V30 26 1 26 27
M  V30 27 2 26 28
M  V30 28 1 28 29
M  V30 29 2 29 30
M  V30 30 1 29 31
M  V30 31 1 31 32
M  V30 32 1 32 33
M  V30 33 1 32 2
M  V30 34 1 28 14
M  V30 35 1 24 20
M  V30 36 1 1 34
M  V30 37 1 1 35
M  V30 38 1 1 36
M  V30 39 1 2 37 CFG=1
M  V30 40 1 3 38
M  V30 41 1 4 39
M  V30 42 1 7 40 CFG=3
M  V30 43 1 8 41
M  V30 44 1 9 42 CFG=3
M  V30 45 1 10 43
M  V30 46 1 11 44
M  V30 47 1 11 45
M  V30 48 1 12 46
M  V30 49 1 13 47
M  V30 50 1 15 48
M  V30 51 1 17 49
M  V30 52 1 18 50
M  V30 53 1 18 51
M  V30 54 1 19 52
M  V30 55 1 19 53
M  V30 56 1 21 54
M  V30 57 1 21 55
M  V30 58 1 22 56
M  V30 59 1 22 57
M  V30 60 1 23 58
M  V30 61 1 23 59
M  V30 62 1 24 60
M  V30 63 1 24 61
M  V30 64 1 25 62
M  V30 65 1 27 63
M  V30 66 1 32 64 CFG=3
M  V30 67 1 33 65
M  V30 68 1 33 66
M  V30 69 1 33 67
M  V30 END BOND
M  V30 END CTAB
M  END
>  <Dataset>  (383) 
ChEMBL_Kinases

>  <Ligand_Instance>  (383) 
nan

>  <PDB_ID>  (383) 
nan

>  <Standardized_SMILES>  (383) 
C[C@@H]1/C=C\C(=O)[C@@H](O)[C@@H](O)C/C=C/c2cc(NCCN3CCCC3)cc(O)c2C(=O)O[C@H]1C

>  <Name>  (383) 
nan

>  <Pocket>  (383) 
nan

>  <ATP_Site>  (383) 
nan

>  <Peripheral>  (383) 
nan

>  <Num_H_Atoms_ProtBoundConf>  (383) 
nan

>  <Num_Resolved_Atoms>  (383) 
nan

>  <Num_Not_Resolved_Atoms>  (383) 
nan

$$$$
CHEMBL3972853
     RDKit          3D

  0  0  0  0  0  0  0  0  0  0999 V3000
M  V30 BEGIN CTAB
M  V30 COUNTS 39 42 0 0 0
M  V30 BEGIN ATOM
M  V30 1 C -0.689244 -4.131182 0.897043 0
M  V30 2 C 0.532576 -3.362206 0.562001 0
M  V30 3 C 1.693890 -3.535587 1.228452 0
M  V30 4 C 2.869243 -2.739570 0.836232 0
M  V30 5 S 2.177635 -1.708905 -0.579734 0
M  V30 6 C 0.503359 -2.382086 -0.526115 0
M  V30 7 C -0.574952 -1.997483 -1.388531 0
M  V30 8 N -0.155090 -0.978076 -2.328020 0
M  V30 9 C 0.302832 0.167385 -1.958014 0
M  V30 10 C 0.754985 1.267921 -2.812128 0
M  V30 11 C 1.053586 2.354602 -1.820028 0
M  V30 12 O 1.404601 3.567257 -1.976534 0
M  V30 13 C 0.882700 1.826299 -0.475992 0
M  V30 14 C 1.068692 2.328950 0.740811 0
M  V30 15 C 0.848013 1.670222 2.023036 0
M  V30 16 C 1.777374 1.665633 3.037735 0
M  V30 17 N 1.225636 0.984586 4.055547 0
M  V30 18 C -0.016447 0.558106 3.727231 0
M  V30 19 N -0.949631 -0.154177 4.434934 0
M  V30 20 C -2.123441 -0.397171 3.770582 0
M  V30 21 C -2.406391 0.015810 2.489563 0
M  V30 22 C -1.466452 0.729627 1.786082 0
M  V30 23 C -0.279039 0.988775 2.424067 0
M  V30 24 O 0.433701 0.522156 -0.631119 0
M  V30 25 H -1.178560 -3.801697 1.829524 0
M  V30 26 H -1.450786 -4.014365 0.079206 0
M  V30 27 H -0.495497 -5.228215 0.926588 0
M  V30 28 H 1.851992 -4.216951 2.040248 0
M  V30 29 H 3.809126 -2.767273 1.256510 0
M  V30 30 H -1.475785 -1.746682 -0.815268 0
M  V30 31 H -0.865957 -2.872923 -2.031676 0
M  V30 32 H 0.002246 1.610003 -3.567769 0
M  V30 33 H 1.670159 1.021131 -3.403250 0
M  V30 34 H 1.424715 3.350599 0.768160 0
M  V30 35 H 2.773339 2.118758 3.038086 0
M  V30 36 H 1.633491 0.773858 4.996094 0
M  V30 37 H -2.902236 -0.956446 4.276869 0
M  V30 38 H -3.347911 -0.212131 2.036715 0
M  V30 39 H -1.729506 1.040643 0.798978 0
M  V30 END ATOM
M  V30 BEGIN BOND
M  V30 1 1 1 2
M  V30 2 1 2 3
M  V30 3 2 3 4
M  V30 4 1 4 5
M  V30 5 1 5 6
M  V30 6 1 6 7
M  V30 7 1 7 8
M  V30 8 2 8 9
M  V30 9 1 9 10
M  V30 10 1 10 11
M  V30 11 2 11 12
M  V30 12 1 11 13
M  V30 13 2 13 14
M  V30 14 1 14 15
M  V30 15 2 15 16
M  V30 16 1 16 17
M  V30 17 1 17 18
M  V30 18 2 18 19
M  V30 19 1 19 20
M  V30 20 2 20 21
M  V30 21 1 21 22
M  V30 22 2 22 23
M  V30 23 1 13 24
M  V30 24 2 6 2
M  V30 25 1 24 9
M  V30 26 1 23 15
M  V30 27 1 23 18
M  V30 28 1 1 25
M  V30 29 1 1 26
M  V30 30 1 1 27
M  V30 31 1 3 28
M  V30 32 1 4 29
M  V30 33 1 7 30
M  V30 34 1 7 31
M  V30 35 1 10 32
M  V30 36 1 10 33
M  V30 37 1 14 34
M  V30 38 1 16 35
M  V30 39 1 17 36
M  V30 40 1 20 37
M  V30 41 1 21 38
M  V30 42 1 22 39
M  V30 END BOND
M  V30 END CTAB
M  END
>  <Dataset>  (384) 
ChEMBL_Kinases

>  <Ligand_Instance>  (384) 
nan

>  <PDB_ID>  (384) 
nan

>  <Standardized_SMILES>  (384) 
Cc1ccsc1C/N=C1/CC(=O)/C(=C/c2c[nH]c3ncccc23)O1

>  <Name>  (384) 
nan

>  <Pocket>  (384) 
nan

>  <ATP_Site>  (384) 
nan

>  <Peripheral>  (384) 
nan

>  <Num_H_Atoms_ProtBoundConf>  (384) 
nan

>  <Num_Resolved_Atoms>  (384) 
nan

>  <Num_Not_Resolved_Atoms>  (384) 
nan

$$$$
CHEMBL3972822
     RDKit          3D

  0  0  0  0  0  0  0  0  0  0999 V3000
M  V30 BEGIN CTAB
M  V30 COUNTS 42 44 0 0 0
M  V30 BEGIN ATOM
M  V30 1 C 2.669179 -8.031157 -0.001578 0
M  V30 2 C 3.341886 -7.131518 -1.017019 0
M  V30 3 O 2.828450 -5.824681 -0.835855 0
M  V30 4 C 3.217683 -4.742043 -1.590853 0
M  V30 5 O 4.067893 -4.834564 -2.507974 0
M  V30 6 C 2.624972 -3.432562 -1.322379 0
M  V30 7 C 2.920580 -2.333589 -1.978236 0
M  V30 8 C 2.404425 -0.991702 -1.804481 0
M  V30 9 O 2.835932 -0.078634 -2.555991 0
M  V30 10 N 1.446291 -0.631643 -0.847092 0
M  V30 11 C 0.849296 0.619727 -0.556576 0
M  V30 12 C 1.092851 1.817228 -1.184352 0
M  V30 13 C 0.499530 3.022231 -0.884068 0
M  V30 14 C -0.425182 3.055122 0.134069 0
M  V30 15 C -0.703917 1.877884 0.794916 0
M  V30 16 C -1.679005 1.869519 1.881397 0
M  V30 17 N -2.619052 0.882546 1.946312 0
M  V30 18 N -3.400268 1.046752 2.988324 0
M  V30 19 C -2.987061 2.139114 3.620755 0
M  V30 20 C -3.389301 2.819368 4.755185 0
M  V30 21 C -2.755110 3.948857 5.176747 0
M  V30 22 C -1.667883 4.462577 4.471567 0
M  V30 23 C -1.213013 3.818871 3.314723 0
M  V30 24 C -1.904002 2.693130 2.960695 0
M  V30 25 C -0.080685 0.698887 0.453624 0
M  V30 26 H 1.629800 -7.720092 0.223036 0
M  V30 27 H 2.640732 -9.075516 -0.428070 0
M  V30 28 H 3.220134 -8.050561 0.969270 0
M  V30 29 H 4.429791 -7.167899 -0.794071 0
M  V30 30 H 3.141004 -7.547988 -2.015278 0
M  V30 31 H 1.879814 -3.313469 -0.529893 0
M  V30 32 H 3.673980 -2.524835 -2.758402 0
M  V30 33 H 1.145406 -1.452685 -0.268124 0
M  V30 34 H 1.807133 1.853181 -1.989105 0
M  V30 35 H 0.743803 3.925497 -1.424923 0
M  V30 36 H -0.927015 3.967851 0.419769 0
M  V30 37 H -4.201778 0.420618 3.259854 0
M  V30 38 H -4.250590 2.374704 5.275987 0
M  V30 39 H -3.126161 4.437132 6.083457 0
M  V30 40 H -1.179504 5.360701 4.824638 0
M  V30 41 H -0.383472 4.181765 2.747521 0
M  V30 42 H -0.352676 -0.200673 1.024186 0
M  V30 END ATOM
M  V30 BEGIN BOND
M  V30 1 1 1 2
M  V30 2 1 2 3
M  V30 3 1 3 4
M  V30 4 2 4 5
M  V30 5 1 4 6
M  V30 6 2 6 7
M  V30 7 1 7 8
M  V30 8 2 8 9
M  V30 9 1 8 10
M  V30 10 1 10 11
M  V30 11 2 11 12
M  V30 12 1 12 13
M  V30 13 2 13 14
M  V30 14 1 14 15
M  V30 15 1 15 16
M  V30 16 2 16 17
M  V30 17 1 17 18
M  V30 18 1 18 19
M  V30 19 2 19 20
M  V30 20 1 20 21
M  V30 21 2 21 22
M  V30 22 1 22 23
M  V30 23 2 23 24
M  V30 24 2 15 25
M  V30 25 1 25 11
M  V30 26 1 24 16
M  V30 27 1 24 19
M  V30 28 1 1 26
M  V30 29 1 1 27
M  V30 30 1 1 28
M  V30 31 1 2 29
M  V30 32 1 2 30
M  V30 33 1 6 31
M  V30 34 1 7 32
M  V30 35 1 10 33
M  V30 36 1 12 34
M  V30 37 1 13 35
M  V30 38 1 14 36
M  V30 39 1 18 37
M  V30 40 1 20 38
M  V30 41 1 21 39
M  V30 42 1 22 40
M  V30 43 1 23 41
M  V30 44 1 25 42
M  V30 END BOND
M  V30 END CTAB
M  END
>  <Dataset>  (385) 
ChEMBL_Kinases

>  <Ligand_Instance>  (385) 
nan

>  <PDB_ID>  (385) 
nan

>  <Standardized_SMILES>  (385) 
CCOC(=O)/C=C/C(=O)Nc1cccc(-c2n[nH]c3ccccc23)c1

>  <Name>  (385) 
nan

>  <Pocket>  (385) 
nan

>  <ATP_Site>  (385) 
nan

>  <Peripheral>  (385) 
nan

>  <Num_H_Atoms_ProtBoundConf>  (385) 
nan

>  <Num_Resolved_Atoms>  (385) 
nan

>  <Num_Not_Resolved_Atoms>  (385) 
nan

$$$$
CHEMBL3972710
     RDKit          3D

  0  0  0  0  0  0  0  0  0  0999 V3000
M  V30 BEGIN CTAB
M  V30 COUNTS 55 59 0 0 0
M  V30 BEGIN ATOM
M  V30 1 C 5.293293 2.910780 5.141265 0
M  V30 2 C 5.821270 1.601170 4.608445 0
M  V30 3 C 6.019744 0.679343 5.795167 0
M  V30 4 C 7.143339 1.764427 3.904233 0
M  V30 5 C 4.799600 0.971265 3.730114 0
M  V30 6 C 5.095664 -0.243339 3.141267 0
M  V30 7 C 4.180717 -0.885430 2.307616 0
M  V30 8 C 2.974159 -0.248296 2.103991 0
M  V30 9 N 1.887292 -0.564133 1.383470 0
M  V30 10 C 0.910489 0.340499 1.453332 0
M  V30 11 C -0.421099 0.501981 0.901605 0
M  V30 12 N -1.257574 1.551355 1.127248 0
M  V30 13 N -2.396593 1.405648 0.483943 0
M  V30 14 C -2.401825 0.268450 -0.205107 0
M  V30 15 C -3.342767 -0.318711 -1.018318 0
M  V30 16 C -3.065216 -1.509164 -1.601625 0
M  V30 17 C -4.009064 -2.195566 -2.476136 0
M  V30 18 O -3.731407 -3.301718 -3.008592 0
M  V30 19 N -5.284334 -1.701130 -2.799314 0
M  V30 20 C -5.962695 -2.617998 -3.683519 0
M  V30 21 C -5.908029 -2.593310 -5.069038 0
M  V30 22 C -6.598554 -3.520881 -5.797264 0
M  V30 23 C -7.365755 -4.503773 -5.194874 0
M  V30 24 O -8.066829 -5.445098 -5.921785 0
M  V30 25 C -7.399714 -4.501085 -3.800529 0
M  V30 26 C -6.705868 -3.567685 -3.028291 0
M  V30 27 C -1.842494 -2.101090 -1.362795 0
M  V30 28 C -0.921151 -1.486028 -0.542295 0
M  V30 29 C -1.182626 -0.275364 0.061051 0
M  V30 30 N 1.435488 1.273904 2.272723 0
M  V30 31 C 2.667165 0.961901 2.684851 0
M  V30 32 C 3.568229 1.603119 3.511205 0
M  V30 33 H 4.402863 2.713237 5.758536 0
M  V30 34 H 6.068299 3.318111 5.837832 0
M  V30 35 H 5.094573 3.656035 4.344441 0
M  V30 36 H 6.325397 -0.316883 5.429094 0
M  V30 37 H 6.658773 1.096958 6.579776 0
M  V30 38 H 5.001358 0.547625 6.264265 0
M  V30 39 H 7.933874 1.958837 4.656860 0
M  V30 40 H 7.406883 0.790528 3.443793 0
M  V30 41 H 7.147605 2.582527 3.164893 0
M  V30 42 H 6.046266 -0.742678 3.303282 0
M  V30 43 H 4.356517 -1.834140 1.820622 0
M  V30 44 H 1.833587 -1.425953 0.837054 0
M  V30 45 H -3.137005 2.144482 0.568958 0
M  V30 46 H -4.274437 0.184827 -1.168608 0
M  V30 47 H -5.593988 -0.776393 -2.392007 0
M  V30 48 H -5.298043 -1.810323 -5.503373 0
M  V30 49 H -6.552931 -3.497914 -6.883945 0
M  V30 50 H -8.294739 -6.324412 -5.492081 0
M  V30 51 H -8.007393 -5.279911 -3.332275 0
M  V30 52 H -6.821589 -3.683361 -1.973383 0
M  V30 53 H -1.623215 -3.050261 -1.828859 0
M  V30 54 H 0.015504 -1.984999 -0.386836 0
M  V30 55 H 3.324065 2.539082 3.957168 0
M  V30 END ATOM
M  V30 BEGIN BOND
M  V30 1 1 1 2
M  V30 2 1 2 3
M  V30 3 1 2 4
M  V30 4 1 2 5
M  V30 5 2 5 6
M  V30 6 1 6 7
M  V30 7 2 7 8
M  V30 8 1 8 9
M  V30 9 1 9 10
M  V30 10 1 10 11
M  V30 11 2 11 12
M  V30 12 1 12 13
M  V30 13 1 13 14
M  V30 14 2 14 15
M  V30 15 1 15 16
M  V30 16 1 16 17
M  V30 17 2 17 18
M  V30 18 1 17 19
M  V30 19 1 19 20
M  V30 20 2 20 21
M  V30 21 1 21 22
M  V30 22 2 22 23
M  V30 23 1 23 24
M  V30 24 1 23 25
M  V30 25 2 25 26
M  V30 26 2 16 27
M  V30 27 1 27 28
M  V30 28 2 28 29
M  V30 29 2 10 30
M  V30 30 1 30 31
M  V30 31 2 31 32
M  V30 32 1 32 5
M  V30 33 1 31 8
M  V30 34 1 29 11
M  V30 35 1 29 14
M  V30 36 1 26 20
M  V30 37 1 1 33
M  V30 38 1 1 34
M  V30 39 1 1 35
M  V30 40 1 3 36
M  V30 41 1 3 37
M  V30 42 1 3 38
M  V30 43 1 4 39
M  V30 44 1 4 40
M  V30 45 1 4 41
M  V30 46 1 6 42
M  V30 47 1 7 43
M  V30 48 1 9 44
M  V30 49 1 13 45
M  V30 50 1 15 46
M  V30 51 1 19 47
M  V30 52 1 21 48
M  V30 53 1 22 49
M  V30 54 1 24 50
M  V30 55 1 25 51
M  V30 56 1 26 52
M  V30 57 1 27 53
M  V30 58 1 28 54
M  V30 59 1 32 55
M  V30 END BOND
M  V30 END CTAB
M  END
>  <Dataset>  (386) 
ChEMBL_Kinases

>  <Ligand_Instance>  (386) 
nan

>  <PDB_ID>  (386) 
nan

>  <Standardized_SMILES>  (386) 
CC(C)(C)c1ccc2[nH]c(-c3n[nH]c4cc(C(=O)Nc5ccc(O)cc5)ccc34)nc2c1

>  <Name>  (386) 
nan

>  <Pocket>  (386) 
nan

>  <ATP_Site>  (386) 
nan

>  <Peripheral>  (386) 
nan

>  <Num_H_Atoms_ProtBoundConf>  (386) 
nan

>  <Num_Resolved_Atoms>  (386) 
nan

>  <Num_Not_Resolved_Atoms>  (386) 
nan

$$$$
CHEMBL4869307
     RDKit          3D

  0  0  0  0  0  0  0  0  0  0999 V3000
M  V30 BEGIN CTAB
M  V30 COUNTS 49 52 0 0 0
M  V30 BEGIN ATOM
M  V30 1 C -1.221398 -2.794568 5.479538 0
M  V30 2 C -1.095512 -2.209152 4.078315 0
M  V30 3 C -0.062220 -2.932988 3.290433 0
M  V30 4 C 0.147372 -2.501856 1.974498 0
M  V30 5 C 1.132747 -3.309857 1.437292 0
M  V30 6 N 1.681540 -3.262644 0.117518 0
M  V30 7 C 1.205091 -2.309734 -0.821062 0
M  V30 8 N 1.753694 -1.092166 -1.055916 0
M  V30 9 C 1.224630 -0.250698 -1.967284 0
M  V30 10 N 1.683541 1.038839 -2.327502 0
M  V30 11 C 1.067752 1.970979 -1.406688 0
M  V30 12 C 1.484408 1.739999 0.028908 0
M  V30 13 C 0.791635 2.740155 0.871274 0
M  V30 14 C 1.320329 3.980061 1.143694 0
M  V30 15 C 0.649983 4.882858 1.933514 0
M  V30 16 C -0.592697 4.581468 2.491843 0
M  V30 17 F -1.264698 5.459044 3.270741 0
M  V30 18 C -1.085576 3.310132 2.184762 0
M  V30 19 C -0.441842 2.388808 1.401487 0
M  V30 20 N 0.132049 -0.637388 -2.650280 0
M  V30 21 C -0.473789 -1.834067 -2.474682 0
M  V30 22 C -1.604030 -2.199948 -3.204223 0
M  V30 23 C -2.184460 -3.439282 -2.986828 0
M  V30 24 Cl -3.613992 -3.915676 -3.900166 0
M  V30 25 C -1.639954 -4.295875 -2.053730 0
M  V30 26 C -0.523423 -3.908830 -1.347602 0
M  V30 27 C 0.085571 -2.687203 -1.531588 0
M  V30 28 N 1.492931 -4.192808 2.413353 0
M  V30 29 N 0.778993 -3.958936 3.502129 0
M  V30 30 H -1.336686 -3.904102 5.323713 0
M  V30 31 H -0.334014 -2.552355 6.073046 0
M  V30 32 H -2.168436 -2.382021 5.933831 0
M  V30 33 H -2.117026 -2.282167 3.628310 0
M  V30 34 H -0.865644 -1.118611 4.122181 0
M  V30 35 H -0.296670 -1.720885 1.384672 0
M  V30 36 H 2.428902 -3.932183 -0.140952 0
M  V30 37 H 2.335523 1.034829 -3.141096 0
M  V30 38 H -0.040889 1.896872 -1.439542 0
M  V30 39 H 1.400759 3.002719 -1.665171 0
M  V30 40 H 2.580615 1.934930 0.144795 0
M  V30 41 H 1.268017 0.732599 0.397399 0
M  V30 42 H 2.271881 4.225401 0.723523 0
M  V30 43 H 1.072733 5.864346 2.146077 0
M  V30 44 H -2.045644 3.059010 2.609132 0
M  V30 45 H -0.905992 1.424118 1.219990 0
M  V30 46 H -2.004616 -1.501568 -3.927255 0
M  V30 47 H -2.084626 -5.278008 -1.867834 0
M  V30 48 H -0.116654 -4.593948 -0.626798 0
M  V30 49 H 0.722689 -4.375095 4.455829 0
M  V30 END ATOM
M  V30 BEGIN BOND
M  V30 1 1 1 2
M  V30 2 1 2 3
M  V30 3 2 3 4
M  V30 4 1 4 5
M  V30 5 1 5 6
M  V30 6 1 6 7
M  V30 7 2 7 8
M  V30 8 1 8 9
M  V30 9 1 9 10
M  V30 10 1 10 11
M  V30 11 1 11 12
M  V30 12 1 12 13
M  V30 13 2 13 14
M  V30 14 1 14 15
M  V30 15 2 15 16
M  V30 16 1 16 17
M  V30 17 1 16 18
M  V30 18 2 18 19
M  V30 19 2 9 20
M  V30 20 1 20 21
M  V30 21 2 21 22
M  V30 22 1 22 23
M  V30 23 1 23 24
M  V30 24 2 23 25
M  V30 25 1 25 26
M  V30 26 2 26 27
M  V30 27 2 5 28
M  V30 28 1 28 29
M  V30 29 1 29 3
M  V30 30 1 27 7
M  V30 31 1 19 13
M  V30 32 1 27 21
M  V30 33 1 1 30
M  V30 34 1 1 31
M  V30 35 1 1 32
M  V30 36 1 2 33
M  V30 37 1 2 34
M  V30 38 1 4 35
M  V30 39 1 6 36
M  V30 40 1 10 37
M  V30 41 1 11 38
M  V30 42 1 11 39
M  V30 43 1 12 40
M  V30 44 1 12 41
M  V30 45 1 14 42
M  V30 46 1 15 43
M  V30 47 1 18 44
M  V30 48 1 19 45
M  V30 49 1 22 46
M  V30 50 1 25 47
M  V30 51 1 26 48
M  V30 52 1 29 49
M  V30 END BOND
M  V30 END CTAB
M  END
>  <Dataset>  (387) 
ChEMBL_Kinases

>  <Ligand_Instance>  (387) 
nan

>  <PDB_ID>  (387) 
nan

>  <Standardized_SMILES>  (387) 
CCc1cc(Nc2nc(NCCc3ccc(F)cc3)nc3cc(Cl)ccc23)n[nH]1

>  <Name>  (387) 
nan

>  <Pocket>  (387) 
nan

>  <ATP_Site>  (387) 
nan

>  <Peripheral>  (387) 
nan

>  <Num_H_Atoms_ProtBoundConf>  (387) 
nan

>  <Num_Resolved_Atoms>  (387) 
nan

>  <Num_Not_Resolved_Atoms>  (387) 
nan

$$$$
CHEMBL397233
     RDKit          3D

  0  0  0  0  0  0  0  0  0  0999 V3000
M  V30 BEGIN CTAB
M  V30 COUNTS 54 58 0 0 0
M  V30 BEGIN ATOM
M  V30 1 C -0.043983 -2.879818 4.780551 0
M  V30 2 C 0.687667 -3.572128 3.642528 0 CFG=1
M  V30 3 C 0.831625 -2.693022 2.422895 0
M  V30 4 C 2.306025 -2.698551 2.001493 0
M  V30 5 C 3.028939 -1.942335 3.085740 0 CFG=1
M  V30 6 N 2.478408 -0.698548 3.352527 0
M  V30 7 C 2.558178 0.432903 2.573180 0
M  V30 8 C 2.079820 0.422083 1.175769 0
M  V30 9 C 2.841604 0.233161 0.012738 0
M  V30 10 C 2.260736 0.247695 -1.237041 0
M  V30 11 C 0.907752 0.447220 -1.415274 0
M  V30 12 C 0.100721 0.639617 -0.311238 0
M  V30 13 C 0.715669 0.618928 0.924422 0
M  V30 14 C -1.324862 0.838899 -0.680375 0
M  V30 15 C -1.259486 0.738979 -2.161303 0
M  V30 16 C -2.017078 0.786934 -3.313622 0
M  V30 17 C -3.451894 1.000692 -3.467476 0
M  V30 18 C -4.241266 0.279421 -2.597828 0
M  V30 19 C -5.608251 0.368003 -2.613594 0
M  V30 20 C -6.207906 1.208486 -3.532473 0
M  V30 21 F -7.552626 1.351887 -3.611945 0
M  V30 22 C -5.426945 1.941299 -4.414719 0
M  V30 23 C -4.041564 1.826735 -4.370547 0
M  V30 24 N -1.189012 0.594348 -4.366788 0
M  V30 25 N 0.057929 0.427059 -3.928057 0
M  V30 26 C 0.034772 0.512172 -2.583162 0
M  V30 27 C 2.986842 -2.882076 4.308927 0
M  V30 28 C 2.026665 -4.014275 4.136859 0
M  V30 29 H -0.318794 -1.837235 4.546741 0
M  V30 30 H 0.578371 -2.879411 5.716715 0
M  V30 31 H -1.010807 -3.397220 5.004329 0
M  V30 32 H 0.092187 -4.448395 3.305608 0
M  V30 33 H 0.223436 -3.031386 1.556830 0
M  V30 34 H 0.590433 -1.652719 2.715550 0
M  V30 35 H 2.359936 -2.307804 1.003006 0
M  V30 36 H 2.671926 -3.761388 1.937612 0
M  V30 37 H 4.141258 -1.901374 2.815115 0
M  V30 38 H 1.761685 -0.726693 4.094954 0
M  V30 39 H 3.585182 0.909000 2.544183 0
M  V30 40 H 1.920899 1.242322 3.072902 0
M  V30 41 H 3.895725 0.080595 0.199541 0
M  V30 42 H 2.916193 0.094163 -2.088263 0
M  V30 43 H 0.074188 0.772137 1.806975 0
M  V30 44 H -1.990388 0.088033 -0.231273 0
M  V30 45 H -1.581880 1.877460 -0.410517 0
M  V30 46 H -3.861899 -0.404936 -1.842852 0
M  V30 47 H -6.305962 -0.154911 -1.975329 0
M  V30 48 H -5.810693 2.617983 -5.160652 0
M  V30 49 H -3.355587 2.360467 -5.020343 0
M  V30 50 H 0.934240 0.256926 -4.487086 0
M  V30 51 H 2.585212 -2.258149 5.148891 0
M  V30 52 H 3.974519 -3.288905 4.556445 0
M  V30 53 H 1.845010 -4.407889 5.183262 0
M  V30 54 H 2.438087 -4.899894 3.604170 0
M  V30 END ATOM
M  V30 BEGIN BOND
M  V30 1 1 1 2
M  V30 2 1 2 3
M  V30 3 1 3 4
M  V30 4 1 4 5
M  V30 5 1 5 6
M  V30 6 1 6 7
M  V30 7 1 7 8
M  V30 8 2 8 9
M  V30 9 1 9 10
M  V30 10 2 10 11
M  V30 11 1 11 12
M  V30 12 2 12 13
M  V30 13 1 12 14
M  V30 14 1 14 15
M  V30 15 1 15 16
M  V30 16 1 16 17
M  V30 17 2 17 18
M  V30 18 1 18 19
M  V30 19 2 19 20
M  V30 20 1 20 21
M  V30 21 1 20 22
M  V30 22 2 22 23
M  V30 23 2 16 24
M  V30 24 1 24 25
M  V30 25 1 25 26
M  V30 26 1 5 27
M  V30 27 1 27 28
M  V30 28 1 28 2
M  V30 29 1 13 8
M  V30 30 2 26 15
M  V30 31 1 26 11
M  V30 32 1 23 17
M  V30 33 1 1 29
M  V30 34 1 1 30
M  V30 35 1 1 31
M  V30 36 1 2 32 CFG=3
M  V30 37 1 3 33
M  V30 38 1 3 34
M  V30 39 1 4 35
M  V30 40 1 4 36
M  V30 41 1 5 37 CFG=3
M  V30 42 1 6 38
M  V30 43 1 7 39
M  V30 44 1 7 40
M  V30 45 1 9 41
M  V30 46 1 10 42
M  V30 47 1 13 43
M  V30 48 1 14 44
M  V30 49 1 14 45
M  V30 50 1 18 46
M  V30 51 1 19 47
M  V30 52 1 22 48
M  V30 53 1 23 49
M  V30 54 1 25 50
M  V30 55 1 27 51
M  V30 56 1 27 52
M  V30 57 1 28 53
M  V30 58 1 28 54
M  V30 END BOND
M  V30 END CTAB
M  END
>  <Dataset>  (388) 
ChEMBL_Kinases

>  <Ligand_Instance>  (388) 
nan

>  <PDB_ID>  (388) 
nan

>  <Standardized_SMILES>  (388) 
C[C@H]1CC[C@@H](NCc2ccc3c(c2)Cc2c(-c4ccc(F)cc4)n[nH]c2-3)CC1

>  <Name>  (388) 
nan

>  <Pocket>  (388) 
nan

>  <ATP_Site>  (388) 
nan

>  <Peripheral>  (388) 
nan

>  <Num_H_Atoms_ProtBoundConf>  (388) 
nan

>  <Num_Resolved_Atoms>  (388) 
nan

>  <Num_Not_Resolved_Atoms>  (388) 
nan

$$$$
CHEMBL397209
     RDKit          3D

  0  0  0  0  0  0  0  0  0  0999 V3000
M  V30 BEGIN CTAB
M  V30 COUNTS 22 22 0 0 0
M  V30 BEGIN ATOM
M  V30 1 C 0.544359 2.966498 0.495696 0
M  V30 2 P 1.530433 1.610443 1.116130 0
M  V30 3 O 2.780888 1.497871 0.239620 0
M  V30 4 O 2.095391 2.026772 2.671916 0
M  V30 5 C 0.626008 0.072609 1.139710 0
M  V30 6 C 1.366416 -0.985923 1.428378 0
M  V30 7 C 0.590030 -2.282919 1.445534 0
M  V30 8 N -0.356345 -2.362521 0.388351 0
M  V30 9 C -1.235203 -1.275382 0.207610 0
M  V30 10 C -0.829461 0.013379 0.856691 0
M  V30 11 H -0.203481 2.614793 -0.216592 0
M  V30 12 H 0.123917 3.606120 1.311274 0
M  V30 13 H 1.195257 3.677069 -0.092715 0
M  V30 14 H 2.858350 1.429519 2.853028 0
M  V30 15 H 2.435330 -0.956461 1.638134 0
M  V30 16 H 0.206031 -2.519055 2.451055 0
M  V30 17 H 1.356248 -3.066256 1.234421 0
M  V30 18 H -0.059437 -2.864673 -0.463765 0
M  V30 19 H -2.263774 -1.590818 0.551212 0
M  V30 20 H -1.338195 -1.077703 -0.880823 0
M  V30 21 H -1.163313 0.890034 0.298943 0
M  V30 22 H -1.372923 0.069023 1.842450 0
M  V30 END ATOM
M  V30 BEGIN BOND
M  V30 1 1 1 2
M  V30 2 2 2 3
M  V30 3 1 2 4
M  V30 4 1 2 5
M  V30 5 2 5 6
M  V30 6 1 6 7
M  V30 7 1 7 8
M  V30 8 1 8 9
M  V30 9 1 9 10
M  V30 10 1 10 5
M  V30 11 1 1 11
M  V30 12 1 1 12
M  V30 13 1 1 13
M  V30 14 1 4 14
M  V30 15 1 6 15
M  V30 16 1 7 16
M  V30 17 1 7 17
M  V30 18 1 8 18
M  V30 19 1 9 19
M  V30 20 1 9 20
M  V30 21 1 10 21
M  V30 22 1 10 22
M  V30 END BOND
M  V30 END CTAB
M  END
>  <Dataset>  (389) 
ChEMBL_Kinases

>  <Ligand_Instance>  (389) 
nan

>  <PDB_ID>  (389) 
nan

>  <Standardized_SMILES>  (389) 
CP(=O)(O)C1=CCNCC1

>  <Name>  (389) 
nan

>  <Pocket>  (389) 
nan

>  <ATP_Site>  (389) 
nan

>  <Peripheral>  (389) 
nan

>  <Num_H_Atoms_ProtBoundConf>  (389) 
nan

>  <Num_Resolved_Atoms>  (389) 
nan

>  <Num_Not_Resolved_Atoms>  (389) 
nan

$$$$
CHEMBL3971843
     RDKit          3D

  0  0  0  0  0  0  0  0  0  0999 V3000
M  V30 BEGIN CTAB
M  V30 COUNTS 44 47 0 0 0
M  V30 BEGIN ATOM
M  V30 1 N -1.701263 -7.683712 -0.921157 0
M  V30 2 C -0.330389 -7.721653 -0.537651 0
M  V30 3 O 0.261028 -8.817261 -0.368371 0
M  V30 4 C 0.400552 -6.471619 -0.337677 0
M  V30 5 C 1.732114 -6.519247 0.034659 0
M  V30 6 C 2.448353 -5.348643 0.230805 0
M  V30 7 C 1.858059 -4.103376 0.061518 0
M  V30 8 N 2.256345 -2.806939 0.168363 0
M  V30 9 C 1.197806 -2.031674 -0.130174 0
M  V30 10 C 1.194044 -0.571808 -0.136260 0
M  V30 11 C 2.325642 0.152717 0.177523 0
M  V30 12 C 2.279722 1.553718 0.159941 0
M  V30 13 C 1.095181 2.224512 -0.173365 0
M  V30 14 S 1.353778 3.952423 -0.111732 0
M  V30 15 O 0.274687 4.568425 -0.995982 0
M  V30 16 O 2.654317 4.350277 -0.702874 0
M  V30 17 N 1.101938 4.568092 1.455283 0
M  V30 18 C -0.063574 4.555934 2.222994 0
M  V30 19 C -1.313523 4.212602 1.752458 0
M  V30 20 C -2.488747 4.191613 2.474184 0
M  V30 21 C -2.416387 4.548483 3.800640 0
M  V30 22 Cl -3.829442 4.563996 4.825595 0
M  V30 23 C -1.213151 4.900120 4.334515 0
M  V30 24 C -0.063663 4.907403 3.577746 0
M  V30 25 Cl 1.433948 5.376780 4.364381 0
M  V30 26 C -0.025136 1.483129 -0.484104 0
M  V30 27 C 0.036663 0.106786 -0.462088 0
M  V30 28 N 0.179059 -2.829443 -0.412160 0
M  V30 29 C 0.525004 -4.129407 -0.310981 0
M  V30 30 C -0.238751 -5.260114 -0.520545 0
M  V30 31 H -1.664598 -7.362212 -1.911979 0
M  V30 32 H -2.163775 -8.000971 -0.026016 0
M  V30 33 H 2.206885 -7.493133 0.170719 0
M  V30 34 H 3.504970 -5.368913 0.526201 0
M  V30 35 H 3.222518 -2.516704 0.437406 0
M  V30 36 H 3.200912 -0.425142 0.424086 0
M  V30 37 H 3.244728 1.972330 0.428203 0
M  V30 38 H 1.956179 5.021822 1.900362 0
M  V30 39 H -1.424059 3.927743 0.715673 0
M  V30 40 H -3.426601 3.913937 2.044154 0
M  V30 41 H -1.160486 5.182083 5.385388 0
M  V30 42 H -0.854879 2.123575 -0.721381 0
M  V30 43 H -0.893334 -0.381010 -0.720337 0
M  V30 44 H -1.274790 -5.186339 -0.810373 0
M  V30 END ATOM
M  V30 BEGIN BOND
M  V30 1 1 1 2
M  V30 2 2 2 3
M  V30 3 1 2 4
M  V30 4 2 4 5
M  V30 5 1 5 6
M  V30 6 2 6 7
M  V30 7 1 7 8
M  V30 8 1 8 9
M  V30 9 1 9 10
M  V30 10 2 10 11
M  V30 11 1 11 12
M  V30 12 2 12 13
M  V30 13 1 13 14
M  V30 14 2 14 15
M  V30 15 2 14 16
M  V30 16 1 14 17
M  V30 17 1 17 18
M  V30 18 2 18 19
M  V30 19 1 19 20
M  V30 20 2 20 21
M  V30 21 1 21 22
M  V30 22 1 21 23
M  V30 23 2 23 24
M  V30 24 1 24 25
M  V30 25 1 13 26
M  V30 26 2 26 27
M  V30 27 2 9 28
M  V30 28 1 28 29
M  V30 29 2 29 30
M  V30 30 1 30 4
M  V30 31 1 29 7
M  V30 32 1 27 10
M  V30 33 1 24 18
M  V30 34 1 1 31
M  V30 35 1 1 32
M  V30 36 1 5 33
M  V30 37 1 6 34
M  V30 38 1 8 35
M  V30 39 1 11 36
M  V30 40 1 12 37
M  V30 41 1 17 38
M  V30 42 1 19 39
M  V30 43 1 20 40
M  V30 44 1 23 41
M  V30 45 1 26 42
M  V30 46 1 27 43
M  V30 47 1 30 44
M  V30 END BOND
M  V30 END CTAB
M  END
>  <Dataset>  (390) 
ChEMBL_Kinases

>  <Ligand_Instance>  (390) 
nan

>  <PDB_ID>  (390) 
nan

>  <Standardized_SMILES>  (390) 
NC(=O)c1ccc2[nH]c(-c3ccc(S(=O)(=O)Nc4ccc(Cl)cc4Cl)cc3)nc2c1

>  <Name>  (390) 
nan

>  <Pocket>  (390) 
nan

>  <ATP_Site>  (390) 
nan

>  <Peripheral>  (390) 
nan

>  <Num_H_Atoms_ProtBoundConf>  (390) 
nan

>  <Num_Resolved_Atoms>  (390) 
nan

>  <Num_Not_Resolved_Atoms>  (390) 
nan

$$$$
CHEMBL4869354
     RDKit          3D

  0  0  0  0  0  0  0  0  0  0999 V3000
M  V30 BEGIN CTAB
M  V30 COUNTS 48 52 0 0 0
M  V30 BEGIN ATOM
M  V30 1 O -1.173151 -2.177854 0.317990 0
M  V30 2 C -2.029338 -2.549680 1.183293 0
M  V30 3 N -1.731194 -2.153607 2.499028 0
M  V30 4 C -0.494013 -1.411339 2.492151 0
M  V30 5 C 0.571716 -2.258549 2.670021 0
M  V30 6 C 1.869181 -1.736142 2.694457 0
M  V30 7 C 2.008987 -0.371179 2.535291 0
M  V30 8 C 0.938653 0.475721 2.357143 0
M  V30 9 C 1.048115 1.919118 2.186167 0
M  V30 10 N 0.336774 2.920046 2.751850 0
M  V30 11 N 0.761080 4.102380 2.320895 0
M  V30 12 C 1.771456 3.928395 1.451824 0
M  V30 13 C 2.518972 4.870114 0.752579 0
M  V30 14 C 3.489771 4.356812 -0.064261 0
M  V30 15 C 3.752947 3.018437 -0.222664 0
M  V30 16 C 4.792860 2.485428 -1.098543 0
M  V30 17 N 5.634914 3.196587 -1.867811 0
M  V30 18 N 6.445348 2.364628 -2.528514 0
M  V30 19 C 6.125280 1.104683 -2.184113 0
M  V30 20 N 5.102131 1.193825 -1.299490 0
M  V30 21 C 2.967857 2.151984 0.505283 0
M  V30 22 C 1.966883 2.566039 1.353570 0
M  V30 23 C -0.344627 -0.060646 2.335407 0
M  V30 24 C -3.184611 -3.317824 0.734779 0
M  V30 25 C -3.251418 -3.580673 -0.617962 0
M  V30 26 C -4.359656 -4.318654 -1.054595 0
M  V30 27 C -5.336873 -4.759265 -0.163239 0
M  V30 28 C -6.435738 -5.524819 -0.801478 0
M  V30 29 F -7.241362 -6.152007 0.130659 0
M  V30 30 F -5.979569 -6.485261 -1.686805 0
M  V30 31 F -7.254250 -4.682466 -1.554688 0
M  V30 32 C -5.208240 -4.461069 1.178484 0
M  V30 33 C -4.129113 -3.735364 1.646828 0
M  V30 34 H -2.430755 -2.451543 3.241518 0
M  V30 35 H 0.553191 -3.331016 2.801346 0
M  V30 36 H 2.751776 -2.343605 2.830123 0
M  V30 37 H 3.010088 0.057859 2.550935 0
M  V30 38 H 0.329251 5.000563 2.649026 0
M  V30 39 H 2.333523 5.927832 0.858166 0
M  V30 40 H 4.115406 5.050835 -0.644551 0
M  V30 41 H 6.592340 0.174295 -2.541192 0
M  V30 42 H 4.635774 0.384919 -0.851635 0
M  V30 43 H 3.161762 1.095685 0.392261 0
M  V30 44 H -1.260357 0.491361 2.204330 0
M  V30 45 H -2.518677 -3.258230 -1.334485 0
M  V30 46 H -4.402377 -4.520656 -2.125683 0
M  V30 47 H -6.001190 -4.833612 1.810613 0
M  V30 48 H -4.075503 -3.529699 2.700416 0
M  V30 END ATOM
M  V30 BEGIN BOND
M  V30 1 2 1 2
M  V30 2 1 2 3
M  V30 3 1 3 4
M  V30 4 2 4 5
M  V30 5 1 5 6
M  V30 6 2 6 7
M  V30 7 1 7 8
M  V30 8 1 8 9
M  V30 9 2 9 10
M  V30 10 1 10 11
M  V30 11 1 11 12
M  V30 12 2 12 13
M  V30 13 1 13 14
M  V30 14 2 14 15
M  V30 15 1 15 16
M  V30 16 2 16 17
M  V30 17 1 17 18
M  V30 18 2 18 19
M  V30 19 1 19 20
M  V30 20 1 15 21
M  V30 21 2 21 22
M  V30 22 2 8 23
M  V30 23 1 2 24
M  V30 24 2 24 25
M  V30 25 1 25 26
M  V30 26 2 26 27
M  V30 27 1 27 28
M  V30 28 1 28 29
M  V30 29 1 28 30
M  V30 30 1 28 31
M  V30 31 1 27 32
M  V30 32 2 32 33
M  V30 33 1 23 4
M  V30 34 1 33 24
M  V30 35 1 22 9
M  V30 36 1 22 12
M  V30 37 1 20 16
M  V30 38 1 3 34
M  V30 39 1 5 35
M  V30 40 1 6 36
M  V30 41 1 7 37
M  V30 42 1 11 38
M  V30 43 1 13 39
M  V30 44 1 14 40
M  V30 45 1 19 41
M  V30 46 1 20 42
M  V30 47 1 21 43
M  V30 48 1 23 44
M  V30 49 1 25 45
M  V30 50 1 26 46
M  V30 51 1 32 47
M  V30 52 1 33 48
M  V30 END BOND
M  V30 END CTAB
M  END
>  <Dataset>  (391) 
ChEMBL_Kinases

>  <Ligand_Instance>  (391) 
nan

>  <PDB_ID>  (391) 
nan

>  <Standardized_SMILES>  (391) 
O=C(Nc1cccc(-c2n[nH]c3ccc(-c4nnc[nH]4)cc23)c1)c1ccc(C(F)(F)F)cc1

>  <Name>  (391) 
nan

>  <Pocket>  (391) 
nan

>  <ATP_Site>  (391) 
nan

>  <Peripheral>  (391) 
nan

>  <Num_H_Atoms_ProtBoundConf>  (391) 
nan

>  <Num_Resolved_Atoms>  (391) 
nan

>  <Num_Not_Resolved_Atoms>  (391) 
nan

$$$$
CHEMBL3971801
     RDKit          3D

  0  0  0  0  0  0  0  0  0  0999 V3000
M  V30 BEGIN CTAB
M  V30 COUNTS 47 50 0 0 0
M  V30 BEGIN ATOM
M  V30 1 C 3.383136 -7.622719 3.475795 0
M  V30 2 C 4.322278 -7.067183 2.410127 0
M  V30 3 C 3.627238 -5.983239 1.704142 0
M  V30 4 C 3.706139 -4.684629 2.131031 0
M  V30 5 C 3.048047 -3.696088 1.449548 0
M  V30 6 C 2.278198 -3.874929 0.328299 0
M  V30 7 C 1.526891 -2.913828 -0.443825 0
M  V30 8 O 1.302798 -3.304755 -1.648262 0
M  V30 9 C 0.968319 -1.615510 -0.158338 0
M  V30 10 C 1.321922 -0.652383 0.755501 0
M  V30 11 C 0.690031 0.546354 0.976158 0
M  V30 12 C -0.416773 0.835797 0.212875 0
M  V30 13 C -1.118140 2.099049 0.406823 0
M  V30 14 N -2.217653 2.517945 -0.255887 0
M  V30 15 C -2.590526 3.735758 0.183290 0
M  V30 16 C -3.652323 4.523860 -0.221018 0
M  V30 17 C -3.765953 5.729248 0.425816 0
M  V30 18 C -4.843473 6.659154 0.095987 0
M  V30 19 N -5.776392 6.305908 -0.903260 0
M  V30 20 O -5.123324 7.808451 0.569747 0
M  V30 21 C -2.907072 6.168879 1.415944 0
M  V30 22 C -1.864796 5.339305 1.778654 0
M  V30 23 C -1.674133 4.095659 1.172699 0
M  V30 24 N -0.814257 3.085304 1.269558 0
M  V30 25 C -0.870666 -0.049406 -0.738187 0
M  V30 26 C -0.168355 -1.221186 -0.881030 0
M  V30 27 C 2.243462 -5.216979 -0.046351 0
M  V30 28 C 2.875034 -6.240945 0.588778 0
M  V30 29 H 3.936959 -8.069468 4.309447 0
M  V30 30 H 2.777756 -6.773754 3.892059 0
M  V30 31 H 2.733756 -8.361370 2.962578 0
M  V30 32 H 5.287199 -6.729259 2.880471 0
M  V30 33 H 4.581214 -7.896982 1.741631 0
M  V30 34 H 4.302090 -4.487037 3.010555 0
M  V30 35 H 3.178174 -2.730317 1.856808 0
M  V30 36 H 2.173610 -0.817562 1.364220 0
M  V30 37 H 1.044657 1.240989 1.721936 0
M  V30 38 H -4.342377 4.212111 -0.991207 0
M  V30 39 H -6.391038 5.989622 -1.665978 0
M  V30 40 H -6.109265 5.789911 -1.747252 0
M  V30 41 H -3.070569 7.124377 1.865765 0
M  V30 42 H -1.162901 5.629155 2.544117 0
M  V30 43 H -0.015739 3.109374 1.954387 0
M  V30 44 H -1.734335 0.191719 -1.325258 0
M  V30 45 H -0.584735 -1.876718 -1.652524 0
M  V30 46 H 1.674085 -5.528036 -0.918076 0
M  V30 47 H 2.821886 -7.267917 0.263304 0
M  V30 END ATOM
M  V30 BEGIN BOND
M  V30 1 1 1 2
M  V30 2 1 2 3
M  V30 3 2 3 4
M  V30 4 1 4 5
M  V30 5 2 5 6
M  V30 6 1 6 7
M  V30 7 2 7 8
M  V30 8 1 7 9
M  V30 9 2 9 10
M  V30 10 1 10 11
M  V30 11 2 11 12
M  V30 12 1 12 13
M  V30 13 2 13 14
M  V30 14 1 14 15
M  V30 15 2 15 16
M  V30 16 1 16 17
M  V30 17 1 17 18
M  V30 18 1 18 19
M  V30 19 2 18 20
M  V30 20 2 17 21
M  V30 21 1 21 22
M  V30 22 2 22 23
M  V30 23 1 23 24
M  V30 24 1 12 25
M  V30 25 2 25 26
M  V30 26 1 6 27
M  V30 27 2 27 28
M  V30 28 1 28 3
M  V30 29 1 26 9
M  V30 30 1 24 13
M  V30 31 1 23 15
M  V30 32 1 1 29
M  V30 33 1 1 30
M  V30 34 1 1 31
M  V30 35 1 2 32
M  V30 36 1 2 33
M  V30 37 1 4 34
M  V30 38 1 5 35
M  V30 39 1 10 36
M  V30 40 1 11 37
M  V30 41 1 16 38
M  V30 42 1 19 39
M  V30 43 1 19 40
M  V30 44 1 21 41
M  V30 45 1 22 42
M  V30 46 1 24 43
M  V30 47 1 25 44
M  V30 48 1 26 45
M  V30 49 1 27 46
M  V30 50 1 28 47
M  V30 END BOND
M  V30 END CTAB
M  END
>  <Dataset>  (392) 
ChEMBL_Kinases

>  <Ligand_Instance>  (392) 
nan

>  <PDB_ID>  (392) 
nan

>  <Standardized_SMILES>  (392) 
CCc1ccc(C(=O)c2ccc(-c3nc4cc(C(N)=O)ccc4[nH]3)cc2)cc1

>  <Name>  (392) 
nan

>  <Pocket>  (392) 
nan

>  <ATP_Site>  (392) 
nan

>  <Peripheral>  (392) 
nan

>  <Num_H_Atoms_ProtBoundConf>  (392) 
nan

>  <Num_Resolved_Atoms>  (392) 
nan

>  <Num_Not_Resolved_Atoms>  (392) 
nan

$$$$
CHEMBL3971197
     RDKit          3D

  0  0  0  0  0  0  0  0  0  0999 V3000
M  V30 BEGIN CTAB
M  V30 COUNTS 71 75 0 0 0
M  V30 BEGIN ATOM
M  V30 1 C 2.795951 0.988959 2.755306 0
M  V30 2 C 2.532835 0.379875 1.430589 0 CFG=1
M  V30 3 C 2.261694 -1.106313 1.606779 0
M  V30 4 N 1.892953 -1.762049 0.435161 0
M  V30 5 C 2.472482 -2.998470 0.178189 0
M  V30 6 C 2.153084 -4.187064 0.984798 0
M  V30 7 C 2.474276 -4.095974 2.453062 0
M  V30 8 C 2.155040 -5.418887 3.128658 0
M  V30 9 O 2.715744 -6.513333 2.522318 0
M  V30 10 C 2.400056 -6.610305 1.169608 0
M  V30 11 C 2.958754 -5.387120 0.456454 0
M  V30 12 C 1.213521 -1.064849 -0.576233 0
M  V30 13 C 1.597698 0.369589 -0.708342 0
M  V30 14 N 1.488386 0.976967 0.631061 0
M  V30 15 C 0.532540 1.935202 1.083013 0
M  V30 16 O 0.759325 2.240353 2.280274 0
M  V30 17 N -0.592311 2.587430 0.459302 0
M  V30 18 C -1.311618 2.672490 -0.794915 0
M  V30 19 C -2.736917 2.385809 -0.432381 0
M  V30 20 C -3.982814 1.862299 -0.695065 0
M  V30 21 N -4.221717 1.204875 -1.941241 0
M  V30 22 C -3.905848 -0.179747 -1.847739 0
M  V30 23 O -3.479397 -0.643790 -0.758446 0
M  V30 24 C -4.085802 -1.045056 -3.034673 0
M  V30 25 C -4.558527 -0.673427 -4.277926 0
M  V30 26 N -4.556645 -1.767759 -5.056968 0
M  V30 27 C -4.087092 -2.794679 -4.293139 0
M  V30 28 N -3.793774 -2.356654 -3.041467 0
M  V30 29 C -3.275514 -3.178388 -1.980084 0
M  V30 30 N -4.801195 2.085155 0.343779 0
M  V30 31 N -4.091907 2.736421 1.249476 0
M  V30 32 C -2.822671 2.939019 0.811499 0
M  V30 33 C -1.471257 3.520994 1.143904 0
M  V30 34 C -1.322088 3.487938 2.654056 0
M  V30 35 C -1.426709 4.913698 0.608353 0
M  V30 36 H 3.733882 0.531485 3.215072 0
M  V30 37 H 1.998228 0.766274 3.487124 0
M  V30 38 H 2.981123 2.076699 2.761648 0
M  V30 39 H 3.493024 0.478187 0.839346 0
M  V30 40 H 3.165457 -1.546867 2.048762 0
M  V30 41 H 1.466874 -1.135894 2.402421 0
M  V30 42 H 2.284017 -3.258209 -0.908064 0
M  V30 43 H 3.600929 -2.868518 0.228074 0
M  V30 44 H 1.098236 -4.530704 0.906513 0
M  V30 45 H 1.920829 -3.344749 3.011904 0
M  V30 46 H 3.590670 -4.008258 2.520935 0
M  V30 47 H 1.060276 -5.485925 3.299684 0
M  V30 48 H 2.621288 -5.338967 4.146222 0
M  V30 49 H 2.874877 -7.539310 0.813732 0
M  V30 50 H 1.324638 -6.663947 0.972253 0
M  V30 51 H 4.005024 -5.279996 0.829072 0
M  V30 52 H 2.888627 -5.487510 -0.625061 0
M  V30 53 H 0.111130 -1.138307 -0.603912 0
M  V30 54 H 1.537476 -1.539634 -1.557508 0
M  V30 55 H 2.687750 0.491602 -0.996112 0
M  V30 56 H 1.054271 0.914038 -1.475732 0
M  V30 57 H -0.960558 2.012236 -1.585620 0
M  V30 58 H -1.292402 3.752672 -1.109896 0
M  V30 59 H -4.575538 1.588179 -2.850144 0
M  V30 60 H -4.844030 0.359176 -4.451671 0
M  V30 61 H -3.984782 -3.812532 -4.691493 0
M  V30 62 H -3.411145 -4.257600 -2.199864 0
M  V30 63 H -3.693839 -2.954462 -0.991122 0
M  V30 64 H -2.170819 -2.967992 -1.912515 0
M  V30 65 H -4.488197 3.037210 2.162411 0
M  V30 66 H -1.367845 2.473620 3.082742 0
M  V30 67 H -0.444077 4.051514 3.008996 0
M  V30 68 H -2.237074 4.045592 3.031759 0
M  V30 69 H -1.520293 5.603012 1.496604 0
M  V30 70 H -0.486465 5.170931 0.074174 0
M  V30 71 H -2.264823 5.174316 -0.058155 0
M  V30 END ATOM
M  V30 BEGIN BOND
M  V30 1 1 1 2
M  V30 2 1 2 3
M  V30 3 1 3 4
M  V30 4 1 4 5
M  V30 5 1 5 6
M  V30 6 1 6 7
M  V30 7 1 7 8
M  V30 8 1 8 9
M  V30 9 1 9 10
M  V30 10 1 10 11
M  V30 11 1 4 12
M  V30 12 1 12 13
M  V30 13 1 13 14
M  V30 14 1 14 15
M  V30 15 2 15 16
M  V30 16 1 15 17
M  V30 17 1 17 18
M  V30 18 1 18 19
M  V30 19 1 19 20
M  V30 20 1 20 21
M  V30 21 1 21 22
M  V30 22 2 22 23
M  V30 23 1 22 24
M  V30 24 2 24 25
M  V30 25 1 25 26
M  V30 26 2 26 27
M  V30 27 1 27 28
M  V30 28 1 28 29
M  V30 29 2 20 30
M  V30 30 1 30 31
M  V30 31 1 31 32
M  V30 32 1 32 33
M  V30 33 1 33 34
M  V30 34 1 33 35
M  V30 35 1 14 2
M  V30 36 1 33 17
M  V30 37 1 11 6
M  V30 38 2 32 19
M  V30 39 1 28 24
M  V30 40 1 1 36
M  V30 41 1 1 37
M  V30 42 1 1 38
M  V30 43 1 2 39 CFG=3
M  V30 44 1 3 40
M  V30 45 1 3 41
M  V30 46 1 5 42
M  V30 47 1 5 43
M  V30 48 1 6 44
M  V30 49 1 7 45
M  V30 50 1 7 46
M  V30 51 1 8 47
M  V30 52 1 8 48
M  V30 53 1 10 49
M  V30 54 1 10 50
M  V30 55 1 11 51
M  V30 56 1 11 52
M  V30 57 1 12 53
M  V30 58 1 12 54
M  V30 59 1 13 55
M  V30 60 1 13 56
M  V30 61 1 18 57
M  V30 62 1 18 58
M  V30 63 1 21 59
M  V30 64 1 25 60
M  V30 65 1 27 61
M  V30 66 1 29 62
M  V30 67 1 29 63
M  V30 68 1 29 64
M  V30 69 1 31 65
M  V30 70 1 34 66
M  V30 71 1 34 67
M  V30 72 1 34 68
M  V30 73 1 35 69
M  V30 74 1 35 70
M  V30 75 1 35 71
M  V30 END BOND
M  V30 END CTAB
M  END
>  <Dataset>  (393) 
ChEMBL_Kinases

>  <Ligand_Instance>  (393) 
nan

>  <PDB_ID>  (393) 
nan

>  <Standardized_SMILES>  (393) 
C[C@H]1CN(CC2CCOCC2)CCN1C(=O)N1Cc2c(NC(=O)c3cncn3C)n[nH]c2C1(C)C

>  <Name>  (393) 
nan

>  <Pocket>  (393) 
nan

>  <ATP_Site>  (393) 
nan

>  <Peripheral>  (393) 
nan

>  <Num_H_Atoms_ProtBoundConf>  (393) 
nan

>  <Num_Resolved_Atoms>  (393) 
nan

>  <Num_Not_Resolved_Atoms>  (393) 
nan

$$$$
CHEMBL3973311
     RDKit          3D

  0  0  0  0  0  0  0  0  0  0999 V3000
M  V30 BEGIN CTAB
M  V30 COUNTS 57 61 0 0 0
M  V30 BEGIN ATOM
M  V30 1 N 7.621761 -5.949649 0.784303 0
M  V30 2 C 6.446249 -5.460360 0.148209 0
M  V30 3 O 5.886834 -6.237336 -0.667384 0
M  V30 4 C 5.933450 -4.126736 0.439648 0
M  V30 5 C 6.559027 -3.278613 1.341813 0
M  V30 6 C 6.097499 -2.014917 1.636203 0
M  V30 7 C 4.949555 -1.582086 0.991347 0
M  V30 8 N 4.237279 -0.434788 1.037573 0
M  V30 9 C 3.197877 -0.559156 0.191295 0
M  V30 10 C 2.212918 0.499209 -0.013282 0
M  V30 11 C 2.355500 1.676242 0.692812 0
M  V30 12 C 1.418866 2.696329 0.504909 0
M  V30 13 C 0.339523 2.572804 -0.372222 0
M  V30 14 S -0.804923 3.894831 -0.563260 0
M  V30 15 O -1.334154 3.979640 -1.947504 0
M  V30 16 O -0.090282 5.168341 -0.231837 0
M  V30 17 N -2.079027 3.665638 0.607490 0
M  V30 18 C -2.886863 2.496624 0.550643 0
M  V30 19 C -3.404435 2.026165 -0.637205 0
M  V30 20 C -4.185271 0.889495 -0.662236 0
M  V30 21 C -4.495723 0.164868 0.456932 0
M  V30 22 N -5.300937 -1.000191 0.418656 0
M  V30 23 C -5.929802 -1.528544 -0.771555 0
M  V30 24 C -5.303583 -2.907878 -1.012436 0
M  V30 25 O -5.768645 -3.709228 0.023738 0
M  V30 26 C -5.331458 -3.292174 1.262651 0
M  V30 27 C -5.611544 -1.834532 1.558675 0
M  V30 28 C -3.962361 0.665051 1.617508 0
M  V30 29 C -3.178497 1.797328 1.678880 0
M  V30 30 C 0.235782 1.378098 -1.058028 0
M  V30 31 C 1.153104 0.355412 -0.886003 0
M  V30 32 N 3.245912 -1.770676 -0.387962 0
M  V30 33 C 4.336390 -2.434438 0.096382 0
M  V30 34 C 4.790130 -3.699514 -0.204554 0
M  V30 35 H 7.875309 -6.187475 1.786527 0
M  V30 36 H 8.553578 -6.191778 0.336537 0
M  V30 37 H 7.466059 -3.671932 1.825237 0
M  V30 38 H 6.607371 -1.373844 2.346026 0
M  V30 39 H 4.512628 0.376848 1.657439 0
M  V30 40 H 3.152102 1.878940 1.396902 0
M  V30 41 H 1.487082 3.647198 1.039821 0
M  V30 42 H -2.315201 4.338542 1.382845 0
M  V30 43 H -3.168783 2.588169 -1.536362 0
M  V30 44 H -4.534810 0.614023 -1.645338 0
M  V30 45 H -5.864680 -0.895660 -1.656156 0
M  V30 46 H -7.009073 -1.765550 -0.551119 0
M  V30 47 H -5.738226 -3.299756 -1.945877 0
M  V30 48 H -4.220353 -2.865919 -1.115285 0
M  V30 49 H -5.854800 -3.891736 2.032367 0
M  V30 50 H -4.228302 -3.421781 1.386468 0
M  V30 51 H -6.713813 -1.707600 1.770493 0
M  V30 52 H -5.070299 -1.582848 2.477078 0
M  V30 53 H -4.127582 0.193552 2.574166 0
M  V30 54 H -2.768930 2.172781 2.606560 0
M  V30 55 H -0.601701 1.294820 -1.732164 0
M  V30 56 H 1.035715 -0.563227 -1.441833 0
M  V30 57 H 4.238572 -4.304775 -0.927446 0
M  V30 END ATOM
M  V30 BEGIN BOND
M  V30 1 1 1 2
M  V30 2 2 2 3
M  V30 3 1 2 4
M  V30 4 2 4 5
M  V30 5 1 5 6
M  V30 6 2 6 7
M  V30 7 1 7 8
M  V30 8 1 8 9
M  V30 9 1 9 10
M  V30 10 2 10 11
M  V30 11 1 11 12
M  V30 12 2 12 13
M  V30 13 1 13 14
M  V30 14 2 14 15
M  V30 15 2 14 16
M  V30 16 1 14 17
M  V30 17 1 17 18
M  V30 18 2 18 19
M  V30 19 1 19 20
M  V30 20 2 20 21
M  V30 21 1 21 22
M  V30 22 1 22 23
M  V30 23 1 23 24
M  V30 24 1 24 25
M  V30 25 1 25 26
M  V30 26 1 26 27
M  V30 27 1 21 28
M  V30 28 2 28 29
M  V30 29 1 13 30
M  V30 30 2 30 31
M  V30 31 2 9 32
M  V30 32 1 32 33
M  V30 33 2 33 34
M  V30 34 1 34 4
M  V30 35 1 33 7
M  V30 36 1 31 10
M  V30 37 1 29 18
M  V30 38 1 27 22
M  V30 39 1 1 35
M  V30 40 1 1 36
M  V30 41 1 5 37
M  V30 42 1 6 38
M  V30 43 1 8 39
M  V30 44 1 11 40
M  V30 45 1 12 41
M  V30 46 1 17 42
M  V30 47 1 19 43
M  V30 48 1 20 44
M  V30 49 1 23 45
M  V30 50 1 23 46
M  V30 51 1 24 47
M  V30 52 1 24 48
M  V30 53 1 26 49
M  V30 54 1 26 50
M  V30 55 1 27 51
M  V30 56 1 27 52
M  V30 57 1 28 53
M  V30 58 1 29 54
M  V30 59 1 30 55
M  V30 60 1 31 56
M  V30 61 1 34 57
M  V30 END BOND
M  V30 END CTAB
M  END
>  <Dataset>  (394) 
ChEMBL_Kinases

>  <Ligand_Instance>  (394) 
nan

>  <PDB_ID>  (394) 
nan

>  <Standardized_SMILES>  (394) 
NC(=O)c1ccc2[nH]c(-c3ccc(S(=O)(=O)Nc4ccc(N5CCOCC5)cc4)cc3)nc2c1

>  <Name>  (394) 
nan

>  <Pocket>  (394) 
nan

>  <ATP_Site>  (394) 
nan

>  <Peripheral>  (394) 
nan

>  <Num_H_Atoms_ProtBoundConf>  (394) 
nan

>  <Num_Resolved_Atoms>  (394) 
nan

>  <Num_Not_Resolved_Atoms>  (394) 
nan

$$$$
CHEMBL3976175
     RDKit          3D

  0  0  0  0  0  0  0  0  0  0999 V3000
M  V30 BEGIN CTAB
M  V30 COUNTS 44 48 0 0 0
M  V30 BEGIN ATOM
M  V30 1 O -1.889591 -1.041453 6.113140 0
M  V30 2 C -1.203417 -1.609175 5.197695 0
M  V30 3 C -0.448091 -2.908311 5.110196 0
M  V30 4 O 0.834375 -2.670078 4.534807 0
M  V30 5 C 0.987626 -1.991412 3.334973 0
M  V30 6 C 2.037963 -2.183151 2.454464 0
M  V30 7 C 2.093987 -1.453083 1.284801 0
M  V30 8 C 1.067123 -0.535975 1.038902 0
M  V30 9 C 1.127701 0.253045 -0.220571 0
M  V30 10 O 2.251470 -0.079428 -0.975537 0
M  V30 11 C 1.243596 1.678634 0.150109 0
M  V30 12 C 2.143347 2.447900 0.856841 0
M  V30 13 C 1.979700 3.805228 1.052299 0
M  V30 14 C 0.860144 4.452057 0.520040 0
M  V30 15 C -0.060435 3.712870 -0.192953 0
M  V30 16 C 0.155181 2.359135 -0.356583 0
M  V30 17 C -0.702015 1.443395 -1.080875 0
M  V30 18 O -1.782894 1.526034 -1.715997 0
M  V30 19 N -0.085911 0.168779 -0.994712 0
M  V30 20 C -0.335894 -1.152154 -1.466631 0
M  V30 21 C -1.039101 -2.209542 -0.935738 0
M  V30 22 C -1.105860 -3.387469 -1.630353 0
M  V30 23 C -0.503084 -3.565564 -2.835562 0
M  V30 24 Cl -0.694067 -5.137057 -3.579601 0
M  V30 25 C 0.206806 -2.527749 -3.392308 0
M  V30 26 Cl 0.956894 -2.823779 -4.943416 0
M  V30 27 C 0.293134 -1.311026 -2.705847 0
M  V30 28 C 0.007378 -0.322127 1.896363 0
M  V30 29 C -0.018548 -1.070875 3.060988 0
M  V30 30 N -1.119757 -0.859420 3.967786 0
M  V30 31 H -1.012040 -3.542431 4.385497 0
M  V30 32 H -0.339312 -3.328958 6.107593 0
M  V30 33 H 2.787017 -2.919240 2.735301 0
M  V30 34 H 2.916544 -1.620588 0.621318 0
M  V30 35 H 3.083764 0.073132 -0.502270 0
M  V30 36 H 3.016948 1.968686 1.277550 0
M  V30 37 H 2.716225 4.390255 1.620884 0
M  V30 38 H 0.765878 5.512337 0.693289 0
M  V30 39 H -0.919647 4.232380 -0.596182 0
M  V30 40 H -1.467422 -1.944345 0.014445 0
M  V30 41 H -1.681826 -4.152858 -1.125392 0
M  V30 42 H 0.880859 -0.594274 -3.265962 0
M  V30 43 H -0.756932 0.385719 1.674498 0
M  V30 44 H -1.849929 -0.138881 3.690296 0
M  V30 END ATOM
M  V30 BEGIN BOND
M  V30 1 2 1 2
M  V30 2 1 2 3
M  V30 3 1 3 4
M  V30 4 1 4 5
M  V30 5 2 5 6
M  V30 6 1 6 7
M  V30 7 2 7 8
M  V30 8 1 8 9
M  V30 9 1 9 10
M  V30 10 1 9 11
M  V30 11 2 11 12
M  V30 12 1 12 13
M  V30 13 2 13 14
M  V30 14 1 14 15
M  V30 15 2 15 16
M  V30 16 1 16 17
M  V30 17 2 17 18
M  V30 18 1 17 19
M  V30 19 1 19 20
M  V30 20 2 20 21
M  V30 21 1 21 22
M  V30 22 2 22 23
M  V30 23 1 23 24
M  V30 24 1 23 25
M  V30 25 1 25 26
M  V30 26 2 25 27
M  V30 27 1 8 28
M  V30 28 2 28 29
M  V30 29 1 29 30
M  V30 30 1 30 2
M  V30 31 1 29 5
M  V30 32 1 19 9
M  V30 33 1 27 20
M  V30 34 1 16 11
M  V30 35 1 3 31
M  V30 36 1 3 32
M  V30 37 1 6 33
M  V30 38 1 7 34
M  V30 39 1 10 35
M  V30 40 1 12 36
M  V30 41 1 13 37
M  V30 42 1 14 38
M  V30 43 1 15 39
M  V30 44 1 21 40
M  V30 45 1 22 41
M  V30 46 1 27 42
M  V30 47 1 28 43
M  V30 48 1 30 44
M  V30 END BOND
M  V30 END CTAB
M  END
>  <Dataset>  (395) 
ChEMBL_Kinases

>  <Ligand_Instance>  (395) 
nan

>  <PDB_ID>  (395) 
nan

>  <Standardized_SMILES>  (395) 
O=C1COc2ccc(C3(O)c4ccccc4C(=O)N3c3ccc(Cl)c(Cl)c3)cc2N1

>  <Name>  (395) 
nan

>  <Pocket>  (395) 
nan

>  <ATP_Site>  (395) 
nan

>  <Peripheral>  (395) 
nan

>  <Num_H_Atoms_ProtBoundConf>  (395) 
nan

>  <Num_Resolved_Atoms>  (395) 
nan

>  <Num_Not_Resolved_Atoms>  (395) 
nan

$$$$
CHEMBL3976013
     RDKit          3D

  0  0  0  0  0  0  0  0  0  0999 V3000
M  V30 BEGIN CTAB
M  V30 COUNTS 75 80 0 0 0
M  V30 BEGIN ATOM
M  V30 1 C 5.310267 -1.331411 2.433112 0
M  V30 2 C 4.075873 -2.210469 2.574016 0
M  V30 3 C 4.142351 -2.604908 4.101060 0
M  V30 4 C 4.155475 -3.507369 1.880809 0
M  V30 5 N 4.352720 -3.532824 0.475249 0
M  V30 6 C 4.515894 -4.892251 -0.033338 0
M  V30 7 C 3.228928 -5.633362 -0.186830 0
M  V30 8 C 2.352726 -4.980742 -1.238738 0
M  V30 9 C 2.992601 -3.651341 -1.592369 0
M  V30 10 C 3.325419 -2.898233 -0.317926 0
M  V30 11 C 2.866242 -1.419348 2.482137 0
M  V30 12 O 1.915352 -1.497018 3.333761 0
M  V30 13 N 2.362926 -0.452235 1.608489 0
M  V30 14 C 1.178153 0.317976 1.519798 0
M  V30 15 N 0.916814 1.537979 2.052441 0
M  V30 16 C -0.348911 1.878510 1.703826 0
M  V30 17 C -1.139359 2.978673 1.953520 0
M  V30 18 C -2.424227 3.096984 1.480538 0
M  V30 19 C -2.967341 2.075046 0.716458 0
M  V30 20 C -4.302235 1.958679 0.104323 0
M  V30 21 O -5.005968 3.118688 0.430418 0
M  V30 22 C -5.035060 0.756606 0.601361 0
M  V30 23 C -5.342052 0.423418 1.904773 0
M  V30 24 C -6.026849 -0.726432 2.279995 0
M  V30 25 C -6.415734 -1.576135 1.268090 0
M  V30 26 C -6.115863 -1.255604 -0.037489 0
M  V30 27 C -5.435226 -0.109845 -0.394015 0
M  V30 28 C -4.974665 0.518352 -1.619781 0
M  V30 29 O -5.190082 -0.041698 -2.748078 0
M  V30 30 N -4.303929 1.759831 -1.316888 0
M  V30 31 C -3.782028 2.550365 -2.407562 0
M  V30 32 C -2.393042 2.231524 -2.778312 0
M  V30 33 C -1.310783 2.894202 -2.188221 0
M  V30 34 C -0.022617 2.610970 -2.520336 0
M  V30 35 C 0.303121 1.668078 -3.445153 0
M  V30 36 C -0.743925 0.986380 -4.055206 0
M  V30 37 C -2.051864 1.277104 -3.714936 0
M  V30 38 C -2.178050 0.948930 0.452636 0
M  V30 39 C -0.870546 0.836226 0.938068 0
M  V30 40 N 0.079949 -0.112795 0.835318 0
M  V30 41 H 6.228403 -1.882242 2.690091 0
M  V30 42 H 5.186562 -0.533260 3.208715 0
M  V30 43 H 5.357413 -0.812602 1.473537 0
M  V30 44 H 4.180664 -1.671460 4.698778 0
M  V30 45 H 3.190290 -3.116727 4.337354 0
M  V30 46 H 4.970963 -3.295063 4.255109 0
M  V30 47 H 3.238702 -4.092818 2.134952 0
M  V30 48 H 5.037864 -4.062923 2.328692 0
M  V30 49 H 5.209833 -5.474896 0.604064 0
M  V30 50 H 5.007356 -4.799366 -1.020761 0
M  V30 51 H 2.669516 -5.613033 0.769333 0
M  V30 52 H 3.438233 -6.654734 -0.515757 0
M  V30 53 H 2.248196 -5.614847 -2.130823 0
M  V30 54 H 1.342360 -4.776912 -0.849062 0
M  V30 55 H 2.154000 -3.055200 -2.058589 0
M  V30 56 H 3.837332 -3.730851 -2.288542 0
M  V30 57 H 3.756382 -1.932778 -0.645370 0
M  V30 58 H 2.380945 -2.835542 0.238421 0
M  V30 59 H 3.038433 -0.266245 0.840855 0
M  V30 60 H -0.762414 3.793270 2.539322 0
M  V30 61 H -3.104373 3.907352 1.623830 0
M  V30 62 H -5.011549 3.168766 1.427845 0
M  V30 63 H -5.051024 1.070436 2.732919 0
M  V30 64 H -6.239133 -0.932113 3.332846 0
M  V30 65 H -6.947661 -2.482282 1.481923 0
M  V30 66 H -6.400628 -1.892698 -0.869758 0
M  V30 67 H -3.800389 3.644267 -2.167926 0
M  V30 68 H -4.405788 2.462039 -3.335667 0
M  V30 69 H -1.573849 3.643229 -1.453257 0
M  V30 70 H 0.727736 3.197132 -1.988635 0
M  V30 71 H 1.362667 1.539714 -3.617388 0
M  V30 72 H -0.455321 0.241380 -4.787356 0
M  V30 73 H -2.836717 0.736558 -4.200686 0
M  V30 74 H -2.493914 0.074011 -0.139320 0
M  V30 75 H -0.019429 -1.021176 0.316136 0
M  V30 END ATOM
M  V30 BEGIN BOND
M  V30 1 1 1 2
M  V30 2 1 2 3
M  V30 3 1 2 4
M  V30 4 1 4 5
M  V30 5 1 5 6
M  V30 6 1 6 7
M  V30 7 1 7 8
M  V30 8 1 8 9
M  V30 9 1 9 10
M  V30 10 1 2 11
M  V30 11 2 11 12
M  V30 12 1 11 13
M  V30 13 1 13 14
M  V30 14 2 14 15
M  V30 15 1 15 16
M  V30 16 2 16 17
M  V30 17 1 17 18
M  V30 18 2 18 19
M  V30 19 1 19 20
M  V30 20 1 20 21
M  V30 21 1 20 22
M  V30 22 2 22 23
M  V30 23 1 23 24
M  V30 24 2 24 25
M  V30 25 1 25 26
M  V30 26 2 26 27
M  V30 27 1 27 28
M  V30 28 2 28 29
M  V30 29 1 28 30
M  V30 30 1 30 31
M  V30 31 1 31 32
M  V30 32 2 32 33
M  V30 33 1 33 34
M  V30 34 2 34 35
M  V30 35 1 35 36
M  V30 36 2 36 37
M  V30 37 1 19 38
M  V30 38 2 38 39
M  V30 39 1 39 40
M  V30 40 1 10 5
M  V30 41 1 40 14
M  V30 42 1 39 16
M  V30 43 1 30 20
M  V30 44 1 37 32
M  V30 45 1 27 22
M  V30 46 1 1 41
M  V30 47 1 1 42
M  V30 48 1 1 43
M  V30 49 1 3 44
M  V30 50 1 3 45
M  V30 51 1 3 46
M  V30 52 1 4 47
M  V30 53 1 4 48
M  V30 54 1 6 49
M  V30 55 1 6 50
M  V30 56 1 7 51
M  V30 57 1 7 52
M  V30 58 1 8 53
M  V30 59 1 8 54
M  V30 60 1 9 55
M  V30 61 1 9 56
M  V30 62 1 10 57
M  V30 63 1 10 58
M  V30 64 1 13 59
M  V30 65 1 17 60
M  V30 66 1 18 61
M  V30 67 1 21 62
M  V30 68 1 23 63
M  V30 69 1 24 64
M  V30 70 1 25 65
M  V30 71 1 26 66
M  V30 72 1 31 67
M  V30 73 1 31 68
M  V30 74 1 33 69
M  V30 75 1 34 70
M  V30 76 1 35 71
M  V30 77 1 36 72
M  V30 78 1 37 73
M  V30 79 1 38 74
M  V30 80 1 40 75
M  V30 END BOND
M  V30 END CTAB
M  END
>  <Dataset>  (396) 
ChEMBL_Kinases

>  <Ligand_Instance>  (396) 
nan

>  <PDB_ID>  (396) 
nan

>  <Standardized_SMILES>  (396) 
CC(C)(CN1CCCCC1)C(=O)Nc1nc2ccc(C3(O)c4ccccc4C(=O)N3Cc3ccccc3)cc2[nH]1

>  <Name>  (396) 
nan

>  <Pocket>  (396) 
nan

>  <ATP_Site>  (396) 
nan

>  <Peripheral>  (396) 
nan

>  <Num_H_Atoms_ProtBoundConf>  (396) 
nan

>  <Num_Resolved_Atoms>  (396) 
nan

>  <Num_Not_Resolved_Atoms>  (396) 
nan

$$$$
CHEMBL397591
     RDKit          3D

  0  0  0  0  0  0  0  0  0  0999 V3000
M  V30 BEGIN CTAB
M  V30 COUNTS 30 31 0 0 0
M  V30 BEGIN ATOM
M  V30 1 N -3.720924 -4.499259 3.268471 0
M  V30 2 C -2.706729 -3.532120 3.017335 0
M  V30 3 N -2.240940 -2.677208 3.957312 0
M  V30 4 C -1.281122 -1.890060 3.390357 0
M  V30 5 C -1.223335 -2.331336 2.100637 0
M  V30 6 C -0.311759 -1.755493 1.120896 0
M  V30 7 C -0.208309 -2.136760 -0.137930 0
M  V30 8 C 0.619031 -1.715471 -1.292381 0
M  V30 9 N 1.514114 -0.613730 -1.003186 0
M  V30 10 C 0.956422 0.636456 -0.614070 0
M  V30 11 O -0.285377 0.911852 -0.490522 0
M  V30 12 C 1.900484 1.733076 -0.321210 0
M  V30 13 C 3.278247 1.705572 -0.375871 0
M  V30 14 C 3.828242 2.906957 -0.038722 0
M  V30 15 Br 5.665833 3.396736 0.044264 0
M  V30 16 C 2.739643 3.709085 0.235532 0
M  V30 17 Br 2.798184 5.550781 0.778867 0
M  V30 18 N 1.620484 2.992985 0.061286 0
M  V30 19 N -2.075382 -3.332541 1.826848 0
M  V30 20 H -3.743521 -5.500919 2.978999 0
M  V30 21 H -4.596399 -4.244922 3.813167 0
M  V30 22 H -0.699046 -1.101978 3.844880 0
M  V30 23 H 0.385929 -0.957918 1.326425 0
M  V30 24 H -0.868843 -2.960177 -0.462410 0
M  V30 25 H -0.116812 -1.375836 -2.083645 0
M  V30 26 H 1.150255 -2.568663 -1.757817 0
M  V30 27 H 2.550897 -0.708324 -1.071180 0
M  V30 28 H 3.839474 0.821040 -0.656715 0
M  V30 29 H 0.650509 3.353626 0.200826 0
M  V30 30 H -2.216374 -3.832591 0.922460 0
M  V30 END ATOM
M  V30 BEGIN BOND
M  V30 1 1 1 2
M  V30 2 2 2 3
M  V30 3 1 3 4
M  V30 4 2 4 5
M  V30 5 1 5 6
M  V30 6 2 6 7
M  V30 7 1 7 8
M  V30 8 1 8 9
M  V30 9 1 9 10
M  V30 10 2 10 11
M  V30 11 1 10 12
M  V30 12 2 12 13
M  V30 13 1 13 14
M  V30 14 1 14 15
M  V30 15 2 14 16
M  V30 16 1 16 17
M  V30 17 1 16 18
M  V30 18 1 5 19
M  V30 19 1 19 2
M  V30 20 1 18 12
M  V30 21 1 1 20
M  V30 22 1 1 21
M  V30 23 1 4 22
M  V30 24 1 6 23
M  V30 25 1 7 24
M  V30 26 1 8 25
M  V30 27 1 8 26
M  V30 28 1 9 27
M  V30 29 1 13 28
M  V30 30 1 18 29
M  V30 31 1 19 30
M  V30 END BOND
M  V30 END CTAB
M  END
>  <Dataset>  (397) 
ChEMBL_Kinases

>  <Ligand_Instance>  (397) 
nan

>  <PDB_ID>  (397) 
nan

>  <Standardized_SMILES>  (397) 
Nc1ncc(/C=C/CNC(=O)c2cc(Br)c(Br)[nH]2)[nH]1

>  <Name>  (397) 
OROIDIN

>  <Pocket>  (397) 
nan

>  <ATP_Site>  (397) 
nan

>  <Peripheral>  (397) 
nan

>  <Num_H_Atoms_ProtBoundConf>  (397) 
nan

>  <Num_Resolved_Atoms>  (397) 
nan

>  <Num_Not_Resolved_Atoms>  (397) 
nan

$$$$
CHEMBL3975740
     RDKit          3D

  0  0  0  0  0  0  0  0  0  0999 V3000
M  V30 BEGIN CTAB
M  V30 COUNTS 60 63 0 0 0
M  V30 BEGIN ATOM
M  V30 1 C 3.336903 2.086568 5.465639 0
M  V30 2 C 1.851014 2.052040 5.544582 0
M  V30 3 C 1.404932 3.086509 6.573509 0
M  V30 4 C 1.418565 0.695565 6.058526 0
M  V30 5 O 1.232639 2.346822 4.303086 0
M  V30 6 C -0.125471 2.365964 4.195088 0
M  V30 7 O -0.960180 2.143361 5.108292 0
M  V30 8 N -0.845872 2.652169 2.984496 0
M  V30 9 C -2.269146 2.606225 3.160640 0
M  V30 10 C -3.103792 3.078783 2.035888 0
M  V30 11 C -2.499858 3.050363 0.681478 0
M  V30 12 C -1.126401 2.422666 0.623841 0
M  V30 13 O -1.167467 1.032858 0.577865 0
M  V30 14 C -0.863447 0.187821 -0.443357 0
M  V30 15 C -1.057402 -1.129488 -0.000144 0
M  V30 16 C -0.825123 -2.228507 -0.836884 0
M  V30 17 C -0.388189 -2.016672 -2.150417 0
M  V30 18 C -0.142305 -3.132617 -3.055992 0
M  V30 19 N -0.304598 -4.425795 -2.686832 0
M  V30 20 C -0.015075 -5.233672 -3.713269 0
M  V30 21 C -0.070622 -6.609137 -3.714328 0
M  V30 22 C 0.268515 -7.270187 -4.902990 0
M  V30 23 C 0.249059 -8.754269 -5.030400 0
M  V30 24 N -0.028586 -9.417877 -3.776627 0
M  V30 25 O 0.471765 -9.224248 -6.177602 0
M  V30 26 C 0.636707 -6.469023 -5.991383 0
M  V30 27 C 0.683774 -5.094297 -5.961744 0
M  V30 28 C 0.348329 -4.455215 -4.789265 0
M  V30 29 N 0.254605 -3.179832 -4.336514 0
M  V30 30 C -0.203832 -0.713375 -2.564238 0
M  V30 31 C -0.431880 0.370098 -1.741741 0
M  V30 32 C -0.226829 2.954777 1.715753 0
M  V30 33 H 3.643980 2.145170 4.391052 0
M  V30 34 H 3.819487 2.968909 5.939409 0
M  V30 35 H 3.749914 1.144234 5.857999 0
M  V30 36 H 0.418532 2.887320 6.997638 0
M  V30 37 H 2.144291 3.070302 7.409257 0
M  V30 38 H 1.394138 4.110721 6.126922 0
M  V30 39 H 0.360133 0.648231 6.301310 0
M  V30 40 H 1.737581 -0.048284 5.305810 0
M  V30 41 H 1.975240 0.436248 6.991343 0
M  V30 42 H -2.494734 1.521670 3.385014 0
M  V30 43 H -2.505530 3.144282 4.102658 0
M  V30 44 H -4.053288 2.484028 2.016347 0
M  V30 45 H -3.447030 4.110410 2.279364 0
M  V30 46 H -2.410208 4.086817 0.277058 0
M  V30 47 H -3.133451 2.497694 -0.040754 0
M  V30 48 H -0.691988 2.766596 -0.334683 0
M  V30 49 H -1.392437 -1.474853 0.987789 0
M  V30 50 H -0.961115 -3.258119 -0.541369 0
M  V30 51 H -0.356006 -7.212416 -2.865885 0
M  V30 52 H 0.965293 -9.409231 -3.448261 0
M  V30 53 H -1.034754 -9.452598 -4.056639 0
M  V30 54 H 0.909136 -6.925956 -6.933461 0
M  V30 55 H 0.962152 -4.482503 -6.784101 0
M  V30 56 H 0.463953 -2.344667 -4.908160 0
M  V30 57 H 0.138231 -0.469149 -3.579606 0
M  V30 58 H -0.320315 1.411952 -1.962808 0
M  V30 59 H 0.761200 2.464541 1.618257 0
M  V30 60 H -0.186461 4.055311 1.578413 0
M  V30 END ATOM
M  V30 BEGIN BOND
M  V30 1 1 1 2
M  V30 2 1 2 3
M  V30 3 1 2 4
M  V30 4 1 2 5
M  V30 5 1 5 6
M  V30 6 2 6 7
M  V30 7 1 6 8
M  V30 8 1 8 9
M  V30 9 1 9 10
M  V30 10 1 10 11
M  V30 11 1 11 12
M  V30 12 1 12 13
M  V30 13 1 13 14
M  V30 14 2 14 15
M  V30 15 1 15 16
M  V30 16 2 16 17
M  V30 17 1 17 18
M  V30 18 2 18 19
M  V30 19 1 19 20
M  V30 20 2 20 21
M  V30 21 1 21 22
M  V30 22 1 22 23
M  V30 23 1 23 24
M  V30 24 2 23 25
M  V30 25 2 22 26
M  V30 26 1 26 27
M  V30 27 2 27 28
M  V30 28 1 28 29
M  V30 29 1 17 30
M  V30 30 2 30 31
M  V30 31 1 12 32
M  V30 32 1 32 8
M  V30 33 1 31 14
M  V30 34 1 29 18
M  V30 35 1 28 20
M  V30 36 1 1 33
M  V30 37 1 1 34
M  V30 38 1 1 35
M  V30 39 1 3 36
M  V30 40 1 3 37
M  V30 41 1 3 38
M  V30 42 1 4 39
M  V30 43 1 4 40
M  V30 44 1 4 41
M  V30 45 1 9 42
M  V30 46 1 9 43
M  V30 47 1 10 44
M  V30 48 1 10 45
M  V30 49 1 11 46
M  V30 50 1 11 47
M  V30 51 1 12 48
M  V30 52 1 15 49
M  V30 53 1 16 50
M  V30 54 1 21 51
M  V30 55 1 24 52
M  V30 56 1 24 53
M  V30 57 1 26 54
M  V30 58 1 27 55
M  V30 59 1 29 56
M  V30 60 1 30 57
M  V30 61 1 31 58
M  V30 62 1 32 59
M  V30 63 1 32 60
M  V30 END BOND
M  V30 END CTAB
M  END
>  <Dataset>  (398) 
ChEMBL_Kinases

>  <Ligand_Instance>  (398) 
nan

>  <PDB_ID>  (398) 
nan

>  <Standardized_SMILES>  (398) 
CC(C)(C)OC(=O)N1CCCC(Oc2ccc(-c3nc4cc(C(N)=O)ccc4[nH]3)cc2)C1

>  <Name>  (398) 
nan

>  <Pocket>  (398) 
nan

>  <ATP_Site>  (398) 
nan

>  <Peripheral>  (398) 
nan

>  <Num_H_Atoms_ProtBoundConf>  (398) 
nan

>  <Num_Resolved_Atoms>  (398) 
nan

>  <Num_Not_Resolved_Atoms>  (398) 
nan

$$$$
CHEMBL3975705
     RDKit          3D

  0  0  0  0  0  0  0  0  0  0999 V3000
M  V30 BEGIN CTAB
M  V30 COUNTS 41 44 0 0 0
M  V30 BEGIN ATOM
M  V30 1 O -0.807799 -4.365524 -0.517029 0
M  V30 2 C 0.433285 -4.037274 -0.596485 0
M  V30 3 C 1.374468 -5.081095 -0.922564 0
M  V30 4 C 2.667315 -5.000754 -1.380992 0
M  V30 5 C 3.470018 -6.088235 -1.645063 0
M  V30 6 C 2.956522 -7.337006 -1.440186 0
M  V30 7 C 1.677904 -7.501897 -0.984806 0
M  V30 8 C 0.928388 -6.380238 -0.740832 0
M  V30 9 C 0.512652 -2.625233 -0.311398 0
M  V30 10 C -0.397311 -2.059687 0.588501 0
M  V30 11 C -0.386319 -0.709156 0.899701 0
M  V30 12 C 0.528335 0.110071 0.324041 0
M  V30 13 C 0.690290 1.453774 0.497627 0
M  V30 14 C 0.095847 2.498608 1.287173 0
M  V30 15 C -0.796335 2.617113 2.230797 0
M  V30 16 C -1.297819 3.782097 2.939089 0
M  V30 17 C -0.880618 5.062463 2.655197 0
M  V30 18 C -1.333032 6.195937 3.313027 0
M  V30 19 C -2.267023 5.953020 4.312400 0
M  V30 20 C -2.701253 4.686709 4.616440 0
M  V30 21 C -2.224794 3.582607 3.936485 0
M  V30 22 N 1.741596 1.755283 -0.324138 0
M  V30 23 N 2.157241 0.679661 -0.923828 0
M  V30 24 C 1.442972 -0.391059 -0.565894 0
M  V30 25 C 1.404149 -1.733169 -0.851588 0
M  V30 26 H 3.087839 -4.034726 -1.544006 0
M  V30 27 H 4.474446 -5.931859 -2.002948 0
M  V30 28 H 3.576054 -8.197149 -1.643148 0
M  V30 29 H 1.308723 -8.511780 -0.835132 0
M  V30 30 H -0.084328 -6.619114 -0.378116 0
M  V30 31 H -1.162576 -2.671119 1.086122 0
M  V30 32 H -1.115728 -0.350567 1.590130 0
M  V30 33 H 0.424911 3.530902 1.115657 0
M  V30 34 H -1.191774 1.648342 2.495054 0
M  V30 35 H -0.159658 5.281209 1.883562 0
M  V30 36 H -1.007314 7.195155 3.089103 0
M  V30 37 H -2.699641 6.759120 4.899480 0
M  V30 38 H -3.424434 4.475075 5.387517 0
M  V30 39 H -2.570244 2.587367 4.182090 0
M  V30 40 H 2.952338 0.673839 -1.597914 0
M  V30 41 H 2.155539 -1.997761 -1.568043 0
M  V30 END ATOM
M  V30 BEGIN BOND
M  V30 1 2 1 2
M  V30 2 1 2 3
M  V30 3 2 3 4
M  V30 4 1 4 5
M  V30 5 2 5 6
M  V30 6 1 6 7
M  V30 7 2 7 8
M  V30 8 1 2 9
M  V30 9 2 9 10
M  V30 10 1 10 11
M  V30 11 2 11 12
M  V30 12 1 12 13
M  V30 13 1 13 14
M  V30 14 2 14 15
M  V30 15 1 15 16
M  V30 16 2 16 17
M  V30 17 1 17 18
M  V30 18 2 18 19
M  V30 19 1 19 20
M  V30 20 2 20 21
M  V30 21 2 13 22
M  V30 22 1 22 23
M  V30 23 1 23 24
M  V30 24 2 24 25
M  V30 25 1 8 3
M  V30 26 1 25 9
M  V30 27 1 24 12
M  V30 28 1 21 16
M  V30 29 1 4 26
M  V30 30 1 5 27
M  V30 31 1 6 28
M  V30 32 1 7 29
M  V30 33 1 8 30
M  V30 34 1 10 31
M  V30 35 1 11 32
M  V30 36 1 14 33
M  V30 37 1 15 34
M  V30 38 1 17 35
M  V30 39 1 18 36
M  V30 40 1 19 37
M  V30 41 1 20 38
M  V30 42 1 21 39
M  V30 43 1 23 40
M  V30 44 1 25 41
M  V30 END BOND
M  V30 END CTAB
M  END
>  <Dataset>  (399) 
ChEMBL_Kinases

>  <Ligand_Instance>  (399) 
nan

>  <PDB_ID>  (399) 
nan

>  <Standardized_SMILES>  (399) 
O=C(c1ccccc1)c1ccc2c(/C=C/c3ccccc3)n[nH]c2c1

>  <Name>  (399) 
nan

>  <Pocket>  (399) 
nan

>  <ATP_Site>  (399) 
nan

>  <Peripheral>  (399) 
nan

>  <Num_H_Atoms_ProtBoundConf>  (399) 
nan

>  <Num_Resolved_Atoms>  (399) 
nan

>  <Num_Not_Resolved_Atoms>  (399) 
nan

$$$$
CHEMBL397570
     RDKit          3D

  0  0  0  0  0  0  0  0  0  0999 V3000
M  V30 BEGIN CTAB
M  V30 COUNTS 34 36 0 0 0
M  V30 BEGIN ATOM
M  V30 1 N 1.618589 -2.950094 2.018088 0
M  V30 2 C 0.694317 -2.236039 1.858269 0
M  V30 3 C -0.441202 -1.337625 1.679511 0
M  V30 4 C -0.249748 -0.053635 1.319560 0
M  V30 5 N 0.952788 0.637882 1.062358 0
M  V30 6 C 1.433583 0.625780 -0.264865 0
M  V30 7 O 0.731613 -0.008961 -1.095099 0
M  V30 8 C 2.652926 1.278194 -0.732650 0
M  V30 9 C 2.940854 1.141511 -2.077017 0
M  V30 10 C 4.107061 1.761301 -2.542286 0
M  V30 11 C 4.926000 2.476319 -1.681609 0
M  V30 12 F 6.041484 3.053840 -2.191618 0
M  V30 13 C 4.618386 2.600727 -0.337076 0
M  V30 14 C 3.456416 1.986201 0.139289 0
M  V30 15 S -1.888435 0.663511 1.219098 0
M  V30 16 C -2.745162 -0.883388 1.688779 0
M  V30 17 C -1.715139 -1.789868 1.875764 0
M  V30 18 C -2.305699 -3.096082 2.262989 0
M  V30 19 C -3.343808 -3.563150 1.284125 0
M  V30 20 C -4.379404 -2.538950 0.963791 0
M  V30 21 C -4.163450 -1.356687 1.898414 0
M  V30 22 H 1.512798 1.156052 1.774785 0
M  V30 23 H 2.342448 0.598706 -2.792206 0
M  V30 24 H 4.386731 1.691287 -3.581791 0
M  V30 25 H 5.292554 3.170610 0.291988 0
M  V30 26 H 3.227243 2.088418 1.181430 0
M  V30 27 H -1.526436 -3.892036 2.331213 0
M  V30 28 H -2.726277 -2.980788 3.282517 0
M  V30 29 H -3.848633 -4.429062 1.760768 0
M  V30 30 H -2.868308 -3.980020 0.372290 0
M  V30 31 H -5.380654 -2.952046 1.046129 0
M  V30 32 H -4.236472 -2.212544 -0.105870 0
M  V30 33 H -4.844002 -0.509379 1.625309 0
M  V30 34 H -4.274568 -1.703469 2.923863 0
M  V30 END ATOM
M  V30 BEGIN BOND
M  V30 1 3 1 2
M  V30 2 1 2 3
M  V30 3 2 3 4
M  V30 4 1 4 5
M  V30 5 1 5 6
M  V30 6 2 6 7
M  V30 7 1 6 8
M  V30 8 2 8 9
M  V30 9 1 9 10
M  V30 10 2 10 11
M  V30 11 1 11 12
M  V30 12 1 11 13
M  V30 13 2 13 14
M  V30 14 1 4 15
M  V30 15 1 15 16
M  V30 16 2 16 17
M  V30 17 1 17 18
M  V30 18 1 18 19
M  V30 19 1 19 20
M  V30 20 1 20 21
M  V30 21 1 17 3
M  V30 22 1 14 8
M  V30 23 1 21 16
M  V30 24 1 5 22
M  V30 25 1 9 23
M  V30 26 1 10 24
M  V30 27 1 13 25
M  V30 28 1 14 26
M  V30 29 1 18 27
M  V30 30 1 18 28
M  V30 31 1 19 29
M  V30 32 1 19 30
M  V30 33 1 20 31
M  V30 34 1 20 32
M  V30 35 1 21 33
M  V30 36 1 21 34
M  V30 END BOND
M  V30 END CTAB
M  END
>  <Dataset>  (400) 
ChEMBL_Kinases

>  <Ligand_Instance>  (400) 
nan

>  <PDB_ID>  (400) 
nan

>  <Standardized_SMILES>  (400) 
N#Cc1c(NC(=O)c2ccc(F)cc2)sc2c1CCCC2

>  <Name>  (400) 
nan

>  <Pocket>  (400) 
nan

>  <ATP_Site>  (400) 
nan

>  <Peripheral>  (400) 
nan

>  <Num_H_Atoms_ProtBoundConf>  (400) 
nan

>  <Num_Resolved_Atoms>  (400) 
nan

>  <Num_Not_Resolved_Atoms>  (400) 
nan

$$$$
CHEMBL3975651
     RDKit          3D

  0  0  0  0  0  0  0  0  0  0999 V3000
M  V30 BEGIN CTAB
M  V30 COUNTS 48 52 0 0 0
M  V30 BEGIN ATOM
M  V30 1 O -0.331186 -4.389677 4.984711 0
M  V30 2 C 0.438034 -3.669846 4.311457 0
M  V30 3 C 1.886444 -3.822035 4.573871 0
M  V30 4 O 2.696009 -2.887968 3.930159 0
M  V30 5 C 2.288464 -1.973988 2.974187 0
M  V30 6 C 3.171171 -1.150798 2.322289 0
M  V30 7 C 2.700406 -0.261746 1.380261 0
M  V30 8 C 1.359543 -0.135823 1.034120 0
M  V30 9 C 0.906137 0.846553 0.011184 0
M  V30 10 O 1.686908 0.767887 -1.140267 0
M  V30 11 C 0.916528 2.200105 0.599559 0
M  V30 12 C 1.975569 2.957555 1.016326 0
M  V30 13 C 1.764045 4.226718 1.563979 0
M  V30 14 C 0.442458 4.663723 1.657869 0
M  V30 15 C -0.653158 3.914903 1.242014 0
M  V30 16 C -0.382699 2.651390 0.701201 0
M  V30 17 C -1.278500 1.634529 0.168304 0
M  V30 18 O -2.512546 1.734686 0.117117 0
M  V30 19 N -0.483352 0.539378 -0.267966 0
M  V30 20 C -0.900206 -0.674869 -0.881267 0
M  V30 21 C 0.013230 -1.663180 -1.265891 0
M  V30 22 C -0.367914 -2.847640 -1.861291 0
M  V30 23 C -1.691147 -3.104496 -2.103556 0
M  V30 24 C -2.624469 -2.157697 -1.740390 0
M  V30 25 C -4.052982 -2.465981 -2.016783 0
M  V30 26 O -4.329366 -1.966810 -3.309155 0
M  V30 27 C -2.210701 -0.987331 -1.148489 0
M  V30 28 C 0.527282 -0.989633 1.724084 0
M  V30 29 C 0.950717 -1.893075 2.671996 0
M  V30 30 N -0.008555 -2.737639 3.331566 0
M  V30 31 H 1.999896 -3.774615 5.684113 0
M  V30 32 H 2.149645 -4.849757 4.258674 0
M  V30 33 H 4.223203 -1.232555 2.577487 0
M  V30 34 H 3.458186 0.349950 0.911131 0
M  V30 35 H 1.733565 1.620619 -1.625147 0
M  V30 36 H 3.025782 2.704215 0.982106 0
M  V30 37 H 2.555032 4.897646 1.922522 0
M  V30 38 H 0.263157 5.645217 2.080123 0
M  V30 39 H -1.656906 4.308943 1.340883 0
M  V30 40 H 1.074572 -1.492758 -1.088361 0
M  V30 41 H 0.413208 -3.553692 -2.124643 0
M  V30 42 H -1.892012 -4.055548 -2.572031 0
M  V30 43 H -4.200129 -3.566744 -2.080245 0
M  V30 44 H -4.762503 -2.024211 -1.319296 0
M  V30 45 H -4.984770 -2.547704 -3.765049 0
M  V30 46 H -2.981348 -0.309535 -0.898038 0
M  V30 47 H -0.526805 -0.961207 1.523503 0
M  V30 48 H -1.043911 -2.682669 3.105792 0
M  V30 END ATOM
M  V30 BEGIN BOND
M  V30 1 2 1 2
M  V30 2 1 2 3
M  V30 3 1 3 4
M  V30 4 1 4 5
M  V30 5 2 5 6
M  V30 6 1 6 7
M  V30 7 2 7 8
M  V30 8 1 8 9
M  V30 9 1 9 10
M  V30 10 1 9 11
M  V30 11 2 11 12
M  V30 12 1 12 13
M  V30 13 2 13 14
M  V30 14 1 14 15
M  V30 15 2 15 16
M  V30 16 1 16 17
M  V30 17 2 17 18
M  V30 18 1 17 19
M  V30 19 1 19 20
M  V30 20 2 20 21
M  V30 21 1 21 22
M  V30 22 2 22 23
M  V30 23 1 23 24
M  V30 24 1 24 25
M  V30 25 1 25 26
M  V30 26 2 24 27
M  V30 27 1 8 28
M  V30 28 2 28 29
M  V30 29 1 29 30
M  V30 30 1 30 2
M  V30 31 1 29 5
M  V30 32 1 19 9
M  V30 33 1 27 20
M  V30 34 1 16 11
M  V30 35 1 3 31
M  V30 36 1 3 32
M  V30 37 1 6 33
M  V30 38 1 7 34
M  V30 39 1 10 35
M  V30 40 1 12 36
M  V30 41 1 13 37
M  V30 42 1 14 38
M  V30 43 1 15 39
M  V30 44 1 21 40
M  V30 45 1 22 41
M  V30 46 1 23 42
M  V30 47 1 25 43
M  V30 48 1 25 44
M  V30 49 1 26 45
M  V30 50 1 27 46
M  V30 51 1 28 47
M  V30 52 1 30 48
M  V30 END BOND
M  V30 END CTAB
M  END
>  <Dataset>  (401) 
ChEMBL_Kinases

>  <Ligand_Instance>  (401) 
nan

>  <PDB_ID>  (401) 
nan

>  <Standardized_SMILES>  (401) 
O=C1COc2ccc(C3(O)c4ccccc4C(=O)N3c3cccc(CO)c3)cc2N1

>  <Name>  (401) 
nan

>  <Pocket>  (401) 
nan

>  <ATP_Site>  (401) 
nan

>  <Peripheral>  (401) 
nan

>  <Num_H_Atoms_ProtBoundConf>  (401) 
nan

>  <Num_Resolved_Atoms>  (401) 
nan

>  <Num_Not_Resolved_Atoms>  (401) 
nan

$$$$
CHEMBL4869054
     RDKit          3D

  0  0  0  0  0  0  0  0  0  0999 V3000
M  V30 BEGIN CTAB
M  V30 COUNTS 44 47 0 0 0
M  V30 BEGIN ATOM
M  V30 1 O -0.597413 -2.407693 1.622145 0
M  V30 2 C -1.737792 -2.114693 1.139255 0
M  V30 3 N -2.011224 -0.847218 0.558765 0
M  V30 4 C -0.911438 0.062422 0.561689 0
M  V30 5 C -0.088504 0.013857 -0.548953 0
M  V30 6 C 0.988594 0.874474 -0.592263 0
M  V30 7 C 1.283978 1.775602 0.410856 0
M  V30 8 O 2.387630 2.608401 0.291634 0
M  V30 9 C 2.240159 3.849160 -0.312753 0
M  V30 10 N 1.135771 4.385106 -0.821669 0
M  V30 11 C 1.118492 5.603452 -1.384765 0
M  V30 12 N 2.246870 6.349360 -1.458255 0
M  V30 13 C 3.402955 5.857275 -0.957151 0
M  V30 14 N 4.646753 6.389804 -0.905252 0
M  V30 15 C 5.477767 5.519227 -0.307913 0
M  V30 16 C 4.742268 4.402952 0.029072 0
M  V30 17 C 3.419586 4.599927 -0.376313 0
M  V30 18 C 0.444369 1.803256 1.510587 0
M  V30 19 C -0.642579 0.956248 1.587077 0
M  V30 20 N -2.669662 -3.184373 1.252791 0
M  V30 21 C -2.228791 -4.414775 1.873105 0
M  V30 22 C -2.383245 -4.544408 3.238851 0
M  V30 23 C -1.956392 -5.730111 3.823813 0
M  V30 24 C -1.401588 -6.718391 3.023171 0
M  V30 25 C -1.254669 -6.567956 1.647467 0
M  V30 26 C -0.648842 -7.660113 0.809968 0
M  V30 27 F 0.667358 -7.322163 0.541193 0
M  V30 28 F -0.732947 -8.881351 1.437713 0
M  V30 29 F -1.294402 -7.748745 -0.407750 0
M  V30 30 C -1.675562 -5.395861 1.062341 0
M  V30 31 H -2.965426 -0.686368 0.187445 0
M  V30 32 H -0.229489 -0.645950 -1.378287 0
M  V30 33 H 1.666450 0.864969 -1.460582 0
M  V30 34 H 0.212580 6.019504 -1.791406 0
M  V30 35 H 4.940120 7.325177 -1.264531 0
M  V30 36 H 6.543951 5.608460 -0.094931 0
M  V30 37 H 5.063260 3.497511 0.520945 0
M  V30 38 H 0.649149 2.498824 2.314138 0
M  V30 39 H -1.316947 0.947611 2.423308 0
M  V30 40 H -3.644107 -3.017680 0.872640 0
M  V30 41 H -2.821211 -3.753900 3.841619 0
M  V30 42 H -2.057179 -5.881376 4.903240 0
M  V30 43 H -1.054714 -7.666126 3.453918 0
M  V30 44 H -1.556052 -5.294146 0.001613 0
M  V30 END ATOM
M  V30 BEGIN BOND
M  V30 1 2 1 2
M  V30 2 1 2 3
M  V30 3 1 3 4
M  V30 4 2 4 5
M  V30 5 1 5 6
M  V30 6 2 6 7
M  V30 7 1 7 8
M  V30 8 1 8 9
M  V30 9 2 9 10
M  V30 10 1 10 11
M  V30 11 2 11 12
M  V30 12 1 12 13
M  V30 13 1 13 14
M  V30 14 1 14 15
M  V30 15 2 15 16
M  V30 16 1 16 17
M  V30 17 1 7 18
M  V30 18 2 18 19
M  V30 19 1 2 20
M  V30 20 1 20 21
M  V30 21 2 21 22
M  V30 22 1 22 23
M  V30 23 2 23 24
M  V30 24 1 24 25
M  V30 25 1 25 26
M  V30 26 1 26 27
M  V30 27 1 26 28
M  V30 28 1 26 29
M  V30 29 2 25 30
M  V30 30 1 19 4
M  V30 31 1 30 21
M  V30 32 1 17 9
M  V30 33 2 17 13
M  V30 34 1 3 31
M  V30 35 1 5 32
M  V30 36 1 6 33
M  V30 37 1 11 34
M  V30 38 1 14 35
M  V30 39 1 15 36
M  V30 40 1 16 37
M  V30 41 1 18 38
M  V30 42 1 19 39
M  V30 43 1 20 40
M  V30 44 1 22 41
M  V30 45 1 23 42
M  V30 46 1 24 43
M  V30 47 1 30 44
M  V30 END BOND
M  V30 END CTAB
M  END
>  <Dataset>  (402) 
ChEMBL_Kinases

>  <Ligand_Instance>  (402) 
nan

>  <PDB_ID>  (402) 
nan

>  <Standardized_SMILES>  (402) 
O=C(Nc1ccc(Oc2ncnc3[nH]ccc23)cc1)Nc1cccc(C(F)(F)F)c1

>  <Name>  (402) 
nan

>  <Pocket>  (402) 
nan

>  <ATP_Site>  (402) 
nan

>  <Peripheral>  (402) 
nan

>  <Num_H_Atoms_ProtBoundConf>  (402) 
nan

>  <Num_Resolved_Atoms>  (402) 
nan

>  <Num_Not_Resolved_Atoms>  (402) 
nan

$$$$
CHEMBL3975466
     RDKit          3D

  0  0  0  0  0  0  0  0  0  0999 V3000
M  V30 BEGIN CTAB
M  V30 COUNTS 53 56 0 0 0
M  V30 BEGIN ATOM
M  V30 1 C 6.322444 -1.857718 2.551193 0
M  V30 2 O 7.514902 -1.281146 2.198532 0
M  V30 3 C 7.359290 -0.130173 1.478075 0
M  V30 4 C 6.622769 -0.202191 0.184077 0
M  V30 5 O 5.304425 -0.614216 0.203638 0
M  V30 6 C 4.226486 -0.028614 0.802439 0
M  V30 7 C 3.968052 1.093901 1.552315 0
M  V30 8 C 2.728511 1.430562 2.036423 0
M  V30 9 C 1.667197 0.606584 1.764390 0
M  V30 10 C 1.829888 -0.553335 1.012141 0
M  V30 11 C 3.116588 -0.850865 0.541974 0
M  V30 12 C 0.500099 -1.137862 0.947418 0
M  V30 13 O 0.236422 -2.196294 0.352764 0
M  V30 14 N -0.443477 -0.346678 1.645925 0
M  V30 15 C -1.836017 -0.598892 1.800011 0
M  V30 16 C -2.310345 -1.338726 2.870922 0
M  V30 17 C -3.684132 -1.510412 2.903008 0
M  V30 18 C -4.501653 -0.965893 1.915010 0
M  V30 19 C -3.961649 -0.226034 0.855303 0
M  V30 20 C -5.014315 0.234490 -0.030363 0
M  V30 21 N -5.978789 1.123100 0.271907 0
M  V30 22 N -6.694250 1.225328 -0.836471 0
M  V30 23 C -6.185946 0.417861 -1.807089 0
M  V30 24 N -5.099084 -0.218440 -1.274343 0
M  V30 25 C -4.460300 -1.099129 -2.180491 0 CFG=2
M  V30 26 C -5.498121 -2.137610 -2.637207 0
M  V30 27 C -3.281327 -1.856545 -1.713534 0
M  V30 28 O -3.525724 -2.698773 -0.630507 0
M  V30 29 N -2.623886 -0.084506 0.864016 0
M  V30 30 C 0.262692 0.803761 2.199200 0
M  V30 31 H 5.730258 -1.105368 3.112707 0
M  V30 32 H 5.808660 -2.233350 1.655926 0
M  V30 33 H 6.512209 -2.743691 3.247303 0
M  V30 34 H 6.859362 0.610511 2.176925 0
M  V30 35 H 8.382365 0.359801 1.320859 0
M  V30 36 H 7.183295 -0.883454 -0.526227 0
M  V30 37 H 6.740453 0.814408 -0.295012 0
M  V30 38 H 4.864278 1.671173 1.695670 0
M  V30 39 H 2.715512 2.348878 2.606162 0
M  V30 40 H 3.067308 -1.790500 -0.027107 0
M  V30 41 H -1.614770 -1.715950 3.577513 0
M  V30 42 H -4.066206 -2.087557 3.736365 0
M  V30 43 H -5.556758 -1.190722 2.084409 0
M  V30 44 H -6.777910 0.500345 -2.729025 0
M  V30 45 H -4.155974 -0.589218 -3.143815 0
M  V30 46 H -5.047017 -3.139784 -2.774302 0
M  V30 47 H -6.298333 -2.266130 -1.868240 0
M  V30 48 H -5.990204 -1.855441 -3.574327 0
M  V30 49 H -3.043854 -2.583872 -2.555059 0
M  V30 50 H -2.338217 -1.279132 -1.629844 0
M  V30 51 H -3.996323 -3.512625 -0.881644 0
M  V30 52 H -0.095430 1.755776 1.729228 0
M  V30 53 H 0.142613 0.900386 3.288465 0
M  V30 END ATOM
M  V30 BEGIN BOND
M  V30 1 1 1 2
M  V30 2 1 2 3
M  V30 3 1 3 4
M  V30 4 1 4 5
M  V30 5 1 5 6
M  V30 6 2 6 7
M  V30 7 1 7 8
M  V30 8 2 8 9
M  V30 9 1 9 10
M  V30 10 2 10 11
M  V30 11 1 10 12
M  V30 12 2 12 13
M  V30 13 1 12 14
M  V30 14 1 14 15
M  V30 15 2 15 16
M  V30 16 1 16 17
M  V30 17 2 17 18
M  V30 18 1 18 19
M  V30 19 1 19 20
M  V30 20 2 20 21
M  V30 21 1 21 22
M  V30 22 2 22 23
M  V30 23 1 23 24
M  V30 24 1 24 25
M  V30 25 1 25 26
M  V30 26 1 25 27
M  V30 27 1 27 28
M  V30 28 2 19 29
M  V30 29 1 14 30
M  V30 30 1 11 6
M  V30 31 1 29 15
M  V30 32 1 30 9
M  V30 33 1 24 20
M  V30 34 1 1 31
M  V30 35 1 1 32
M  V30 36 1 1 33
M  V30 37 1 3 34
M  V30 38 1 3 35
M  V30 39 1 4 36
M  V30 40 1 4 37
M  V30 41 1 7 38
M  V30 42 1 8 39
M  V30 43 1 11 40
M  V30 44 1 16 41
M  V30 45 1 17 42
M  V30 46 1 18 43
M  V30 47 1 23 44
M  V30 48 1 25 45 CFG=3
M  V30 49 1 26 46
M  V30 50 1 26 47
M  V30 51 1 26 48
M  V30 52 1 27 49
M  V30 53 1 27 50
M  V30 54 1 28 51
M  V30 55 1 30 52
M  V30 56 1 30 53
M  V30 END BOND
M  V30 END CTAB
M  END
>  <Dataset>  (403) 
ChEMBL_Kinases

>  <Ligand_Instance>  (403) 
nan

>  <PDB_ID>  (403) 
nan

>  <Standardized_SMILES>  (403) 
COCCOc1ccc2c(c1)C(=O)N(c1cccc(-c3nncn3[C@H](C)CO)n1)C2

>  <Name>  (403) 
nan

>  <Pocket>  (403) 
nan

>  <ATP_Site>  (403) 
nan

>  <Peripheral>  (403) 
nan

>  <Num_H_Atoms_ProtBoundConf>  (403) 
nan

>  <Num_Resolved_Atoms>  (403) 
nan

>  <Num_Not_Resolved_Atoms>  (403) 
nan

$$$$
CHEMBL4869086
     RDKit          3D

  0  0  0  0  0  0  0  0  0  0999 V3000
M  V30 BEGIN CTAB
M  V30 COUNTS 69 73 0 0 0
M  V30 BEGIN ATOM
M  V30 1 C 7.265348 5.351099 3.969081 0
M  V30 2 O 6.457553 4.384627 3.365123 0
M  V30 3 C 6.089463 4.390464 2.031146 0
M  V30 4 C 6.499466 5.395528 1.152138 0
M  V30 5 C 6.090806 5.332639 -0.182793 0
M  V30 6 F 6.465849 6.281497 -1.062633 0
M  V30 7 C 5.297289 4.280353 -0.585401 0
M  V30 8 C 4.859870 3.259766 0.233192 0
M  V30 9 C 4.049183 2.089834 -0.090471 0 CFG=1
M  V30 10 C 4.965375 0.860198 0.051072 0
M  V30 11 O 6.080112 0.936397 -0.751569 0
M  V30 12 N 2.930581 1.884764 0.809502 0
M  V30 13 C 1.636281 1.563541 0.248654 0
M  V30 14 O 1.480363 1.465205 -1.004038 0
M  V30 15 C 0.561222 1.368189 1.293244 0
M  V30 16 N -0.623167 1.009062 0.539038 0
M  V30 17 C -1.722628 1.698481 -0.099428 0
M  V30 18 C -2.508790 0.607909 -0.746604 0
M  V30 19 C -3.645388 0.666651 -1.529145 0
M  V30 20 C -4.282022 -0.447579 -2.051683 0
M  V30 21 C -3.760949 -1.722207 -1.786247 0
M  V30 22 C -4.268598 -3.013199 -2.254282 0
M  V30 23 N -4.408891 -3.984956 -1.335552 0
M  V30 24 C -4.832149 -5.221486 -1.558935 0
M  V30 25 N -4.976334 -6.208644 -0.526274 0
M  V30 26 C -4.705444 -5.921788 0.836048 0
M  V30 27 C -4.926210 -7.064532 1.797616 0
M  V30 28 C -4.990540 -6.398080 3.184570 0
M  V30 29 O -3.811265 -5.738263 3.435584 0
M  V30 30 C -3.512199 -4.713914 2.545470 0
M  V30 31 C -3.353185 -5.353488 1.149231 0
M  V30 32 N -5.143637 -5.504078 -2.836084 0
M  V30 33 C -5.042967 -4.613402 -3.834349 0
M  V30 34 C -4.599776 -3.334285 -3.568338 0
M  V30 35 Cl -4.412144 -2.043354 -4.762174 0
M  V30 36 C -2.626459 -1.776301 -1.005746 0
M  V30 37 C -2.004219 -0.666374 -0.492730 0
M  V30 38 C -0.821384 -0.407307 0.316928 0
M  V30 39 O -0.123857 -1.399527 0.721197 0
M  V30 40 C 5.300129 3.380261 1.549242 0
M  V30 41 H 7.152536 6.333865 3.515110 0
M  V30 42 H 7.043914 5.434210 5.065305 0
M  V30 43 H 8.336022 4.990192 3.909428 0
M  V30 44 H 7.111392 6.196957 1.485806 0
M  V30 45 H 4.942101 4.179327 -1.624936 0
M  V30 46 H 3.687466 2.116665 -1.116559 0
M  V30 47 H 5.331560 0.748229 1.103937 0
M  V30 48 H 4.368909 -0.012564 -0.284554 0
M  V30 49 H 5.866224 1.190377 -1.686881 0
M  V30 50 H 3.104180 1.976618 1.842688 0
M  V30 51 H 0.910628 0.598672 1.969511 0
M  V30 52 H 0.335270 2.336488 1.790015 0
M  V30 53 H -2.360538 2.155214 0.717979 0
M  V30 54 H -1.404095 2.489923 -0.791413 0
M  V30 55 H -4.093781 1.637950 -1.766753 0
M  V30 56 H -5.159022 -0.445554 -2.656071 0
M  V30 57 H -5.295659 -7.167582 -0.797235 0
M  V30 58 H -5.442935 -5.120504 1.146560 0
M  V30 59 H -4.041055 -7.747127 1.841469 0
M  V30 60 H -5.810023 -7.666002 1.614952 0
M  V30 61 H -5.795861 -5.633092 3.088119 0
M  V30 62 H -5.157753 -7.117354 3.988558 0
M  V30 63 H -2.573076 -4.237033 2.877387 0
M  V30 64 H -4.314242 -3.936124 2.487730 0
M  V30 65 H -2.964004 -4.631250 0.437699 0
M  V30 66 H -2.638161 -6.207030 1.337290 0
M  V30 67 H -5.283786 -4.818309 -4.846912 0
M  V30 68 H -2.173467 -2.740886 -0.767253 0
M  V30 69 H 4.999406 2.616243 2.259747 0
M  V30 END ATOM
M  V30 BEGIN BOND
M  V30 1 1 1 2
M  V30 2 1 2 3
M  V30 3 2 3 4
M  V30 4 1 4 5
M  V30 5 1 5 6
M  V30 6 2 5 7
M  V30 7 1 7 8
M  V30 8 1 8 9
M  V30 9 1 9 10
M  V30 10 1 10 11
M  V30 11 1 9 12
M  V30 12 1 12 13
M  V30 13 2 13 14
M  V30 14 1 13 15
M  V30 15 1 15 16
M  V30 16 1 16 17
M  V30 17 1 17 18
M  V30 18 2 18 19
M  V30 19 1 19 20
M  V30 20 2 20 21
M  V30 21 1 21 22
M  V30 22 2 22 23
M  V30 23 1 23 24
M  V30 24 1 24 25
M  V30 25 1 25 26
M  V30 26 1 26 27
M  V30 27 1 27 28
M  V30 28 1 28 29
M  V30 29 1 29 30
M  V30 30 1 30 31
M  V30 31 2 24 32
M  V30 32 1 32 33
M  V30 33 2 33 34
M  V30 34 1 34 35
M  V30 35 1 21 36
M  V30 36 2 36 37
M  V30 37 1 37 38
M  V30 38 2 38 39
M  V30 39 2 8 40
M  V30 40 1 40 3
M  V30 41 1 38 16
M  V30 42 1 37 18
M  V30 43 1 34 22
M  V30 44 1 31 26
M  V30 45 1 1 41
M  V30 46 1 1 42
M  V30 47 1 1 43
M  V30 48 1 4 44
M  V30 49 1 7 45
M  V30 50 1 9 46 CFG=3
M  V30 51 1 10 47
M  V30 52 1 10 48
M  V30 53 1 11 49
M  V30 54 1 12 50
M  V30 55 1 15 51
M  V30 56 1 15 52
M  V30 57 1 17 53
M  V30 58 1 17 54
M  V30 59 1 19 55
M  V30 60 1 20 56
M  V30 61 1 25 57
M  V30 62 1 26 58
M  V30 63 1 27 59
M  V30 64 1 27 60
M  V30 65 1 28 61
M  V30 66 1 28 62
M  V30 67 1 30 63
M  V30 68 1 30 64
M  V30 69 1 31 65
M  V30 70 1 31 66
M  V30 71 1 33 67
M  V30 72 1 36 68
M  V30 73 1 40 69
M  V30 END BOND
M  V30 END CTAB
M  END
>  <Dataset>  (404) 
ChEMBL_Kinases

>  <Ligand_Instance>  (404) 
nan

>  <PDB_ID>  (404) 
nan

>  <Standardized_SMILES>  (404) 
COc1cc(F)cc([C@@H](CO)NC(=O)CN2Cc3ccc(-c4nc(NC5CCOCC5)ncc4Cl)cc3C2=O)c1

>  <Name>  (404) 
nan

>  <Pocket>  (404) 
nan

>  <ATP_Site>  (404) 
nan

>  <Peripheral>  (404) 
nan

>  <Num_H_Atoms_ProtBoundConf>  (404) 
nan

>  <Num_Resolved_Atoms>  (404) 
nan

>  <Num_Not_Resolved_Atoms>  (404) 
nan

$$$$
CHEMBL3975326
     RDKit          3D

  0  0  0  0  0  0  0  0  0  0999 V3000
M  V30 BEGIN CTAB
M  V30 COUNTS 41 44 0 0 0
M  V30 BEGIN ATOM
M  V30 1 N -0.567066 -5.387560 0.801756 0
M  V30 2 C 0.743140 -5.118769 1.287842 0
M  V30 3 N 1.611928 -5.850010 1.981114 0
M  V30 4 N 2.717253 -5.155873 2.198944 0
M  V30 5 C 2.614743 -3.923512 1.648919 0
M  V30 6 C 3.536225 -2.916569 1.654557 0
M  V30 7 C 3.161911 -1.752908 1.006724 0
M  V30 8 C 1.920778 -1.644199 0.398601 0
M  V30 9 C 1.395557 -0.498903 -0.313561 0
M  V30 10 O 1.318540 -0.698354 -1.575370 0
M  V30 11 N 0.910270 0.812353 -0.171483 0
M  V30 12 C 0.560312 1.298287 -1.511035 0
M  V30 13 C 0.127025 2.737211 -1.271712 0
M  V30 14 C 0.798151 3.087332 0.027314 0
M  V30 15 C 0.636266 1.844992 0.837926 0 CFG=1
M  V30 16 C -0.700002 1.643527 1.404998 0
M  V30 17 C -1.088116 0.377118 1.782975 0
M  V30 18 C -2.322524 0.083956 2.325510 0
M  V30 19 C -3.236905 1.121406 2.505308 0
M  V30 20 F -4.455273 0.884783 3.026685 0
M  V30 21 C -2.895400 2.414000 2.140731 0
M  V30 22 C -1.637955 2.652517 1.598861 0
M  V30 23 C 1.030800 -2.716297 0.434928 0
M  V30 24 C 1.365675 -3.892775 1.069284 0
M  V30 25 H -1.381997 -5.460903 1.440013 0
M  V30 26 H -0.926820 -5.546135 -0.181889 0
M  V30 27 H 3.491993 -5.619516 2.739015 0
M  V30 28 H 4.499181 -2.976868 2.114993 0
M  V30 29 H 3.772675 -0.877079 0.925754 0
M  V30 30 H 1.428857 1.335430 -2.195723 0
M  V30 31 H -0.254272 0.709316 -1.978948 0
M  V30 32 H -0.981703 2.770601 -1.233781 0
M  V30 33 H 0.445763 3.404960 -2.089532 0
M  V30 34 H 0.461233 4.010288 0.492605 0
M  V30 35 H 1.900236 3.156462 -0.213793 0
M  V30 36 H 1.441042 1.796981 1.623356 0
M  V30 37 H -0.391050 -0.451657 1.652562 0
M  V30 38 H -2.570393 -0.949014 2.608110 0
M  V30 39 H -3.598952 3.256941 2.268980 0
M  V30 40 H -1.365352 3.648464 1.314819 0
M  V30 41 H 0.037062 -2.706074 -0.021277 0
M  V30 END ATOM
M  V30 BEGIN BOND
M  V30 1 1 1 2
M  V30 2 2 2 3
M  V30 3 1 3 4
M  V30 4 1 4 5
M  V30 5 2 5 6
M  V30 6 1 6 7
M  V30 7 2 7 8
M  V30 8 1 8 9
M  V30 9 2 9 10
M  V30 10 1 9 11
M  V30 11 1 11 12
M  V30 12 1 12 13
M  V30 13 1 13 14
M  V30 14 1 14 15
M  V30 15 1 15 16
M  V30 16 2 16 17
M  V30 17 1 17 18
M  V30 18 2 18 19
M  V30 19 1 19 20
M  V30 20 1 19 21
M  V30 21 2 21 22
M  V30 22 1 8 23
M  V30 23 2 23 24
M  V30 24 1 24 2
M  V30 25 1 24 5
M  V30 26 1 15 11
M  V30 27 1 22 16
M  V30 28 1 1 25
M  V30 29 1 1 26
M  V30 30 1 4 27
M  V30 31 1 6 28
M  V30 32 1 7 29
M  V30 33 1 12 30
M  V30 34 1 12 31
M  V30 35 1 13 32
M  V30 36 1 13 33
M  V30 37 1 14 34
M  V30 38 1 14 35
M  V30 39 1 15 36 CFG=1
M  V30 40 1 17 37
M  V30 41 1 18 38
M  V30 42 1 21 39
M  V30 43 1 22 40
M  V30 44 1 23 41
M  V30 END BOND
M  V30 END CTAB
M  END
>  <Dataset>  (405) 
ChEMBL_Kinases

>  <Ligand_Instance>  (405) 
nan

>  <PDB_ID>  (405) 
nan

>  <Standardized_SMILES>  (405) 
Nc1n[nH]c2ccc(C(=O)N3CCC[C@H]3c3ccc(F)cc3)cc12

>  <Name>  (405) 
nan

>  <Pocket>  (405) 
nan

>  <ATP_Site>  (405) 
nan

>  <Peripheral>  (405) 
nan

>  <Num_H_Atoms_ProtBoundConf>  (405) 
nan

>  <Num_Resolved_Atoms>  (405) 
nan

>  <Num_Not_Resolved_Atoms>  (405) 
nan

$$$$
CHEMBL3974111
     RDKit          3D

  0  0  0  0  0  0  0  0  0  0999 V3000
M  V30 BEGIN CTAB
M  V30 COUNTS 68 70 0 0 0
M  V30 BEGIN ATOM
M  V30 1 C 2.850785 3.198309 3.458548 0
M  V30 2 C 1.913066 2.571896 2.346093 0 CFG=2
M  V30 3 C 0.764230 3.502258 2.435636 0
M  V30 4 C -0.099006 4.124387 1.653112 0
M  V30 5 C 0.129936 3.781664 0.262792 0
M  V30 6 O -0.766280 4.460691 -0.353026 0
M  V30 7 C 0.266487 3.513453 -1.141865 0 CFG=1
M  V30 8 O -0.625175 4.222072 -1.966672 0
M  V30 9 C 1.552837 3.359488 -1.822184 0 CFG=1
M  V30 10 O 2.592153 2.798972 -1.039969 0
M  V30 11 C 1.303393 2.119964 -2.792847 0
M  V30 12 C 0.989032 0.957765 -1.884683 0
M  V30 13 C 0.028842 0.107954 -1.585419 0
M  V30 14 C -0.152372 -0.994552 -0.666229 0
M  V30 15 C -0.292173 -2.159493 -1.378436 0
M  V30 16 C -0.471535 -3.433314 -0.883560 0
M  V30 17 N -0.619750 -4.592206 -1.655581 0
M  V30 18 C -0.709796 -4.912129 -3.051306 0
M  V30 19 C -2.052510 -4.734865 -3.668964 0
M  V30 20 N -2.647349 -3.477622 -3.719933 0
M  V30 21 C -2.147553 -2.480963 -4.573329 0
M  V30 22 C -2.570968 -1.081405 -4.247553 0
M  V30 23 O -3.145685 -0.948501 -3.008087 0
M  V30 24 C -4.195785 -1.804775 -2.815658 0
M  V30 25 C -3.883095 -3.254886 -3.082325 0
M  V30 26 C -0.509763 -3.504183 0.491008 0
M  V30 27 C -0.370201 -2.328759 1.242674 0
M  V30 28 O -0.442309 -2.642661 2.620013 0
M  V30 29 C -0.190854 -1.065337 0.699488 0
M  V30 30 C -0.086790 -0.206700 1.910702 0
M  V30 31 O -1.088604 -0.144080 2.685469 0
M  V30 32 O 1.136029 0.338661 1.907175 0
M  V30 33 C 1.649760 1.192803 2.900942 0 CFG=1
M  V30 34 C 2.871897 0.632070 3.564908 0
M  V30 35 H 2.899515 4.293775 3.295724 0
M  V30 36 H 3.818944 2.687538 3.441580 0
M  V30 37 H 2.342240 2.985738 4.409552 0
M  V30 38 H 2.534446 2.605486 1.478090 0
M  V30 39 H 0.504000 3.776908 3.458446 0
M  V30 40 H -0.841312 4.778651 2.041434 0
M  V30 41 H -0.163609 2.389781 -1.182081 0
M  V30 42 H -0.102486 4.886472 -2.491769 0
M  V30 43 H 1.970055 4.181982 -2.385186 0
M  V30 44 H 3.459525 2.992624 -1.477106 0
M  V30 45 H 2.170761 1.941657 -3.399475 0
M  V30 46 H 0.408406 2.397733 -3.340361 0
M  V30 47 H 1.918113 0.828766 -1.301049 0
M  V30 48 H -0.854895 0.305094 -2.206146 0
M  V30 49 H -0.260117 -2.165380 -2.464304 0
M  V30 50 H -0.695370 -5.513381 -1.120884 0
M  V30 51 H -0.007882 -4.222825 -3.650264 0
M  V30 52 H -0.315895 -5.926858 -3.274033 0
M  V30 53 H -2.763291 -5.425537 -3.114461 0
M  V30 54 H -2.077490 -5.166897 -4.721807 0
M  V30 55 H -2.494942 -2.675217 -5.637885 0
M  V30 56 H -1.046117 -2.519406 -4.653979 0
M  V30 57 H -3.326558 -0.699269 -4.996699 0
M  V30 58 H -1.735941 -0.355555 -4.326483 0
M  V30 59 H -5.072465 -1.466883 -3.405458 0
M  V30 60 H -4.520317 -1.655794 -1.743577 0
M  V30 61 H -3.874199 -3.781827 -2.105607 0
M  V30 62 H -4.768982 -3.689597 -3.622709 0
M  V30 63 H -0.647898 -4.491808 0.926972 0
M  V30 64 H 0.070437 -3.410143 3.027788 0
M  V30 65 H 0.834275 1.236310 3.680852 0
M  V30 66 H 3.770800 0.766972 2.894932 0
M  V30 67 H 3.094664 1.139875 4.511785 0
M  V30 68 H 2.771758 -0.470097 3.748083 0
M  V30 END ATOM
M  V30 BEGIN BOND
M  V30 1 1 1 2
M  V30 2 1 2 3
M  V30 3 2 3 4
M  V30 4 1 4 5
M  V30 5 2 5 6
M  V30 6 1 5 7
M  V30 7 1 7 8
M  V30 8 1 7 9
M  V30 9 1 9 10
M  V30 10 1 9 11
M  V30 11 1 11 12
M  V30 12 2 12 13
M  V30 13 1 13 14
M  V30 14 2 14 15
M  V30 15 1 15 16
M  V30 16 1 16 17
M  V30 17 1 17 18
M  V30 18 1 18 19
M  V30 19 1 19 20
M  V30 20 1 20 21
M  V30 21 1 21 22
M  V30 22 1 22 23
M  V30 23 1 23 24
M  V30 24 1 24 25
M  V30 25 2 16 26
M  V30 26 1 26 27
M  V30 27 1 27 28
M  V30 28 2 27 29
M  V30 29 1 29 30
M  V30 30 2 30 31
M  V30 31 1 30 32
M  V30 32 1 32 33
M  V30 33 1 33 34
M  V30 34 1 33 2
M  V30 35 1 29 14
M  V30 36 1 25 20
M  V30 37 1 1 35
M  V30 38 1 1 36
M  V30 39 1 1 37
M  V30 40 1 2 38 CFG=3
M  V30 41 1 3 39
M  V30 42 1 4 40
M  V30 43 1 7 41 CFG=1
M  V30 44 1 8 42
M  V30 45 1 9 43 CFG=3
M  V30 46 1 10 44
M  V30 47 1 11 45
M  V30 48 1 11 46
M  V30 49 1 12 47
M  V30 50 1 13 48
M  V30 51 1 15 49
M  V30 52 1 17 50
M  V30 53 1 18 51
M  V30 54 1 18 52
M  V30 55 1 19 53
M  V30 56 1 19 54
M  V30 57 1 21 55
M  V30 58 1 21 56
M  V30 59 1 22 57
M  V30 60 1 22 58
M  V30 61 1 24 59
M  V30 62 1 24 60
M  V30 63 1 25 61
M  V30 64 1 25 62
M  V30 65 1 26 63
M  V30 66 1 28 64
M  V30 67 1 33 65 CFG=1
M  V30 68 1 34 66
M  V30 69 1 34 67
M  V30 70 1 34 68
M  V30 END BOND
M  V30 END CTAB
M  END
>  <Dataset>  (406) 
ChEMBL_Kinases

>  <Ligand_Instance>  (406) 
nan

>  <PDB_ID>  (406) 
nan

>  <Standardized_SMILES>  (406) 
C[C@@H]1/C=C\C(=O)[C@@H](O)[C@@H](O)C/C=C/c2cc(NCCN3CCOCC3)cc(O)c2C(=O)O[C@H]1C

>  <Name>  (406) 
nan

>  <Pocket>  (406) 
nan

>  <ATP_Site>  (406) 
nan

>  <Peripheral>  (406) 
nan

>  <Num_H_Atoms_ProtBoundConf>  (406) 
nan

>  <Num_Resolved_Atoms>  (406) 
nan

>  <Num_Not_Resolved_Atoms>  (406) 
nan

$$$$
CHEMBL3975102
     RDKit          3D

  0  0  0  0  0  0  0  0  0  0999 V3000
M  V30 BEGIN CTAB
M  V30 COUNTS 56 59 0 0 0
M  V30 BEGIN ATOM
M  V30 1 C 5.028819 -1.960900 5.735063 0
M  V30 2 C 3.831690 -2.883913 5.590485 0
M  V30 3 C 3.547053 -3.166659 4.158729 0
M  V30 4 C 2.679533 -2.339413 3.473283 0
M  V30 5 C 2.400670 -2.578070 2.146897 0
M  V30 6 C 2.969596 -3.636450 1.464214 0
M  V30 7 N 2.762881 -3.978363 0.127014 0
M  V30 8 C 2.587173 -3.047263 -0.779442 0
M  V30 9 S 2.545088 -1.232804 -0.700244 0
M  V30 10 C 1.369585 -1.113207 -2.078236 0
M  V30 11 C 0.445435 -0.195317 -2.296740 0
M  V30 12 C 0.230241 0.928807 -1.391771 0
M  V30 13 C 1.276023 1.574965 -0.774117 0
M  V30 14 C 0.968834 2.616806 0.062946 0
M  V30 15 N -0.276267 3.035631 0.310316 0
M  V30 16 C -1.338570 2.447511 -0.260558 0
M  V30 17 N -2.634986 2.935146 0.018697 0
M  V30 18 C -3.949462 2.526293 -0.267622 0
M  V30 19 C -5.009264 3.414463 -0.476686 0
M  V30 20 C -6.275769 2.940289 -0.731682 0
M  V30 21 C -6.554273 1.604055 -0.791691 0
M  V30 22 C -7.946931 1.121567 -1.069780 0
M  V30 23 O -8.172344 0.964660 -2.429330 0
M  V30 24 C -5.506159 0.719792 -0.584451 0
M  V30 25 C -4.232996 1.199781 -0.327957 0
M  V30 26 C -1.031113 1.402184 -1.101203 0
M  V30 27 C 1.713331 -2.291234 -2.873029 0
M  V30 28 O 1.423988 -2.344586 -4.121848 0
M  V30 29 N 2.364858 -3.313572 -2.156275 0
M  V30 30 C 2.787730 -4.578138 -2.790379 0
M  V30 31 C 3.834099 -4.447970 2.175583 0
M  V30 32 C 4.152087 -4.250402 3.525525 0
M  V30 33 H 5.776784 -2.249168 4.961866 0
M  V30 34 H 4.776574 -0.892628 5.628217 0
M  V30 35 H 5.505278 -2.186853 6.724314 0
M  V30 36 H 4.075209 -3.832631 6.105036 0
M  V30 37 H 2.946263 -2.441778 6.104180 0
M  V30 38 H 2.176139 -1.479851 3.908708 0
M  V30 39 H 1.734672 -1.952550 1.602383 0
M  V30 40 H -0.131148 -0.346496 -3.192403 0
M  V30 41 H 2.301711 1.283858 -0.934194 0
M  V30 42 H 1.756823 3.170275 0.583153 0
M  V30 43 H -2.683469 3.827888 0.584413 0
M  V30 44 H -4.779825 4.483916 -0.426793 0
M  V30 45 H -7.058059 3.656524 -0.886122 0
M  V30 46 H -8.018338 0.113775 -0.566673 0
M  V30 47 H -8.705267 1.801741 -0.655230 0
M  V30 48 H -7.674137 0.134290 -2.686664 0
M  V30 49 H -5.809179 -0.333284 -0.649168 0
M  V30 50 H -3.571448 0.364181 -0.184374 0
M  V30 51 H -1.825967 0.882628 -1.612570 0
M  V30 52 H 3.841733 -4.487325 -3.184978 0
M  V30 53 H 2.761027 -5.376836 -2.041597 0
M  V30 54 H 2.088439 -4.824509 -3.614254 0
M  V30 55 H 4.323251 -5.298172 1.719265 0
M  V30 56 H 4.825859 -4.896547 4.050618 0
M  V30 END ATOM
M  V30 BEGIN BOND
M  V30 1 1 1 2
M  V30 2 1 2 3
M  V30 3 2 3 4
M  V30 4 1 4 5
M  V30 5 2 5 6
M  V30 6 1 6 7
M  V30 7 2 7 8
M  V30 8 1 8 9
M  V30 9 1 9 10
M  V30 10 2 10 11
M  V30 11 1 11 12
M  V30 12 2 12 13
M  V30 13 1 13 14
M  V30 14 2 14 15
M  V30 15 1 15 16
M  V30 16 1 16 17
M  V30 17 1 17 18
M  V30 18 2 18 19
M  V30 19 1 19 20
M  V30 20 2 20 21
M  V30 21 1 21 22
M  V30 22 1 22 23
M  V30 23 1 21 24
M  V30 24 2 24 25
M  V30 25 2 16 26
M  V30 26 1 10 27
M  V30 27 2 27 28
M  V30 28 1 27 29
M  V30 29 1 29 30
M  V30 30 1 6 31
M  V30 31 2 31 32
M  V30 32 1 32 3
M  V30 33 1 29 8
M  V30 34 1 26 12
M  V30 35 1 25 18
M  V30 36 1 1 33
M  V30 37 1 1 34
M  V30 38 1 1 35
M  V30 39 1 2 36
M  V30 40 1 2 37
M  V30 41 1 4 38
M  V30 42 1 5 39
M  V30 43 1 11 40
M  V30 44 1 13 41
M  V30 45 1 14 42
M  V30 46 1 17 43
M  V30 47 1 19 44
M  V30 48 1 20 45
M  V30 49 1 22 46
M  V30 50 1 22 47
M  V30 51 1 23 48
M  V30 52 1 24 49
M  V30 53 1 25 50
M  V30 54 1 26 51
M  V30 55 1 30 52
M  V30 56 1 30 53
M  V30 57 1 30 54
M  V30 58 1 31 55
M  V30 59 1 32 56
M  V30 END BOND
M  V30 END CTAB
M  END
>  <Dataset>  (407) 
ChEMBL_Kinases

>  <Ligand_Instance>  (407) 
nan

>  <PDB_ID>  (407) 
nan

>  <Standardized_SMILES>  (407) 
CCc1ccc(/N=C2\S/C(=C\c3ccnc(Nc4ccc(CO)cc4)c3)C(=O)N2C)cc1

>  <Name>  (407) 
nan

>  <Pocket>  (407) 
nan

>  <ATP_Site>  (407) 
nan

>  <Peripheral>  (407) 
nan

>  <Num_H_Atoms_ProtBoundConf>  (407) 
nan

>  <Num_Resolved_Atoms>  (407) 
nan

>  <Num_Not_Resolved_Atoms>  (407) 
nan

$$$$
CHEMBL3975092
     RDKit          3D

  0  0  0  0  0  0  0  0  0  0999 V3000
M  V30 BEGIN CTAB
M  V30 COUNTS 40 43 0 0 0
M  V30 BEGIN ATOM
M  V30 1 C -1.457615 -2.250838 2.791636 0
M  V30 2 C -0.616533 -2.799157 1.964684 0
M  V30 3 C 0.455849 -2.398898 1.093656 0
M  V30 4 N 1.127239 -3.329078 0.351442 0
M  V30 5 N 2.054931 -2.733903 -0.360524 0
M  V30 6 C 2.086529 -1.406080 -0.166727 0
M  V30 7 C 2.850454 -0.371880 -0.662292 0
M  V30 8 C 2.582316 0.905730 -0.214791 0
M  V30 9 O 3.347214 1.962416 -0.707465 0
M  V30 10 C 2.957811 2.651383 -1.851963 0
M  V30 11 C 1.835379 2.410971 -2.619030 0
M  V30 12 C 1.592351 3.198700 -3.740163 0
M  V30 13 C 2.481042 4.190628 -4.044430 0
M  V30 14 C 3.613192 4.457054 -3.297933 0
M  V30 15 C 3.836151 3.663246 -2.188494 0
M  V30 16 C 1.569035 1.094628 0.702769 0
M  V30 17 C 0.817923 0.045409 1.184632 0
M  V30 18 C 1.075047 -1.227709 0.747504 0
M  V30 19 C -2.503845 -2.849375 3.606730 0
M  V30 20 C -2.820495 -4.172736 3.663041 0
M  V30 21 C -3.816477 -4.721297 4.442512 0
M  V30 22 C -4.543003 -3.847250 5.223480 0
M  V30 23 C -4.257386 -2.506453 5.197212 0
M  V30 24 C -3.251035 -2.009828 4.400020 0
M  V30 25 H -1.306206 -1.195144 2.835297 0
M  V30 26 H -0.870388 -3.874371 2.007341 0
M  V30 27 H 2.668589 -3.300806 -0.991667 0
M  V30 28 H 3.607857 -0.620632 -1.366078 0
M  V30 29 H 1.215224 1.593861 -2.264634 0
M  V30 30 H 0.717729 2.980524 -4.302810 0
M  V30 31 H 2.244743 4.769783 -4.922122 0
M  V30 32 H 4.229119 5.269589 -3.651026 0
M  V30 33 H 4.744227 3.918679 -1.637207 0
M  V30 34 H 1.404145 2.103083 1.015113 0
M  V30 35 H 0.044812 0.247425 1.894360 0
M  V30 36 H -2.264899 -4.871715 3.060729 0
M  V30 37 H -4.020076 -5.781975 4.443765 0
M  V30 38 H -5.332003 -4.279669 5.841316 0
M  V30 39 H -4.827045 -1.823324 5.809183 0
M  V30 40 H -3.068419 -0.939436 4.418763 0
M  V30 END ATOM
M  V30 BEGIN BOND
M  V30 1 2 1 2
M  V30 2 1 2 3
M  V30 3 2 3 4
M  V30 4 1 4 5
M  V30 5 1 5 6
M  V30 6 2 6 7
M  V30 7 1 7 8
M  V30 8 1 8 9
M  V30 9 1 9 10
M  V30 10 2 10 11
M  V30 11 1 11 12
M  V30 12 2 12 13
M  V30 13 1 13 14
M  V30 14 2 14 15
M  V30 15 2 8 16
M  V30 16 1 16 17
M  V30 17 2 17 18
M  V30 18 1 1 19
M  V30 19 2 19 20
M  V30 20 1 20 21
M  V30 21 2 21 22
M  V30 22 1 22 23
M  V30 23 2 23 24
M  V30 24 1 18 3
M  V30 25 1 24 19
M  V30 26 1 18 6
M  V30 27 1 15 10
M  V30 28 1 1 25
M  V30 29 1 2 26
M  V30 30 1 5 27
M  V30 31 1 7 28
M  V30 32 1 11 29
M  V30 33 1 12 30
M  V30 34 1 13 31
M  V30 35 1 14 32
M  V30 36 1 15 33
M  V30 37 1 16 34
M  V30 38 1 17 35
M  V30 39 1 20 36
M  V30 40 1 21 37
M  V30 41 1 22 38
M  V30 42 1 23 39
M  V30 43 1 24 40
M  V30 END BOND
M  V30 END CTAB
M  END
>  <Dataset>  (408) 
ChEMBL_Kinases

>  <Ligand_Instance>  (408) 
nan

>  <PDB_ID>  (408) 
nan

>  <Standardized_SMILES>  (408) 
C(=C/c1n[nH]c2cc(Oc3ccccc3)ccc12)\c1ccccc1

>  <Name>  (408) 
nan

>  <Pocket>  (408) 
nan

>  <ATP_Site>  (408) 
nan

>  <Peripheral>  (408) 
nan

>  <Num_H_Atoms_ProtBoundConf>  (408) 
nan

>  <Num_Resolved_Atoms>  (408) 
nan

>  <Num_Not_Resolved_Atoms>  (408) 
nan

$$$$
CHEMBL3974813
     RDKit          3D

  0  0  0  0  0  0  0  0  0  0999 V3000
M  V30 BEGIN CTAB
M  V30 COUNTS 32 35 0 0 0
M  V30 BEGIN ATOM
M  V30 1 O 4.944879 -3.997770 -1.521224 0
M  V30 2 C 3.705945 -4.141229 -1.305867 0
M  V30 3 O 3.359507 -5.439043 -1.644156 0
M  V30 4 C 2.800447 -3.104348 -0.786701 0
M  V30 5 C 1.432907 -3.288004 -0.557053 0
M  V30 6 C 0.731749 -2.201793 -0.065246 0
M  V30 7 C 1.357679 -0.995284 0.185349 0
M  V30 8 C 2.707943 -0.818566 -0.042860 0
M  V30 9 C 3.418660 -1.896077 -0.533923 0
M  V30 10 N 3.069473 0.447396 0.282234 0
M  V30 11 C 1.929296 1.051611 0.713702 0
M  V30 12 O 1.833818 2.229496 1.107075 0
M  V30 13 N 0.893407 0.177691 0.654792 0
M  V30 14 C -0.443267 0.494931 1.036683 0
M  V30 15 N -0.663969 0.978557 2.293215 0
M  V30 16 C -1.982785 1.213528 2.454022 0
M  V30 17 C -2.739878 1.694767 3.504843 0
M  V30 18 C -4.101955 1.807859 3.312276 0
M  V30 19 C -4.734130 1.463265 2.123986 0
M  V30 20 C -3.943085 0.981990 1.085670 0
M  V30 21 C -2.577100 0.855528 1.242676 0
M  V30 22 N -1.625164 0.422152 0.396610 0
M  V30 23 H 3.944777 -6.258500 -1.440443 0
M  V30 24 H 1.031017 -4.266403 -0.782509 0
M  V30 25 H -0.328969 -2.346013 0.112310 0
M  V30 26 H 4.473250 -1.717865 -0.699429 0
M  V30 27 H 4.033471 0.836213 0.202551 0
M  V30 28 H -2.256312 1.963781 4.428807 0
M  V30 29 H -4.694257 2.181763 4.127191 0
M  V30 30 H -5.798286 1.549961 1.968934 0
M  V30 31 H -4.399111 0.696720 0.126961 0
M  V30 32 H -1.682070 0.079391 -0.573103 0
M  V30 END ATOM
M  V30 BEGIN BOND
M  V30 1 2 1 2
M  V30 2 1 2 3
M  V30 3 1 2 4
M  V30 4 2 4 5
M  V30 5 1 5 6
M  V30 6 2 6 7
M  V30 7 1 7 8
M  V30 8 2 8 9
M  V30 9 1 8 10
M  V30 10 1 10 11
M  V30 11 2 11 12
M  V30 12 1 11 13
M  V30 13 1 13 14
M  V30 14 2 14 15
M  V30 15 1 15 16
M  V30 16 2 16 17
M  V30 17 1 17 18
M  V30 18 2 18 19
M  V30 19 1 19 20
M  V30 20 2 20 21
M  V30 21 1 21 22
M  V30 22 1 9 4
M  V30 23 1 22 14
M  V30 24 1 13 7
M  V30 25 1 21 16
M  V30 26 1 3 23
M  V30 27 1 5 24
M  V30 28 1 6 25
M  V30 29 1 9 26
M  V30 30 1 10 27
M  V30 31 1 17 28
M  V30 32 1 18 29
M  V30 33 1 19 30
M  V30 34 1 20 31
M  V30 35 1 22 32
M  V30 END BOND
M  V30 END CTAB
M  END
>  <Dataset>  (409) 
ChEMBL_Kinases

>  <Ligand_Instance>  (409) 
nan

>  <PDB_ID>  (409) 
nan

>  <Standardized_SMILES>  (409) 
O=C(O)c1ccc2c(c1)[nH]c(=O)n2-c1nc2ccccc2[nH]1

>  <Name>  (409) 
nan

>  <Pocket>  (409) 
nan

>  <ATP_Site>  (409) 
nan

>  <Peripheral>  (409) 
nan

>  <Num_H_Atoms_ProtBoundConf>  (409) 
nan

>  <Num_Resolved_Atoms>  (409) 
nan

>  <Num_Not_Resolved_Atoms>  (409) 
nan

$$$$
CHEMBL3974799
     RDKit          3D

  0  0  0  0  0  0  0  0  0  0999 V3000
M  V30 BEGIN CTAB
M  V30 COUNTS 46 48 0 0 0
M  V30 BEGIN ATOM
M  V30 1 C -0.749767 -5.049777 2.512671 0
M  V30 2 C 0.323403 -4.494149 1.657116 0
M  V30 3 C 0.339467 -3.457692 0.722260 0
M  V30 4 C 1.625295 -3.305189 0.178621 0
M  V30 5 N 1.950636 -2.335698 -0.813007 0
M  V30 6 C 2.053966 -0.925502 -0.685361 0
M  V30 7 C 2.410691 -0.232821 -1.824612 0
M  V30 8 C 2.456713 1.153904 -1.676460 0
M  V30 9 C 2.816501 2.096691 -2.777122 0
M  V30 10 C 2.161908 1.750424 -0.467650 0
M  V30 11 C 2.203643 3.183209 -0.272088 0
M  V30 12 N 2.238685 4.345822 -0.094906 0
M  V30 13 C 1.808462 1.011568 0.648950 0
M  V30 14 N 1.415215 1.483528 1.928249 0
M  V30 15 C 1.076229 0.799888 3.110978 0
M  V30 16 C 0.060833 -0.276684 3.097921 0
M  V30 17 O -1.191304 -0.013130 2.715144 0
M  V30 18 C -1.998458 0.370532 1.761797 0
M  V30 19 C -1.890553 0.738779 0.439970 0
M  V30 20 C -2.930022 1.118467 -0.408388 0
M  V30 21 C -4.166205 1.109948 0.174807 0
M  V30 22 C -4.427888 0.770036 1.466326 0
M  V30 23 C -3.321749 0.401932 2.241728 0
M  V30 24 Cl -3.832173 -0.008625 3.896173 0
M  V30 25 N 1.779922 -0.309324 0.455228 0
M  V30 26 N 2.380764 -4.255156 0.792793 0
M  V30 27 N 1.605910 -4.939272 1.651417 0
M  V30 28 H -0.317707 -5.267844 3.538501 0
M  V30 29 H -1.219874 -5.964074 2.131652 0
M  V30 30 H -1.551545 -4.306505 2.709943 0
M  V30 31 H -0.572485 -2.907936 0.524654 0
M  V30 32 H 2.105112 -2.838154 -1.720505 0
M  V30 33 H 2.657077 -0.615473 -2.800627 0
M  V30 34 H 3.817690 2.520226 -2.529076 0
M  V30 35 H 2.880221 1.510066 -3.703062 0
M  V30 36 H 2.049453 2.904003 -2.874561 0
M  V30 37 H 1.395696 2.546022 1.898480 0
M  V30 38 H 0.710638 1.560277 3.873871 0
M  V30 39 H 2.010480 0.385567 3.589039 0
M  V30 40 H 0.083148 -0.698331 4.171917 0
M  V30 41 H 0.511338 -1.193565 2.543269 0
M  V30 42 H -0.892741 0.700967 0.090739 0
M  V30 43 H -2.635680 1.370924 -1.411705 0
M  V30 44 H -4.952138 1.410059 -0.524214 0
M  V30 45 H -5.452720 0.811513 1.757287 0
M  V30 46 H 2.062207 -5.705921 2.189744 0
M  V30 END ATOM
M  V30 BEGIN BOND
M  V30 1 1 1 2
M  V30 2 2 2 3
M  V30 3 1 3 4
M  V30 4 1 4 5
M  V30 5 1 5 6
M  V30 6 2 6 7
M  V30 7 1 7 8
M  V30 8 1 8 9
M  V30 9 2 8 10
M  V30 10 1 10 11
M  V30 11 3 11 12
M  V30 12 1 10 13
M  V30 13 1 13 14
M  V30 14 1 14 15
M  V30 15 1 15 16
M  V30 16 1 16 17
M  V30 17 1 17 18
M  V30 18 2 18 19
M  V30 19 1 19 20
M  V30 20 2 20 21
M  V30 21 1 21 22
M  V30 22 2 22 23
M  V30 23 1 23 24
M  V30 24 2 13 25
M  V30 25 2 4 26
M  V30 26 1 26 27
M  V30 27 1 27 2
M  V30 28 1 25 6
M  V30 29 1 23 18
M  V30 30 1 1 28
M  V30 31 1 1 29
M  V30 32 1 1 30
M  V30 33 1 3 31
M  V30 34 1 5 32
M  V30 35 1 7 33
M  V30 36 1 9 34
M  V30 37 1 9 35
M  V30 38 1 9 36
M  V30 39 1 14 37
M  V30 40 1 15 38
M  V30 41 1 15 39
M  V30 42 1 16 40
M  V30 43 1 16 41
M  V30 44 1 19 42
M  V30 45 1 20 43
M  V30 46 1 21 44
M  V30 47 1 22 45
M  V30 48 1 27 46
M  V30 END BOND
M  V30 END CTAB
M  END
>  <Dataset>  (410) 
ChEMBL_Kinases

>  <Ligand_Instance>  (410) 
nan

>  <PDB_ID>  (410) 
nan

>  <Standardized_SMILES>  (410) 
Cc1cc(Nc2cc(C)c(C#N)c(NCCOc3ccccc3Cl)n2)n[nH]1

>  <Name>  (410) 
nan

>  <Pocket>  (410) 
nan

>  <ATP_Site>  (410) 
nan

>  <Peripheral>  (410) 
nan

>  <Num_H_Atoms_ProtBoundConf>  (410) 
nan

>  <Num_Resolved_Atoms>  (410) 
nan

>  <Num_Not_Resolved_Atoms>  (410) 
nan

$$$$
CHEMBL3701794
     RDKit          3D

  0  0  0  0  0  0  0  0  0  0999 V3000
M  V30 BEGIN CTAB
M  V30 COUNTS 68 70 0 0 0
M  V30 BEGIN ATOM
M  V30 1 C 3.771161 0.003501 5.397118 0
M  V30 2 C 2.709400 0.739993 4.613599 0
M  V30 3 C 1.509948 -0.169016 4.370631 0
M  V30 4 C 2.278565 2.019919 5.296009 0
M  V30 5 O 3.290176 1.121812 3.359388 0
M  V30 6 C 3.785630 0.216532 2.466650 0
M  V30 7 O 3.778957 -1.025540 2.659439 0
M  V30 8 N 4.363970 0.584206 1.219455 0
M  V30 9 C 4.875013 -0.420231 0.309921 0
M  V30 10 C 4.013007 -0.521850 -0.919701 0
M  V30 11 C 3.364937 0.781195 -1.296057 0
M  V30 12 C 1.888552 0.727498 -0.896661 0
M  V30 13 N 1.191752 1.930396 -1.220135 0
M  V30 14 S -0.486401 1.812035 -0.741437 0
M  V30 15 O -1.187213 3.125151 -1.015978 0
M  V30 16 O -0.554307 1.604072 0.729021 0
M  V30 17 C -1.270183 0.507446 -1.602251 0
M  V30 18 C -1.921922 0.576883 -2.813554 0
M  V30 19 C -2.487320 -0.558791 -3.350414 0
M  V30 20 C -2.416754 -1.775027 -2.699744 0
M  V30 21 C -1.770112 -1.879215 -1.482772 0
M  V30 22 S -1.657697 -3.413378 -0.619442 0
M  V30 23 O -1.639251 -4.537205 -1.596012 0
M  V30 24 O -0.409584 -3.377125 0.198178 0
M  V30 25 N -3.036657 -3.567032 0.432534 0
M  V30 26 C -4.347901 -3.595338 -0.115109 0
M  V30 27 C -4.681690 -4.351260 -1.218584 0
M  V30 28 C -5.968275 -4.335076 -1.699785 0
M  V30 29 C -6.979185 -3.576949 -1.118029 0
M  V30 30 C -8.374146 -3.581350 -1.668502 0
M  V30 31 F -8.421287 -4.577987 -2.631301 0
M  V30 32 F -9.294813 -3.815603 -0.678096 0
M  V30 33 F -8.648214 -2.378020 -2.292417 0
M  V30 34 C -6.654616 -2.817489 -0.013611 0
M  V30 35 C -5.352888 -2.841816 0.462933 0
M  V30 36 C -1.203685 -0.728239 -0.950680 0
M  V30 37 C 4.050112 1.990317 -0.774134 0
M  V30 38 C 4.557651 1.888427 0.628261 0
M  V30 39 H 3.668192 0.185840 6.484226 0
M  V30 40 H 4.788120 0.326256 5.059913 0
M  V30 41 H 3.638177 -1.101835 5.225933 0
M  V30 42 H 1.124112 0.064436 3.355618 0
M  V30 43 H 0.742638 0.028047 5.147210 0
M  V30 44 H 1.807172 -1.236460 4.336162 0
M  V30 45 H 2.356139 1.833973 6.389347 0
M  V30 46 H 2.896501 2.869602 4.956516 0
M  V30 47 H 1.188473 2.220120 5.090543 0
M  V30 48 H 4.883564 -1.390474 0.842582 0
M  V30 49 H 5.936901 -0.191018 0.088030 0
M  V30 50 H 3.249266 -1.303709 -0.724231 0
M  V30 51 H 4.664057 -0.934306 -1.731995 0
M  V30 52 H 3.372471 0.838690 -2.403872 0
M  V30 53 H 1.841403 0.615433 0.222795 0
M  V30 54 H 1.406941 -0.189928 -1.290627 0
M  V30 55 H 1.153982 2.016157 -2.278455 0
M  V30 56 H -1.934888 1.547985 -3.254039 0
M  V30 57 H -2.989773 -0.476005 -4.297159 0
M  V30 58 H -2.853825 -2.688513 -3.099449 0
M  V30 59 H -2.921112 -3.639801 1.469408 0
M  V30 60 H -3.935819 -4.957186 -1.707977 0
M  V30 61 H -6.176389 -4.949126 -2.571593 0
M  V30 62 H -7.445292 -2.228594 0.436068 0
M  V30 63 H -5.186501 -2.216416 1.333221 0
M  V30 64 H -0.702000 -0.867878 0.019497 0
M  V30 65 H 3.328086 2.837562 -0.803389 0
M  V30 66 H 4.888527 2.300484 -1.455694 0
M  V30 67 H 5.647307 2.097742 0.655755 0
M  V30 68 H 4.081621 2.622213 1.311689 0
M  V30 END ATOM
M  V30 BEGIN BOND
M  V30 1 1 1 2
M  V30 2 1 2 3
M  V30 3 1 2 4
M  V30 4 1 2 5
M  V30 5 1 5 6
M  V30 6 2 6 7
M  V30 7 1 6 8
M  V30 8 1 8 9
M  V30 9 1 9 10
M  V30 10 1 10 11
M  V30 11 1 11 12
M  V30 12 1 12 13
M  V30 13 1 13 14
M  V30 14 2 14 15
M  V30 15 2 14 16
M  V30 16 1 14 17
M  V30 17 2 17 18
M  V30 18 1 18 19
M  V30 19 2 19 20
M  V30 20 1 20 21
M  V30 21 1 21 22
M  V30 22 2 22 23
M  V30 23 2 22 24
M  V30 24 1 22 25
M  V30 25 1 25 26
M  V30 26 2 26 27
M  V30 27 1 27 28
M  V30 28 2 28 29
M  V30 29 1 29 30
M  V30 30 1 30 31
M  V30 31 1 30 32
M  V30 32 1 30 33
M  V30 33 1 29 34
M  V30 34 2 34 35
M  V30 35 2 21 36
M  V30 36 1 11 37
M  V30 37 1 37 38
M  V30 38 1 38 8
M  V30 39 1 36 17
M  V30 40 1 35 26
M  V30 41 1 1 39
M  V30 42 1 1 40
M  V30 43 1 1 41
M  V30 44 1 3 42
M  V30 45 1 3 43
M  V30 46 1 3 44
M  V30 47 1 4 45
M  V30 48 1 4 46
M  V30 49 1 4 47
M  V30 50 1 9 48
M  V30 51 1 9 49
M  V30 52 1 10 50
M  V30 53 1 10 51
M  V30 54 1 11 52
M  V30 55 1 12 53
M  V30 56 1 12 54
M  V30 57 1 13 55
M  V30 58 1 18 56
M  V30 59 1 19 57
M  V30 60 1 20 58
M  V30 61 1 25 59
M  V30 62 1 27 60
M  V30 63 1 28 61
M  V30 64 1 34 62
M  V30 65 1 35 63
M  V30 66 1 36 64
M  V30 67 1 37 65
M  V30 68 1 37 66
M  V30 69 1 38 67
M  V30 70 1 38 68
M  V30 END BOND
M  V30 END CTAB
M  END
>  <Dataset>  (411) 
ChEMBL_Kinases

>  <Ligand_Instance>  (411) 
nan

>  <PDB_ID>  (411) 
nan

>  <Standardized_SMILES>  (411) 
CC(C)(C)OC(=O)N1CCC(CNS(=O)(=O)c2cccc(S(=O)(=O)Nc3ccc(C(F)(F)F)cc3)c2)CC1

>  <Name>  (411) 
nan

>  <Pocket>  (411) 
nan

>  <ATP_Site>  (411) 
nan

>  <Peripheral>  (411) 
nan

>  <Num_H_Atoms_ProtBoundConf>  (411) 
nan

>  <Num_Resolved_Atoms>  (411) 
nan

>  <Num_Not_Resolved_Atoms>  (411) 
nan

$$$$
CHEMBL3701797
     RDKit          3D

  0  0  0  0  0  0  0  0  0  0999 V3000
M  V30 BEGIN CTAB
M  V30 COUNTS 77 79 0 0 0
M  V30 BEGIN ATOM
M  V30 1 C 1.252211 -0.654140 4.530880 0
M  V30 2 C 1.776139 0.738489 4.802321 0
M  V30 3 C 2.760364 0.712881 5.953708 0
M  V30 4 C 0.615427 1.625619 5.210504 0
M  V30 5 O 2.356834 1.314018 3.646396 0
M  V30 6 C 3.430380 0.762498 2.984091 0
M  V30 7 O 3.978094 -0.319753 3.376886 0
M  V30 8 N 4.085134 1.255201 1.823655 0
M  V30 9 C 5.198316 0.458460 1.340874 0
M  V30 10 C 4.665970 -0.247695 0.107940 0
M  V30 11 C 4.102940 0.690860 -0.889570 0
M  V30 12 C 2.682255 0.235411 -1.230264 0
M  V30 13 N 2.077590 1.109484 -2.199428 0
M  V30 14 S 0.487552 0.682211 -2.643694 0
M  V30 15 O -0.430857 0.737175 -1.442624 0
M  V30 16 O -0.004679 1.738187 -3.607536 0
M  V30 17 C 0.381130 -0.904016 -3.394089 0
M  V30 18 C 0.488851 -1.189828 -4.743015 0
M  V30 19 C 0.380804 -2.496281 -5.169186 0
M  V30 20 C 0.165013 -3.528393 -4.258943 0
M  V30 21 C 0.050631 -3.295785 -2.905837 0
M  V30 22 S -0.220646 -4.555540 -1.721498 0
M  V30 23 O 0.396155 -5.825567 -2.233452 0
M  V30 24 O 0.393291 -4.215584 -0.393952 0
M  V30 25 N -1.908319 -4.812226 -1.476879 0
M  V30 26 C -2.668690 -3.703455 -0.973579 0
M  V30 27 C -2.369763 -2.844096 0.043422 0
M  V30 28 C -3.253899 -1.840029 0.360675 0
M  V30 29 C -4.445833 -1.670885 -0.322365 0
M  V30 30 C -5.415732 -0.599508 -0.003253 0
M  V30 31 C -6.417693 -1.081404 1.037118 0
M  V30 32 C -4.677782 0.584900 0.569078 0
M  V30 33 C -6.159455 -0.200781 -1.261734 0
M  V30 34 C -4.760157 -2.546938 -1.365786 0
M  V30 35 C -3.861033 -3.556047 -1.677260 0
M  V30 36 C 0.165895 -1.957366 -2.512909 0
M  V30 37 C 4.106326 2.130154 -0.475669 0
M  V30 38 C 3.911131 2.401536 0.965683 0
M  V30 39 H 0.380740 -0.809399 5.205975 0
M  V30 40 H 2.040572 -1.372346 4.840182 0
M  V30 41 H 0.918820 -0.778476 3.491870 0
M  V30 42 H 3.815312 0.561716 5.594795 0
M  V30 43 H 2.744262 1.694745 6.480228 0
M  V30 44 H 2.500171 -0.127517 6.639423 0
M  V30 45 H -0.258236 1.246884 4.602544 0
M  V30 46 H 0.389745 1.534934 6.297883 0
M  V30 47 H 0.806724 2.648323 4.865398 0
M  V30 48 H 5.522024 -0.327686 2.047306 0
M  V30 49 H 6.081236 1.036352 1.059240 0
M  V30 50 H 5.525919 -0.785228 -0.324590 0
M  V30 51 H 3.927603 -1.015726 0.403863 0
M  V30 52 H 4.677476 0.628864 -1.835307 0
M  V30 53 H 2.685572 -0.779401 -1.664815 0
M  V30 54 H 2.049507 0.203112 -0.319465 0
M  V30 55 H 2.668212 1.279416 -3.019722 0
M  V30 56 H 0.654984 -0.329133 -5.371180 0
M  V30 57 H 0.468681 -2.692908 -6.227866 0
M  V30 58 H 0.078164 -4.553020 -4.571742 0
M  V30 59 H -2.344992 -5.729993 -1.687094 0
M  V30 60 H -1.439361 -3.039509 0.517053 0
M  V30 61 H -2.998235 -1.168723 1.170594 0
M  V30 62 H -7.202587 -0.292936 1.092325 0
M  V30 63 H -6.823953 -2.071384 0.761822 0
M  V30 64 H -5.869040 -1.108951 1.998108 0
M  V30 65 H -5.234011 1.499216 0.268199 0
M  V30 66 H -3.620311 0.629486 0.209353 0
M  V30 67 H -4.679895 0.562650 1.693940 0
M  V30 68 H -6.995420 -0.931907 -1.385631 0
M  V30 69 H -5.482895 -0.378866 -2.135751 0
M  V30 70 H -6.475593 0.842159 -1.241367 0
M  V30 71 H -5.682405 -2.408358 -1.886980 0
M  V30 72 H -4.197270 -4.188434 -2.507485 0
M  V30 73 H 0.071590 -1.795203 -1.427243 0
M  V30 74 H 3.309135 2.649973 -1.051435 0
M  V30 75 H 5.063838 2.628977 -0.807501 0
M  V30 76 H 2.871485 2.800572 1.154489 0
M  V30 77 H 4.600279 3.192965 1.325546 0
M  V30 END ATOM
M  V30 BEGIN BOND
M  V30 1 1 1 2
M  V30 2 1 2 3
M  V30 3 1 2 4
M  V30 4 1 2 5
M  V30 5 1 5 6
M  V30 6 2 6 7
M  V30 7 1 6 8
M  V30 8 1 8 9
M  V30 9 1 9 10
M  V30 10 1 10 11
M  V30 11 1 11 12
M  V30 12 1 12 13
M  V30 13 1 13 14
M  V30 14 2 14 15
M  V30 15 2 14 16
M  V30 16 1 14 17
M  V30 17 2 17 18
M  V30 18 1 18 19
M  V30 19 2 19 20
M  V30 20 1 20 21
M  V30 21 1 21 22
M  V30 22 2 22 23
M  V30 23 2 22 24
M  V30 24 1 22 25
M  V30 25 1 25 26
M  V30 26 2 26 27
M  V30 27 1 27 28
M  V30 28 2 28 29
M  V30 29 1 29 30
M  V30 30 1 30 31
M  V30 31 1 30 32
M  V30 32 1 30 33
M  V30 33 1 29 34
M  V30 34 2 34 35
M  V30 35 2 21 36
M  V30 36 1 11 37
M  V30 37 1 37 38
M  V30 38 1 38 8
M  V30 39 1 36 17
M  V30 40 1 35 26
M  V30 41 1 1 39
M  V30 42 1 1 40
M  V30 43 1 1 41
M  V30 44 1 3 42
M  V30 45 1 3 43
M  V30 46 1 3 44
M  V30 47 1 4 45
M  V30 48 1 4 46
M  V30 49 1 4 47
M  V30 50 1 9 48
M  V30 51 1 9 49
M  V30 52 1 10 50
M  V30 53 1 10 51
M  V30 54 1 11 52
M  V30 55 1 12 53
M  V30 56 1 12 54
M  V30 57 1 13 55
M  V30 58 1 18 56
M  V30 59 1 19 57
M  V30 60 1 20 58
M  V30 61 1 25 59
M  V30 62 1 27 60
M  V30 63 1 28 61
M  V30 64 1 31 62
M  V30 65 1 31 63
M  V30 66 1 31 64
M  V30 67 1 32 65
M  V30 68 1 32 66
M  V30 69 1 32 67
M  V30 70 1 33 68
M  V30 71 1 33 69
M  V30 72 1 33 70
M  V30 73 1 34 71
M  V30 74 1 35 72
M  V30 75 1 36 73
M  V30 76 1 37 74
M  V30 77 1 37 75
M  V30 78 1 38 76
M  V30 79 1 38 77
M  V30 END BOND
M  V30 END CTAB
M  END
>  <Dataset>  (412) 
ChEMBL_Kinases

>  <Ligand_Instance>  (412) 
nan

>  <PDB_ID>  (412) 
nan

>  <Standardized_SMILES>  (412) 
CC(C)(C)OC(=O)N1CCC(CNS(=O)(=O)c2cccc(S(=O)(=O)Nc3ccc(C(C)(C)C)cc3)c2)CC1

>  <Name>  (412) 
nan

>  <Pocket>  (412) 
nan

>  <ATP_Site>  (412) 
nan

>  <Peripheral>  (412) 
nan

>  <Num_H_Atoms_ProtBoundConf>  (412) 
nan

>  <Num_Resolved_Atoms>  (412) 
nan

>  <Num_Not_Resolved_Atoms>  (412) 
nan

$$$$
CHEMBL3701798
     RDKit          3D

  0  0  0  0  0  0  0  0  0  0999 V3000
M  V30 BEGIN CTAB
M  V30 COUNTS 80 83 0 0 0
M  V30 BEGIN ATOM
M  V30 1 C 7.059393 -2.212390 3.051908 0
M  V30 2 C 5.577326 -2.502034 2.889889 0
M  V30 3 C 4.862794 -2.075413 4.178945 0
M  V30 4 C 5.402997 -3.973312 2.774908 0
M  V30 5 O 5.114564 -1.727268 1.837860 0
M  V30 6 C 3.832360 -1.700347 1.365578 0
M  V30 7 O 3.114418 -2.486829 2.027341 0
M  V30 8 N 3.067920 -1.064205 0.367117 0
M  V30 9 C 1.722675 -1.610273 0.521349 0
M  V30 10 C 0.829800 -1.016817 -0.527665 0
M  V30 11 C 0.905809 0.482043 -0.579947 0
M  V30 12 C 0.418437 1.172156 0.667417 0
M  V30 13 N 1.173741 0.823452 1.858817 0
M  V30 14 S 0.412466 1.743332 3.134379 0
M  V30 15 O 0.536008 3.184231 2.749994 0
M  V30 16 O 1.233507 1.560089 4.383628 0
M  V30 17 C -1.237814 1.302889 3.360617 0
M  V30 18 C -1.477005 0.366622 4.361177 0
M  V30 19 C -2.773181 -0.056994 4.617750 0
M  V30 20 C -3.782826 0.492977 3.839560 0
M  V30 21 C -3.505886 1.416714 2.858364 0
M  V30 22 S -4.969582 1.926436 2.040695 0
M  V30 23 O -4.678585 3.204525 1.303943 0
M  V30 24 O -6.140094 2.048785 2.947990 0
M  V30 25 N -5.295015 0.750391 0.787838 0
M  V30 26 C -4.584287 0.335644 -0.362403 0
M  V30 27 C -4.084352 1.268578 -1.250232 0
M  V30 28 C -3.407521 0.841201 -2.375152 0
M  V30 29 C -3.222305 -0.491890 -2.625558 0
M  V30 30 N -2.552577 -0.992476 -3.771103 0
M  V30 31 C -2.202421 -0.202616 -4.963819 0
M  V30 32 C -2.944037 -0.893782 -6.095136 0
M  V30 33 C -2.199833 -2.189245 -6.349120 0
M  V30 34 C -1.386233 -2.611596 -5.153819 0
M  V30 35 C -2.138491 -2.382849 -3.847373 0
M  V30 36 C -3.723585 -1.403995 -1.734827 0
M  V30 37 C -4.404797 -1.014176 -0.601024 0
M  V30 38 C -2.232334 1.849501 2.588936 0
M  V30 39 C 2.318466 0.927734 -0.899065 0
M  V30 40 C 3.365689 -0.096589 -0.638942 0
M  V30 41 H 7.583376 -3.103962 3.456110 0
M  V30 42 H 7.146970 -1.316147 3.718529 0
M  V30 43 H 7.442092 -1.901995 2.060464 0
M  V30 44 H 5.520900 -2.442852 5.014237 0
M  V30 45 H 4.828598 -0.989261 4.164640 0
M  V30 46 H 3.842937 -2.472330 4.247752 0
M  V30 47 H 5.815926 -4.403602 3.731344 0
M  V30 48 H 6.037413 -4.407656 1.979624 0
M  V30 49 H 4.358546 -4.326840 2.738100 0
M  V30 50 H 1.798002 -2.695564 0.273531 0
M  V30 51 H 1.338704 -1.512479 1.539556 0
M  V30 52 H 1.239488 -1.368717 -1.516042 0
M  V30 53 H -0.188343 -1.374779 -0.415912 0
M  V30 54 H 0.261049 0.824588 -1.414888 0
M  V30 55 H 0.535671 2.255584 0.513677 0
M  V30 56 H -0.624000 0.851992 0.859818 0
M  V30 57 H 2.156408 1.184876 1.781975 0
M  V30 58 H -0.669913 -0.057751 4.963961 0
M  V30 59 H -2.928650 -0.781190 5.400131 0
M  V30 60 H -4.756582 0.090149 4.126764 0
M  V30 61 H -6.210633 0.211362 0.865797 0
M  V30 62 H -4.240624 2.338312 -1.036209 0
M  V30 63 H -3.022760 1.581282 -3.058892 0
M  V30 64 H -1.118086 -0.317608 -5.150955 0
M  V30 65 H -2.457144 0.851386 -4.872659 0
M  V30 66 H -3.074820 -0.272577 -6.978698 0
M  V30 67 H -3.941852 -1.206855 -5.712704 0
M  V30 68 H -2.892606 -3.010218 -6.620746 0
M  V30 69 H -1.504949 -2.005778 -7.191235 0
M  V30 70 H -1.254046 -3.722050 -5.247657 0
M  V30 71 H -0.362206 -2.208010 -5.135876 0
M  V30 72 H -1.362843 -2.518772 -3.033849 0
M  V30 73 H -2.940312 -3.105583 -3.706437 0
M  V30 74 H -3.612544 -2.467591 -1.872714 0
M  V30 75 H -4.802062 -1.755762 0.107268 0
M  V30 76 H -2.092584 2.576221 1.806580 0
M  V30 77 H 2.538074 1.842808 -0.291854 0
M  V30 78 H 2.410639 1.256112 -1.964790 0
M  V30 79 H 3.671328 -0.585185 -1.608594 0
M  V30 80 H 4.297243 0.445693 -0.296153 0
M  V30 END ATOM
M  V30 BEGIN BOND
M  V30 1 1 1 2
M  V30 2 1 2 3
M  V30 3 1 2 4
M  V30 4 1 2 5
M  V30 5 1 5 6
M  V30 6 2 6 7
M  V30 7 1 6 8
M  V30 8 1 8 9
M  V30 9 1 9 10
M  V30 10 1 10 11
M  V30 11 1 11 12
M  V30 12 1 12 13
M  V30 13 1 13 14
M  V30 14 2 14 15
M  V30 15 2 14 16
M  V30 16 1 14 17
M  V30 17 2 17 18
M  V30 18 1 18 19
M  V30 19 2 19 20
M  V30 20 1 20 21
M  V30 21 1 21 22
M  V30 22 2 22 23
M  V30 23 2 22 24
M  V30 24 1 22 25
M  V30 25 1 25 26
M  V30 26 2 26 27
M  V30 27 1 27 28
M  V30 28 2 28 29
M  V30 29 1 29 30
M  V30 30 1 30 31
M  V30 31 1 31 32
M  V30 32 1 32 33
M  V30 33 1 33 34
M  V30 34 1 34 35
M  V30 35 1 29 36
M  V30 36 2 36 37
M  V30 37 2 21 38
M  V30 38 1 11 39
M  V30 39 1 39 40
M  V30 40 1 40 8
M  V30 41 1 38 17
M  V30 42 1 37 26
M  V30 43 1 35 30
M  V30 44 1 1 41
M  V30 45 1 1 42
M  V30 46 1 1 43
M  V30 47 1 3 44
M  V30 48 1 3 45
M  V30 49 1 3 46
M  V30 50 1 4 47
M  V30 51 1 4 48
M  V30 52 1 4 49
M  V30 53 1 9 50
M  V30 54 1 9 51
M  V30 55 1 10 52
M  V30 56 1 10 53
M  V30 57 1 11 54
M  V30 58 1 12 55
M  V30 59 1 12 56
M  V30 60 1 13 57
M  V30 61 1 18 58
M  V30 62 1 19 59
M  V30 63 1 20 60
M  V30 64 1 25 61
M  V30 65 1 27 62
M  V30 66 1 28 63
M  V30 67 1 31 64
M  V30 68 1 31 65
M  V30 69 1 32 66
M  V30 70 1 32 67
M  V30 71 1 33 68
M  V30 72 1 33 69
M  V30 73 1 34 70
M  V30 74 1 34 71
M  V30 75 1 35 72
M  V30 76 1 35 73
M  V30 77 1 36 74
M  V30 78 1 37 75
M  V30 79 1 38 76
M  V30 80 1 39 77
M  V30 81 1 39 78
M  V30 82 1 40 79
M  V30 83 1 40 80
M  V30 END BOND
M  V30 END CTAB
M  END
>  <Dataset>  (413) 
ChEMBL_Kinases

>  <Ligand_Instance>  (413) 
nan

>  <PDB_ID>  (413) 
nan

>  <Standardized_SMILES>  (413) 
CC(C)(C)OC(=O)N1CCC(CNS(=O)(=O)c2cccc(S(=O)(=O)Nc3ccc(N4CCCCC4)cc3)c2)CC1

>  <Name>  (413) 
nan

>  <Pocket>  (413) 
nan

>  <ATP_Site>  (413) 
nan

>  <Peripheral>  (413) 
nan

>  <Num_H_Atoms_ProtBoundConf>  (413) 
nan

>  <Num_Resolved_Atoms>  (413) 
nan

>  <Num_Not_Resolved_Atoms>  (413) 
nan

$$$$
CHEMBL4869135
     RDKit          3D

  0  0  0  0  0  0  0  0  0  0999 V3000
M  V30 BEGIN CTAB
M  V30 COUNTS 30 32 0 0 0
M  V30 BEGIN ATOM
M  V30 1 C -0.925221 -1.872880 3.341245 0
M  V30 2 N -1.226325 -2.691809 2.178995 0
M  V30 3 C -2.442127 -3.489797 2.229172 0
M  V30 4 C -0.263215 -2.572022 1.140330 0
M  V30 5 N 0.135252 -3.734154 0.604658 0
M  V30 6 C 1.045605 -3.760204 -0.418161 0
M  V30 7 C 1.475467 -2.488540 -0.801979 0
M  V30 8 Cl 2.650405 -2.522289 -2.097131 0
M  V30 9 C 1.097817 -1.277690 -0.289886 0
M  V30 10 C 1.546001 0.028478 -0.724356 0
M  V30 11 C 2.355065 0.403032 -1.748589 0
M  V30 12 N 2.421092 1.764850 -1.750328 0
M  V30 13 N 1.683242 2.232484 -0.764138 0
M  V30 14 N 1.562952 3.546410 -0.525446 0
M  V30 15 C 0.777646 3.901423 0.521062 0
M  V30 16 C 0.169118 2.931509 1.251497 0
M  V30 17 C 0.339650 1.601846 0.944449 0
M  V30 18 C 1.122216 1.177103 -0.101832 0
M  V30 19 N 0.198292 -1.356696 0.714358 0
M  V30 20 H -0.277698 -2.470328 4.026578 0
M  V30 21 H -1.862682 -1.636188 3.873900 0
M  V30 22 H -0.343426 -0.974439 3.086969 0
M  V30 23 H -2.293166 -4.354081 2.886969 0
M  V30 24 H -2.869856 -3.714138 1.254534 0
M  V30 25 H -3.210888 -2.828114 2.736376 0
M  V30 26 H 1.393745 -4.654648 -0.875231 0
M  V30 27 H 2.875778 -0.161710 -2.464160 0
M  V30 28 H 0.663990 4.965527 0.733444 0
M  V30 29 H -0.459744 3.157097 2.093538 0
M  V30 30 H -0.136110 0.832828 1.526068 0
M  V30 END ATOM
M  V30 BEGIN BOND
M  V30 1 1 1 2
M  V30 2 1 2 3
M  V30 3 1 2 4
M  V30 4 2 4 5
M  V30 5 1 5 6
M  V30 6 2 6 7
M  V30 7 1 7 8
M  V30 8 1 7 9
M  V30 9 1 9 10
M  V30 10 1 10 11
M  V30 11 2 11 12
M  V30 12 1 12 13
M  V30 13 1 13 14
M  V30 14 2 14 15
M  V30 15 1 15 16
M  V30 16 2 16 17
M  V30 17 1 17 18
M  V30 18 2 9 19
M  V30 19 1 19 4
M  V30 20 2 18 10
M  V30 21 1 18 13
M  V30 22 1 1 20
M  V30 23 1 1 21
M  V30 24 1 1 22
M  V30 25 1 3 23
M  V30 26 1 3 24
M  V30 27 1 3 25
M  V30 28 1 6 26
M  V30 29 1 11 27
M  V30 30 1 15 28
M  V30 31 1 16 29
M  V30 32 1 17 30
M  V30 END BOND
M  V30 END CTAB
M  END
>  <Dataset>  (414) 
ChEMBL_Kinases

>  <Ligand_Instance>  (414) 
nan

>  <PDB_ID>  (414) 
nan

>  <Standardized_SMILES>  (414) 
CN(C)c1ncc(Cl)c(-c2cnn3ncccc23)n1

>  <Name>  (414) 
nan

>  <Pocket>  (414) 
nan

>  <ATP_Site>  (414) 
nan

>  <Peripheral>  (414) 
nan

>  <Num_H_Atoms_ProtBoundConf>  (414) 
nan

>  <Num_Resolved_Atoms>  (414) 
nan

>  <Num_Not_Resolved_Atoms>  (414) 
nan

$$$$
CHEMBL4869142
     RDKit          3D

  0  0  0  0  0  0  0  0  0  0999 V3000
M  V30 BEGIN CTAB
M  V30 COUNTS 77 81 0 0 0
M  V30 BEGIN ATOM
M  V30 1 C 3.944694 -4.975204 4.201574 0
M  V30 2 C 4.618545 -3.631348 4.028361 0
M  V30 3 C 3.969692 -2.869079 2.905259 0
M  V30 4 O 2.997808 -3.321127 2.246492 0
M  V30 5 N 4.476322 -1.578625 2.573052 0
M  V30 6 C 3.875704 -0.821630 1.500263 0 CFG=1
M  V30 7 C 3.218177 0.444902 1.978588 0
M  V30 8 C 2.400612 0.965915 0.825031 0
M  V30 9 C 3.217424 1.059590 -0.468563 0 CFG=1
M  V30 10 N 2.834298 2.250542 -1.136343 0
M  V30 11 C 3.471732 3.432637 -1.060526 0
M  V30 12 O 4.500023 3.539690 -0.367075 0
M  V30 13 C 3.107259 4.613022 -1.693372 0
M  V30 14 C 1.972417 4.581287 -2.486721 0
M  V30 15 C 1.526346 5.808312 -3.189723 0
M  V30 16 C 1.291605 3.388622 -2.590963 0
M  V30 17 C 0.155203 3.313505 -3.369912 0
M  V30 18 N -0.474275 2.130728 -3.439577 0
M  V30 19 C -0.076061 1.016363 -2.805729 0
M  V30 20 N -0.901601 -0.109014 -3.024428 0
M  V30 21 C -1.792153 -0.753558 -2.133128 0
M  V30 22 C -1.859430 -0.315915 -0.832999 0
M  V30 23 C -2.680288 -0.900118 0.107255 0
M  V30 24 C -3.481446 -1.966219 -0.224160 0
M  V30 25 N -4.347997 -2.629741 0.698079 0
M  V30 26 C -5.255579 -3.695983 0.359721 0
M  V30 27 C -6.492682 -3.566057 1.223763 0
M  V30 28 N -6.170986 -3.638209 2.637378 0
M  V30 29 C -6.896688 -2.571177 3.296535 0
M  V30 30 C -4.770566 -3.455617 2.892675 0
M  V30 31 C -4.332078 -2.221927 2.093053 0
M  V30 32 C -3.426117 -2.427231 -1.548095 0
M  V30 33 C -2.598757 -1.835992 -2.490617 0
M  V30 34 C -2.527913 -2.302280 -3.898720 0
M  V30 35 N 1.025583 1.152241 -2.070557 0
M  V30 36 C 1.734227 2.268960 -1.922555 0
M  V30 37 C 4.665777 0.911354 -0.130080 0
M  V30 38 C 4.853164 -0.508774 0.423676 0
M  V30 39 H 3.501419 -5.315235 3.241339 0
M  V30 40 H 3.135116 -4.958754 4.942132 0
M  V30 41 H 4.681676 -5.727761 4.492662 0
M  V30 42 H 4.596260 -3.051531 4.984260 0
M  V30 43 H 5.695496 -3.828416 3.826108 0
M  V30 44 H 5.294729 -1.130895 3.083967 0
M  V30 45 H 3.061766 -1.448558 1.068335 0
M  V30 46 H 2.470762 0.232675 2.794347 0
M  V30 47 H 3.901638 1.193085 2.400945 0
M  V30 48 H 2.006676 1.981890 1.056535 0
M  V30 49 H 1.565756 0.256170 0.636134 0
M  V30 50 H 2.974251 0.187819 -1.144026 0
M  V30 51 H 3.650546 5.526985 -1.597376 0
M  V30 52 H 0.423985 5.944183 -3.126916 0
M  V30 53 H 1.977384 6.690239 -2.691152 0
M  V30 54 H 1.816370 5.713038 -4.251738 0
M  V30 55 H -0.218487 4.175785 -3.908158 0
M  V30 56 H -0.798580 -0.476188 -4.010656 0
M  V30 57 H -1.240709 0.523218 -0.536121 0
M  V30 58 H -2.686139 -0.505569 1.111990 0
M  V30 59 H -4.813674 -4.709092 0.424694 0
M  V30 60 H -5.594519 -3.536860 -0.680288 0
M  V30 61 H -7.143097 -4.438943 0.998272 0
M  V30 62 H -7.054361 -2.658589 0.944691 0
M  V30 63 H -7.341723 -1.845495 2.556488 0
M  V30 64 H -6.249758 -1.945238 3.960678 0
M  V30 65 H -7.695154 -2.983975 3.966464 0
M  V30 66 H -4.630116 -3.188403 3.969481 0
M  V30 67 H -4.125934 -4.286244 2.574954 0
M  V30 68 H -3.277636 -1.994392 2.350334 0
M  V30 69 H -5.020221 -1.369967 2.218495 0
M  V30 70 H -4.008623 -3.254669 -1.923833 0
M  V30 71 H -3.110988 -3.235482 -3.991829 0
M  V30 72 H -1.501922 -2.382231 -4.252027 0
M  V30 73 H -3.041866 -1.516477 -4.496538 0
M  V30 74 H 5.294083 0.972668 -1.022398 0
M  V30 75 H 4.953241 1.564190 0.712199 0
M  V30 76 H 5.919127 -0.615414 0.719335 0
M  V30 77 H 4.722973 -1.253403 -0.403023 0
M  V30 END ATOM
M  V30 BEGIN BOND
M  V30 1 1 1 2
M  V30 2 1 2 3
M  V30 3 2 3 4
M  V30 4 1 3 5
M  V30 5 1 5 6
M  V30 6 1 6 7
M  V30 7 1 7 8
M  V30 8 1 8 9
M  V30 9 1 9 10
M  V30 10 1 10 11
M  V30 11 2 11 12
M  V30 12 1 11 13
M  V30 13 2 13 14
M  V30 14 1 14 15
M  V30 15 1 14 16
M  V30 16 2 16 17
M  V30 17 1 17 18
M  V30 18 2 18 19
M  V30 19 1 19 20
M  V30 20 1 20 21
M  V30 21 2 21 22
M  V30 22 1 22 23
M  V30 23 2 23 24
M  V30 24 1 24 25
M  V30 25 1 25 26
M  V30 26 1 26 27
M  V30 27 1 27 28
M  V30 28 1 28 29
M  V30 29 1 28 30
M  V30 30 1 30 31
M  V30 31 1 24 32
M  V30 32 2 32 33
M  V30 33 1 33 34
M  V30 34 1 19 35
M  V30 35 2 35 36
M  V30 36 1 9 37
M  V30 37 1 37 38
M  V30 38 1 38 6
M  V30 39 1 36 10
M  V30 40 1 36 16
M  V30 41 1 33 21
M  V30 42 1 31 25
M  V30 43 1 1 39
M  V30 44 1 1 40
M  V30 45 1 1 41
M  V30 46 1 2 42
M  V30 47 1 2 43
M  V30 48 1 5 44
M  V30 49 1 6 45 CFG=3
M  V30 50 1 7 46
M  V30 51 1 7 47
M  V30 52 1 8 48
M  V30 53 1 8 49
M  V30 54 1 9 50 CFG=3
M  V30 55 1 13 51
M  V30 56 1 15 52
M  V30 57 1 15 53
M  V30 58 1 15 54
M  V30 59 1 17 55
M  V30 60 1 20 56
M  V30 61 1 22 57
M  V30 62 1 23 58
M  V30 63 1 26 59
M  V30 64 1 26 60
M  V30 65 1 27 61
M  V30 66 1 27 62
M  V30 67 1 29 63
M  V30 68 1 29 64
M  V30 69 1 29 65
M  V30 70 1 30 66
M  V30 71 1 30 67
M  V30 72 1 31 68
M  V30 73 1 31 69
M  V30 74 1 32 70
M  V30 75 1 34 71
M  V30 76 1 34 72
M  V30 77 1 34 73
M  V30 78 1 37 74
M  V30 79 1 37 75
M  V30 80 1 38 76
M  V30 81 1 38 77
M  V30 END BOND
M  V30 END CTAB
M  END
>  <Dataset>  (415) 
ChEMBL_Kinases

>  <Ligand_Instance>  (415) 
nan

>  <PDB_ID>  (415) 
nan

>  <Standardized_SMILES>  (415) 
CCC(=O)N[C@H]1CC[C@@H](n2c(=O)cc(C)c3cnc(Nc4ccc(N5CCN(C)CC5)cc4C)nc32)CC1

>  <Name>  (415) 
nan

>  <Pocket>  (415) 
nan

>  <ATP_Site>  (415) 
nan

>  <Peripheral>  (415) 
nan

>  <Num_H_Atoms_ProtBoundConf>  (415) 
nan

>  <Num_Resolved_Atoms>  (415) 
nan

>  <Num_Not_Resolved_Atoms>  (415) 
nan

$$$$
CHEMBL4869147
     RDKit          3D

  0  0  0  0  0  0  0  0  0  0999 V3000
M  V30 BEGIN CTAB
M  V30 COUNTS 54 58 0 0 0
M  V30 BEGIN ATOM
M  V30 1 C 5.234268 -2.080282 0.897592 0
M  V30 2 N 3.878914 -1.602436 1.005995 0
M  V30 3 C 3.495245 -0.317544 1.170705 0
M  V30 4 C 4.330583 0.871277 1.276798 0
M  V30 5 C 5.413716 1.188041 0.480641 0
M  V30 6 C 6.102229 2.349918 0.706799 0
M  V30 7 C 5.800474 3.255815 1.686485 0
M  V30 8 C 4.707698 2.929901 2.484908 0
M  V30 9 C 3.985935 1.770090 2.292181 0
M  V30 10 C 2.097720 -0.278110 1.229650 0
M  V30 11 C 1.717745 -1.579977 1.092719 0
M  V30 12 C 0.431757 -2.077731 1.083923 0
M  V30 13 C -0.818871 -1.337313 1.222197 0
M  V30 14 C -1.024310 -0.366953 2.180409 0
M  V30 15 C -2.253200 0.257768 2.199179 0
M  V30 16 C -3.230357 -0.087133 1.285960 0
M  V30 17 C -4.421064 0.722111 1.521743 0
M  V30 18 O -4.670987 1.614443 2.370802 0
M  V30 19 O -5.687191 0.875974 0.990045 0
M  V30 20 C -3.026969 -1.071591 0.311475 0
M  V30 21 C -4.192540 -1.297393 -0.568146 0
M  V30 22 C -4.220684 -0.414545 -1.793750 0
M  V30 23 C -5.347517 -1.058851 -2.573468 0
M  V30 24 C -5.084283 -2.526774 -2.437800 0
M  V30 25 C -4.262573 -2.666362 -1.166755 0
M  V30 26 C -1.800151 -1.671218 0.318974 0
M  V30 27 C 0.311898 -3.464172 0.925970 0
M  V30 28 C 1.410826 -4.306941 0.784892 0
M  V30 29 N 2.642348 -3.757357 0.801966 0
M  V30 30 C 2.796910 -2.427386 0.951900 0
M  V30 31 H 5.907439 -1.468840 1.533536 0
M  V30 32 H 5.304062 -3.156346 1.097245 0
M  V30 33 H 5.536949 -1.937698 -0.164652 0
M  V30 34 H 5.648633 0.469826 -0.291936 0
M  V30 35 H 6.946069 2.556157 0.055621 0
M  V30 36 H 6.397658 4.138420 1.787226 0
M  V30 37 H 4.464023 3.654436 3.270678 0
M  V30 38 H 3.157918 1.655256 2.997891 0
M  V30 39 H 1.491686 0.587701 1.353369 0
M  V30 40 H -0.208039 -0.151981 2.864822 0
M  V30 41 H -2.308376 1.000707 2.988397 0
M  V30 42 H -6.519348 0.396409 1.270596 0
M  V30 43 H -5.155179 -1.126126 -0.042272 0
M  V30 44 H -4.550024 0.625929 -1.560847 0
M  V30 45 H -3.301489 -0.474565 -2.387494 0
M  V30 46 H -6.292668 -0.825654 -2.030961 0
M  V30 47 H -5.379902 -0.716451 -3.625452 0
M  V30 48 H -6.021537 -3.117678 -2.292416 0
M  V30 49 H -4.571740 -2.954540 -3.328621 0
M  V30 50 H -4.665186 -3.422811 -0.468418 0
M  V30 51 H -3.252823 -2.971667 -1.490731 0
M  V30 52 H -1.651571 -2.426976 -0.435505 0
M  V30 53 H -0.663584 -3.923741 0.909596 0
M  V30 54 H 1.260421 -5.378492 0.665040 0
M  V30 END ATOM
M  V30 BEGIN BOND
M  V30 1 1 1 2
M  V30 2 1 2 3
M  V30 3 1 3 4
M  V30 4 2 4 5
M  V30 5 1 5 6
M  V30 6 2 6 7
M  V30 7 1 7 8
M  V30 8 2 8 9
M  V30 9 2 3 10
M  V30 10 1 10 11
M  V30 11 2 11 12
M  V30 12 1 12 13
M  V30 13 2 13 14
M  V30 14 1 14 15
M  V30 15 2 15 16
M  V30 16 1 16 17
M  V30 17 2 17 18
M  V30 18 1 17 19
M  V30 19 1 16 20
M  V30 20 1 20 21
M  V30 21 1 21 22
M  V30 22 1 22 23
M  V30 23 1 23 24
M  V30 24 1 24 25
M  V30 25 2 20 26
M  V30 26 1 12 27
M  V30 27 2 27 28
M  V30 28 1 28 29
M  V30 29 2 29 30
M  V30 30 1 30 2
M  V30 31 1 9 4
M  V30 32 1 30 11
M  V30 33 1 26 13
M  V30 34 1 25 21
M  V30 35 1 1 31
M  V30 36 1 1 32
M  V30 37 1 1 33
M  V30 38 1 5 34
M  V30 39 1 6 35
M  V30 40 1 7 36
M  V30 41 1 8 37
M  V30 42 1 9 38
M  V30 43 1 10 39
M  V30 44 1 14 40
M  V30 45 1 15 41
M  V30 46 1 19 42
M  V30 47 1 21 43
M  V30 48 1 22 44
M  V30 49 1 22 45
M  V30 50 1 23 46
M  V30 51 1 23 47
M  V30 52 1 24 48
M  V30 53 1 24 49
M  V30 54 1 25 50
M  V30 55 1 25 51
M  V30 56 1 26 52
M  V30 57 1 27 53
M  V30 58 1 28 54
M  V30 END BOND
M  V30 END CTAB
M  END
>  <Dataset>  (416) 
ChEMBL_Kinases

>  <Ligand_Instance>  (416) 
nan

>  <PDB_ID>  (416) 
nan

>  <Standardized_SMILES>  (416) 
Cn1c(-c2ccccc2)cc2c(-c3ccc(C(=O)O)c(C4CCCC4)c3)ccnc21

>  <Name>  (416) 
nan

>  <Pocket>  (416) 
nan

>  <ATP_Site>  (416) 
nan

>  <Peripheral>  (416) 
nan

>  <Num_H_Atoms_ProtBoundConf>  (416) 
nan

>  <Num_Resolved_Atoms>  (416) 
nan

>  <Num_Not_Resolved_Atoms>  (416) 
nan

$$$$
CHEMBL3974193
     RDKit          3D

  0  0  0  0  0  0  0  0  0  0999 V3000
M  V30 BEGIN CTAB
M  V30 COUNTS 63 67 0 0 0
M  V30 BEGIN ATOM
M  V30 1 C -0.880293 0.993092 5.499322 0
M  V30 2 N -0.382911 -0.305614 5.859027 0
M  V30 3 C 1.049398 -0.344192 6.003830 0
M  V30 4 C 1.798381 -0.321690 4.693471 0
M  V30 5 C 0.926642 -0.819641 3.590628 0
M  V30 6 C 1.678341 -1.223072 2.384570 0
M  V30 7 C 1.407166 -0.858145 1.083032 0
M  V30 8 C 2.308374 -1.408949 0.195112 0
M  V30 9 C 2.414278 -1.307792 -1.175193 0
M  V30 10 C 1.512532 -0.532295 -2.012987 0
M  V30 11 C 1.812153 -0.439045 -3.353206 0
M  V30 12 C 1.002732 0.293648 -4.193943 0
M  V30 13 C -0.106450 0.931134 -3.686085 0
M  V30 14 C -0.417117 0.839009 -2.318944 0
M  V30 15 N -1.558267 1.505409 -1.792465 0
M  V30 16 C -2.077466 1.469134 -0.470422 0
M  V30 17 C -2.524032 0.158902 0.059621 0
M  V30 18 C -3.628987 -0.524849 -0.695941 0
M  V30 19 C -3.331067 -0.860754 -2.089426 0
M  V30 20 C -3.539293 -0.191760 -3.271089 0
M  V30 21 C -3.169975 -0.701281 -4.494834 0
M  V30 22 C -2.560799 -1.936505 -4.580894 0
M  V30 23 C -2.328389 -2.650228 -3.424183 0
M  V30 24 C -2.710130 -2.111846 -2.214825 0
M  V30 25 N 0.421079 0.106654 -1.567298 0
M  V30 26 C 3.476145 -2.017861 -1.681497 0
M  V30 27 C 4.350214 -2.756339 -0.919544 0
M  V30 28 N 4.182017 -2.809527 0.426118 0
M  V30 29 C 3.155064 -2.135374 1.012465 0
M  V30 30 N 2.763620 -2.010323 2.294777 0
M  V30 31 C 0.154200 -2.010692 4.177481 0
M  V30 32 C -0.902844 -1.385867 5.059724 0
M  V30 33 H -0.057276 1.742986 5.438468 0
M  V30 34 H -1.539143 1.332321 6.330584 0
M  V30 35 H -1.537333 0.988134 4.600970 0
M  V30 36 H 1.312920 -1.201620 6.642714 0
M  V30 37 H 1.344578 0.568453 6.569640 0
M  V30 38 H 2.642737 -1.037735 4.789644 0
M  V30 39 H 2.207797 0.658664 4.435441 0
M  V30 40 H 0.130363 -0.114010 3.269082 0
M  V30 41 H 0.589358 -0.216960 0.812897 0
M  V30 42 H 2.636064 -0.874710 -3.896169 0
M  V30 43 H 1.161567 0.424794 -5.271274 0
M  V30 44 H -0.760199 1.517770 -4.340752 0
M  V30 45 H -2.073213 2.119338 -2.498884 0
M  V30 46 H -1.375147 1.926909 0.282448 0
M  V30 47 H -2.978364 2.151859 -0.415156 0
M  V30 48 H -1.692087 -0.543709 0.286998 0
M  V30 49 H -2.964599 0.374086 1.082397 0
M  V30 50 H -3.946108 -1.430532 -0.106419 0
M  V30 51 H -4.558714 0.124333 -0.701661 0
M  V30 52 H -4.025383 0.770723 -3.094465 0
M  V30 53 H -3.380673 -0.093316 -5.351477 0
M  V30 54 H -2.291597 -2.287506 -5.571958 0
M  V30 55 H -1.855663 -3.596325 -3.550590 0
M  V30 56 H -2.469790 -2.776228 -1.381440 0
M  V30 57 H 3.708699 -2.052394 -2.729000 0
M  V30 58 H 5.181925 -3.310673 -1.329129 0
M  V30 59 H 3.203541 -2.441796 3.142911 0
M  V30 60 H -0.303390 -2.544456 3.340099 0
M  V30 61 H 0.811817 -2.651020 4.774720 0
M  V30 62 H -1.400979 -2.138966 5.682558 0
M  V30 63 H -1.671490 -0.954322 4.380697 0
M  V30 END ATOM
M  V30 BEGIN BOND
M  V30 1 1 1 2
M  V30 2 1 2 3
M  V30 3 1 3 4
M  V30 4 1 4 5
M  V30 5 1 5 6
M  V30 6 2 6 7
M  V30 7 1 7 8
M  V30 8 2 8 9
M  V30 9 1 9 10
M  V30 10 2 10 11
M  V30 11 1 11 12
M  V30 12 2 12 13
M  V30 13 1 13 14
M  V30 14 1 14 15
M  V30 15 1 15 16
M  V30 16 1 16 17
M  V30 17 1 17 18
M  V30 18 1 18 19
M  V30 19 2 19 20
M  V30 20 1 20 21
M  V30 21 2 21 22
M  V30 22 1 22 23
M  V30 23 2 23 24
M  V30 24 2 14 25
M  V30 25 1 9 26
M  V30 26 2 26 27
M  V30 27 1 27 28
M  V30 28 2 28 29
M  V30 29 1 29 30
M  V30 30 1 5 31
M  V30 31 1 31 32
M  V30 32 1 32 2
M  V30 33 1 30 6
M  V30 34 1 29 8
M  V30 35 1 25 10
M  V30 36 1 24 19
M  V30 37 1 1 33
M  V30 38 1 1 34
M  V30 39 1 1 35
M  V30 40 1 3 36
M  V30 41 1 3 37
M  V30 42 1 4 38
M  V30 43 1 4 39
M  V30 44 1 5 40
M  V30 45 1 7 41
M  V30 46 1 11 42
M  V30 47 1 12 43
M  V30 48 1 13 44
M  V30 49 1 15 45
M  V30 50 1 16 46
M  V30 51 1 16 47
M  V30 52 1 17 48
M  V30 53 1 17 49
M  V30 54 1 18 50
M  V30 55 1 18 51
M  V30 56 1 20 52
M  V30 57 1 21 53
M  V30 58 1 22 54
M  V30 59 1 23 55
M  V30 60 1 24 56
M  V30 61 1 26 57
M  V30 62 1 27 58
M  V30 63 1 30 59
M  V30 64 1 31 60
M  V30 65 1 31 61
M  V30 66 1 32 62
M  V30 67 1 32 63
M  V30 END BOND
M  V30 END CTAB
M  END
>  <Dataset>  (417) 
ChEMBL_Kinases

>  <Ligand_Instance>  (417) 
nan

>  <PDB_ID>  (417) 
nan

>  <Standardized_SMILES>  (417) 
CN1CCC(c2cc3c(-c4cccc(NCCCc5ccccc5)n4)ccnc3[nH]2)CC1

>  <Name>  (417) 
nan

>  <Pocket>  (417) 
nan

>  <ATP_Site>  (417) 
nan

>  <Peripheral>  (417) 
nan

>  <Num_H_Atoms_ProtBoundConf>  (417) 
nan

>  <Num_Resolved_Atoms>  (417) 
nan

>  <Num_Not_Resolved_Atoms>  (417) 
nan

$$$$
CHEMBL3975308
     RDKit          3D

  0  0  0  0  0  0  0  0  0  0999 V3000
M  V30 BEGIN CTAB
M  V30 COUNTS 55 58 0 0 0
M  V30 BEGIN ATOM
M  V30 1 C 2.007229 -1.234589 4.756179 0
M  V30 2 C 2.748134 -1.682649 3.511957 0
M  V30 3 C 4.037233 -2.278200 3.974565 0
M  V30 4 O 2.006814 -2.676882 2.914921 0
M  V30 5 C 2.931895 -0.469444 2.645336 0 CFG=1
M  V30 6 C 3.646779 -0.713376 1.365402 0
M  V30 7 C 3.388773 0.437163 0.413563 0
M  V30 8 C 1.988643 0.368995 -0.104368 0 CFG=2
M  V30 9 N 1.458542 1.646823 -0.506816 0
M  V30 10 C 0.164123 1.917372 -1.038532 0
M  V30 11 C -0.225195 3.203632 -1.389134 0
M  V30 12 C -1.489921 3.409484 -1.899407 0
M  V30 13 C -2.309829 2.307888 -2.034764 0
M  V30 14 N -3.571553 2.263625 -2.504323 0
M  V30 15 C -4.026945 0.995674 -2.475671 0
M  V30 16 C -2.953790 0.263736 -1.954502 0
M  V30 17 C -3.020753 -1.173262 -1.752385 0
M  V30 18 C -2.065153 -2.115078 -2.078430 0
M  V30 19 C -2.275807 -3.454114 -1.822077 0
M  V30 20 C -3.445063 -3.914082 -1.230823 0
M  V30 21 C -4.408065 -3.001220 -0.897931 0
M  V30 22 C -5.669737 -3.455532 -0.264956 0
M  V30 23 F -5.443910 -4.672521 0.349234 0
M  V30 24 F -6.163137 -2.538922 0.635858 0
M  V30 25 F -6.621528 -3.704049 -1.249277 0
M  V30 26 C -4.178103 -1.656508 -1.163816 0
M  V30 27 N -1.915265 1.069076 -1.689690 0
M  V30 28 N -0.698540 0.887189 -1.201339 0
M  V30 29 C 1.145598 -0.332706 0.940844 0
M  V30 30 C 1.573813 0.122645 2.332155 0
M  V30 31 H 2.443554 -1.654991 5.690764 0
M  V30 32 H 0.955326 -1.606022 4.742339 0
M  V30 33 H 1.919337 -0.126888 4.816382 0
M  V30 34 H 4.400000 -1.657338 4.837096 0
M  V30 35 H 3.830513 -3.300668 4.353489 0
M  V30 36 H 4.766324 -2.260247 3.140007 0
M  V30 37 H 1.038332 -2.560200 2.930813 0
M  V30 38 H 3.543602 0.248116 3.258301 0
M  V30 39 H 4.747539 -0.688648 1.595291 0
M  V30 40 H 3.380039 -1.648741 0.856223 0
M  V30 41 H 3.643078 1.415433 0.859170 0
M  V30 42 H 4.124107 0.306340 -0.424432 0
M  V30 43 H 2.026023 -0.278856 -1.026612 0
M  V30 44 H 2.117251 2.474130 -0.388952 0
M  V30 45 H 0.494405 3.998501 -1.243128 0
M  V30 46 H -1.775375 4.407590 -2.165177 0
M  V30 47 H -4.996380 0.591871 -2.777936 0
M  V30 48 H -1.168226 -1.715810 -2.537523 0
M  V30 49 H -1.503974 -4.170038 -2.090756 0
M  V30 50 H -3.623356 -4.947670 -1.025749 0
M  V30 51 H -4.978171 -0.989309 -0.876375 0
M  V30 52 H 1.353231 -1.416501 0.826444 0
M  V30 53 H 0.077025 -0.199274 0.768980 0
M  V30 54 H 1.719731 1.224394 2.357067 0
M  V30 55 H 0.795868 -0.206278 3.049747 0
M  V30 END ATOM
M  V30 BEGIN BOND
M  V30 1 1 1 2
M  V30 2 1 2 3
M  V30 3 1 2 4
M  V30 4 1 2 5
M  V30 5 1 5 6
M  V30 6 1 6 7
M  V30 7 1 7 8
M  V30 8 1 8 9
M  V30 9 1 9 10
M  V30 10 1 10 11
M  V30 11 2 11 12
M  V30 12 1 12 13
M  V30 13 2 13 14
M  V30 14 1 14 15
M  V30 15 2 15 16
M  V30 16 1 16 17
M  V30 17 2 17 18
M  V30 18 1 18 19
M  V30 19 2 19 20
M  V30 20 1 20 21
M  V30 21 1 21 22
M  V30 22 1 22 23
M  V30 23 1 22 24
M  V30 24 1 22 25
M  V30 25 2 21 26
M  V30 26 1 16 27
M  V30 27 1 27 28
M  V30 28 1 8 29
M  V30 29 1 29 30
M  V30 30 1 30 5
M  V30 31 2 28 10
M  V30 32 1 27 13
M  V30 33 1 26 17
M  V30 34 1 1 31
M  V30 35 1 1 32
M  V30 36 1 1 33
M  V30 37 1 3 34
M  V30 38 1 3 35
M  V30 39 1 3 36
M  V30 40 1 4 37
M  V30 41 1 5 38 CFG=1
M  V30 42 1 6 39
M  V30 43 1 6 40
M  V30 44 1 7 41
M  V30 45 1 7 42
M  V30 46 1 8 43 CFG=3
M  V30 47 1 9 44
M  V30 48 1 11 45
M  V30 49 1 12 46
M  V30 50 1 15 47
M  V30 51 1 18 48
M  V30 52 1 19 49
M  V30 53 1 20 50
M  V30 54 1 26 51
M  V30 55 1 29 52
M  V30 56 1 29 53
M  V30 57 1 30 54
M  V30 58 1 30 55
M  V30 END BOND
M  V30 END CTAB
M  END
>  <Dataset>  (418) 
ChEMBL_Kinases

>  <Ligand_Instance>  (418) 
nan

>  <PDB_ID>  (418) 
nan

>  <Standardized_SMILES>  (418) 
CC(C)(O)[C@H]1CC[C@H](Nc2ccc3ncc(-c4cccc(C(F)(F)F)c4)n3n2)CC1

>  <Name>  (418) 
TP-3654

>  <Pocket>  (418) 
nan

>  <ATP_Site>  (418) 
nan

>  <Peripheral>  (418) 
nan

>  <Num_H_Atoms_ProtBoundConf>  (418) 
nan

>  <Num_Resolved_Atoms>  (418) 
nan

>  <Num_Not_Resolved_Atoms>  (418) 
nan

$$$$
CHEMBL3969394
     RDKit          3D

  0  0  0  0  0  0  0  0  0  0999 V3000
M  V30 BEGIN CTAB
M  V30 COUNTS 35 38 0 0 0
M  V30 BEGIN ATOM
M  V30 1 O -1.387903 -0.518701 2.466534 0
M  V30 2 C -0.408204 -1.144596 1.992194 0
M  V30 3 N 0.293162 -1.909136 2.991769 0
M  V30 4 C 1.270718 -2.886157 2.650331 0
M  V30 5 N 1.952251 -3.625336 3.553283 0
M  V30 6 C 2.872712 -4.541073 3.138054 0
M  V30 7 C 3.165070 -4.771844 1.820300 0
M  V30 8 C 2.509905 -4.055618 0.843880 0
M  V30 9 C 1.577437 -3.129507 1.317603 0
M  V30 10 N 0.865806 -2.356068 0.363112 0
M  V30 11 C 0.083297 -1.182295 0.581624 0 CFG=2
M  V30 12 C 0.874809 0.074083 0.268391 0
M  V30 13 C 0.025437 1.285909 0.431631 0
M  V30 14 C -0.129365 2.242588 1.411199 0
M  V30 15 N -1.060505 3.133501 1.054279 0
M  V30 16 C -1.548566 2.792477 -0.171859 0
M  V30 17 C -2.510554 3.403462 -0.949736 0
M  V30 18 C -2.840763 2.869759 -2.179834 0
M  V30 19 C -2.183101 1.728355 -2.583496 0
M  V30 20 C -1.217232 1.114789 -1.802580 0
M  V30 21 C -0.877876 1.639606 -0.570679 0
M  V30 22 H 0.170474 -1.836058 4.027490 0
M  V30 23 H 3.405524 -5.121278 3.876205 0
M  V30 24 H 3.886573 -5.488397 1.449495 0
M  V30 25 H 2.662646 -4.157560 -0.212965 0
M  V30 26 H 0.907548 -2.666017 -0.642774 0
M  V30 27 H -0.817836 -1.189606 -0.073071 0
M  V30 28 H 1.300119 0.010183 -0.750663 0
M  V30 29 H 1.713872 0.173063 0.996645 0
M  V30 30 H 0.490147 2.169685 2.320461 0
M  V30 31 H -1.348339 3.945703 1.636457 0
M  V30 32 H -3.043569 4.301991 -0.655080 0
M  V30 33 H -3.586650 3.300117 -2.842078 0
M  V30 34 H -2.451392 1.305720 -3.567479 0
M  V30 35 H -0.721490 0.216804 -2.159356 0
M  V30 END ATOM
M  V30 BEGIN BOND
M  V30 1 2 1 2
M  V30 2 1 2 3
M  V30 3 1 3 4
M  V30 4 2 4 5
M  V30 5 1 5 6
M  V30 6 2 6 7
M  V30 7 1 7 8
M  V30 8 2 8 9
M  V30 9 1 9 10
M  V30 10 1 10 11
M  V30 11 1 11 12
M  V30 12 1 12 13
M  V30 13 2 13 14
M  V30 14 1 14 15
M  V30 15 1 15 16
M  V30 16 2 16 17
M  V30 17 1 17 18
M  V30 18 2 18 19
M  V30 19 1 19 20
M  V30 20 2 20 21
M  V30 21 1 11 2
M  V30 22 1 21 13
M  V30 23 1 9 4
M  V30 24 1 21 16
M  V30 25 1 3 22
M  V30 26 1 6 23
M  V30 27 1 7 24
M  V30 28 1 8 25
M  V30 29 1 10 26
M  V30 30 1 11 27 CFG=3
M  V30 31 1 12 28
M  V30 32 1 12 29
M  V30 33 1 14 30
M  V30 34 1 15 31
M  V30 35 1 17 32
M  V30 36 1 18 33
M  V30 37 1 19 34
M  V30 38 1 20 35
M  V30 END BOND
M  V30 END CTAB
M  END
>  <Dataset>  (419) 
ChEMBL_Kinases

>  <Ligand_Instance>  (419) 
nan

>  <PDB_ID>  (419) 
nan

>  <Standardized_SMILES>  (419) 
O=C1Nc2ncccc2N[C@@H]1Cc1c[nH]c2ccccc12

>  <Name>  (419) 
nan

>  <Pocket>  (419) 
nan

>  <ATP_Site>  (419) 
nan

>  <Peripheral>  (419) 
nan

>  <Num_H_Atoms_ProtBoundConf>  (419) 
nan

>  <Num_Resolved_Atoms>  (419) 
nan

>  <Num_Not_Resolved_Atoms>  (419) 
nan

$$$$
CHEMBL3701806
     RDKit          3D

  0  0  0  0  0  0  0  0  0  0999 V3000
M  V30 BEGIN CTAB
M  V30 COUNTS 80 83 0 0 0
M  V30 BEGIN ATOM
M  V30 1 C 5.989183 -1.370776 4.557985 0
M  V30 2 N 5.172707 -1.866741 3.452532 0
M  V30 3 C 5.159996 -3.326239 3.267996 0
M  V30 4 C 4.364816 -1.249232 2.460222 0
M  V30 5 C 4.798265 -1.538897 1.148900 0
M  V30 6 C 4.082729 -0.997788 0.078081 0
M  V30 7 C 2.963229 -0.190494 0.223796 0
M  V30 8 N 2.333086 0.294493 -0.957121 0
M  V30 9 S 1.712053 1.802746 -1.430694 0
M  V30 10 O 2.904647 2.774201 -1.369571 0
M  V30 11 O 1.312924 1.770335 -2.871324 0
M  V30 12 C 0.399599 2.413862 -0.483700 0
M  V30 13 C 0.702106 3.129086 0.656462 0
M  V30 14 C -0.331082 3.607968 1.382230 0
M  V30 15 C -1.649050 3.326159 0.900406 0
M  V30 16 C -2.020692 2.589170 -0.265819 0
M  V30 17 S -3.715569 2.617191 -0.198920 0
M  V30 18 O -4.324885 3.879635 0.336422 0
M  V30 19 O -4.112742 2.780152 -1.742341 0
M  V30 20 N -4.511757 1.203241 0.221434 0
M  V30 21 C -4.436729 0.148265 -0.699988 0
M  V30 22 C -5.099841 -1.136483 -0.164539 0
M  V30 23 C -5.168925 -2.099894 -1.306117 0
M  V30 24 C -4.177654 -3.219727 -1.241632 0
M  V30 25 N -2.895945 -2.512996 -1.100546 0
M  V30 26 C -2.187482 -2.477908 -2.321928 0
M  V30 27 O -2.750697 -3.007504 -3.297218 0
M  V30 28 O -0.974065 -2.022942 -2.820147 0
M  V30 29 C -0.646957 -2.200751 -4.215763 0
M  V30 30 C 0.754490 -1.671996 -4.428029 0
M  V30 31 C -0.647003 -3.656235 -4.643359 0
M  V30 32 C -1.585644 -1.367756 -5.095939 0
M  V30 33 C -2.741874 -2.000823 0.240233 0
M  V30 34 C -4.054948 -1.651597 0.850758 0
M  V30 35 C -0.884696 2.153463 -0.930116 0
M  V30 36 C 2.582064 0.058406 1.520864 0
M  V30 37 C 3.266415 -0.456551 2.609481 0
M  V30 38 C 2.840559 -0.168144 3.961681 0
M  V30 39 C 1.781946 0.634972 4.383882 0
M  V30 40 C 1.685034 0.679802 5.771849 0
M  V30 41 C 2.757830 -0.145387 6.156124 0
M  V30 42 O 3.338518 -0.572805 5.080811 0
M  V30 43 H 6.049087 -0.286070 4.568829 0
M  V30 44 H 5.659996 -1.844183 5.514716 0
M  V30 45 H 7.018213 -1.848350 4.389184 0
M  V30 46 H 4.142490 -3.717794 3.030194 0
M  V30 47 H 5.643806 -3.857587 4.163484 0
M  V30 48 H 5.819082 -3.519144 2.364121 0
M  V30 49 H 5.647338 -2.161224 0.946096 0
M  V30 50 H 4.455601 -1.243620 -0.874190 0
M  V30 51 H 2.235364 -0.465361 -1.694442 0
M  V30 52 H 1.705541 3.299087 0.984082 0
M  V30 53 H -0.069997 4.187355 2.268690 0
M  V30 54 H -2.330074 3.805985 1.648427 0
M  V30 55 H -5.461317 1.338281 0.652831 0
M  V30 56 H -3.422931 -0.083155 -1.036342 0
M  V30 57 H -5.081909 0.425987 -1.632020 0
M  V30 58 H -6.001768 -0.897462 0.324392 0
M  V30 59 H -6.191376 -2.607341 -1.265665 0
M  V30 60 H -5.175894 -1.618358 -2.318944 0
M  V30 61 H -4.361238 -3.877685 -0.382126 0
M  V30 62 H -4.244307 -3.771038 -2.177556 0
M  V30 63 H 1.251598 -2.176095 -5.285941 0
M  V30 64 H 1.342479 -1.842057 -3.506680 0
M  V30 65 H 0.696590 -0.594273 -4.681506 0
M  V30 66 H 0.164072 -3.913604 -5.334483 0
M  V30 67 H -0.526768 -4.235189 -3.701554 0
M  V30 68 H -1.598474 -3.972672 -5.112348 0
M  V30 69 H -2.178953 -0.691690 -4.430798 0
M  V30 70 H -0.985402 -0.778918 -5.844178 0
M  V30 71 H -2.294157 -2.009662 -5.681988 0
M  V30 72 H -2.130459 -1.077351 0.177855 0
M  V30 73 H -2.123379 -2.704628 0.865823 0
M  V30 74 H -3.917026 -0.984090 1.731420 0
M  V30 75 H -4.490325 -2.590340 1.271126 0
M  V30 76 H -1.246720 1.601832 -1.800873 0
M  V30 77 H 1.712513 0.694623 1.751706 0
M  V30 78 H 1.056068 1.202086 3.775467 0
M  V30 79 H 1.015697 1.189525 6.443613 0
M  V30 80 H 3.004395 -0.357848 7.176050 0
M  V30 END ATOM
M  V30 BEGIN BOND
M  V30 1 1 1 2
M  V30 2 1 2 3
M  V30 3 1 2 4
M  V30 4 2 4 5
M  V30 5 1 5 6
M  V30 6 2 6 7
M  V30 7 1 7 8
M  V30 8 1 8 9
M  V30 9 2 9 10
M  V30 10 2 9 11
M  V30 11 1 9 12
M  V30 12 2 12 13
M  V30 13 1 13 14
M  V30 14 2 14 15
M  V30 15 1 15 16
M  V30 16 1 16 17
M  V30 17 2 17 18
M  V30 18 2 17 19
M  V30 19 1 17 20
M  V30 20 1 20 21
M  V30 21 1 21 22
M  V30 22 1 22 23
M  V30 23 1 23 24
M  V30 24 1 24 25
M  V30 25 1 25 26
M  V30 26 2 26 27
M  V30 27 1 26 28
M  V30 28 1 28 29
M  V30 29 1 29 30
M  V30 30 1 29 31
M  V30 31 1 29 32
M  V30 32 1 25 33
M  V30 33 1 33 34
M  V30 34 2 16 35
M  V30 35 1 7 36
M  V30 36 2 36 37
M  V30 37 1 37 38
M  V30 38 2 38 39
M  V30 39 1 39 40
M  V30 40 2 40 41
M  V30 41 1 41 42
M  V30 42 1 37 4
M  V30 43 1 42 38
M  V30 44 1 35 12
M  V30 45 1 34 22
M  V30 46 1 1 43
M  V30 47 1 1 44
M  V30 48 1 1 45
M  V30 49 1 3 46
M  V30 50 1 3 47
M  V30 51 1 3 48
M  V30 52 1 5 49
M  V30 53 1 6 50
M  V30 54 1 8 51
M  V30 55 1 13 52
M  V30 56 1 14 53
M  V30 57 1 15 54
M  V30 58 1 20 55
M  V30 59 1 21 56
M  V30 60 1 21 57
M  V30 61 1 22 58
M  V30 62 1 23 59
M  V30 63 1 23 60
M  V30 64 1 24 61
M  V30 65 1 24 62
M  V30 66 1 30 63
M  V30 67 1 30 64
M  V30 68 1 30 65
M  V30 69 1 31 66
M  V30 70 1 31 67
M  V30 71 1 31 68
M  V30 72 1 32 69
M  V30 73 1 32 70
M  V30 74 1 32 71
M  V30 75 1 33 72
M  V30 76 1 33 73
M  V30 77 1 34 74
M  V30 78 1 34 75
M  V30 79 1 35 76
M  V30 80 1 36 77
M  V30 81 1 39 78
M  V30 82 1 40 79
M  V30 83 1 41 80
M  V30 END BOND
M  V30 END CTAB
M  END
>  <Dataset>  (420) 
ChEMBL_Kinases

>  <Ligand_Instance>  (420) 
nan

>  <PDB_ID>  (420) 
nan

>  <Standardized_SMILES>  (420) 
CN(C)c1ccc(NS(=O)(=O)c2cccc(S(=O)(=O)NCC3CCN(C(=O)OC(C)(C)C)CC3)c2)cc1-c1ccco1

>  <Name>  (420) 
nan

>  <Pocket>  (420) 
nan

>  <ATP_Site>  (420) 
nan

>  <Peripheral>  (420) 
nan

>  <Num_H_Atoms_ProtBoundConf>  (420) 
nan

>  <Num_Resolved_Atoms>  (420) 
nan

>  <Num_Not_Resolved_Atoms>  (420) 
nan

$$$$
CHEMBL4869608
     RDKit          3D

  0  0  0  0  0  0  0  0  0  0999 V3000
M  V30 BEGIN CTAB
M  V30 COUNTS 73 77 0 0 0
M  V30 BEGIN ATOM
M  V30 1 C 5.150582 -3.287644 3.205865 0
M  V30 2 C 4.557729 -2.682352 2.202196 0
M  V30 3 C 3.864638 -1.431692 1.959673 0
M  V30 4 O 3.438594 -1.256117 0.794825 0
M  V30 5 N 3.638330 -0.416283 2.915510 0
M  V30 6 C 2.990815 0.832654 2.802806 0
M  V30 7 C 2.924907 1.589912 3.969092 0
M  V30 8 C 2.324473 2.828822 3.961266 0
M  V30 9 C 1.794056 3.294639 2.773534 0
M  V30 10 C 1.819213 2.608781 1.580000 0
M  V30 11 N 1.303582 3.161931 0.396252 0
M  V30 12 C 1.006962 4.530505 0.235410 0
M  V30 13 O 1.184333 5.418922 1.102394 0
M  V30 14 O 0.482524 5.157709 -0.863567 0
M  V30 15 C 0.154645 4.443552 -2.015807 0
M  V30 16 C 0.793508 5.024359 -3.259436 0
M  V30 17 C -1.378217 4.517930 -2.127920 0
M  V30 18 C 0.478886 3.021176 -1.850051 0
M  V30 19 C 0.161712 2.320814 -3.005128 0
M  V30 20 N 0.376808 0.970267 -3.043222 0
M  V30 21 C 0.898452 0.356857 -1.937163 0
M  V30 22 N 1.216094 -1.019756 -1.709166 0
M  V30 23 C 0.103919 -1.875396 -1.365347 0
M  V30 24 C -1.206657 -1.385328 -1.354467 0
M  V30 25 C -2.266528 -2.208609 -1.045193 0
M  V30 26 C -2.090391 -3.546076 -0.733624 0
M  V30 27 N -3.259275 -4.303046 -0.453431 0
M  V30 28 C -3.335766 -5.569622 0.263191 0
M  V30 29 C -4.367741 -5.387565 1.357749 0
M  V30 30 N -4.691177 -3.998507 1.510844 0
M  V30 31 C -5.606597 -3.779238 2.622491 0
M  V30 32 C -5.328614 -3.425663 0.342712 0
M  V30 33 C -4.582256 -3.893698 -0.888095 0
M  V30 34 C -0.802221 -4.026734 -0.744653 0
M  V30 35 C 0.295400 -3.229723 -1.051121 0
M  V30 36 O 1.467198 -3.739909 -1.044043 0
M  V30 37 C 2.619224 -4.324992 -1.016490 0
M  V30 38 N 1.187184 1.078364 -0.849986 0
M  V30 39 C 1.001331 2.394815 -0.751618 0
M  V30 40 C 2.429009 1.405595 1.692084 0
M  V30 41 H 5.500412 -3.397506 4.221766 0
M  V30 42 H 5.502598 -3.406135 4.214362 0
M  V30 43 H 4.705751 -3.423450 1.441618 0
M  V30 44 H 4.048409 -0.716293 3.826703 0
M  V30 45 H 3.347471 1.210056 4.907216 0
M  V30 46 H 2.315157 3.354398 4.908399 0
M  V30 47 H 1.354451 4.265301 2.941205 0
M  V30 48 H 0.093780 4.781295 -4.109390 0
M  V30 49 H 0.808652 6.115567 -3.150960 0
M  V30 50 H 1.773549 4.565226 -3.388892 0
M  V30 51 H -1.721732 5.393463 -2.683417 0
M  V30 52 H -1.759299 4.436772 -1.088878 0
M  V30 53 H -1.757024 3.611802 -2.661226 0
M  V30 54 H -0.251768 2.689867 -3.931467 0
M  V30 55 H 2.145012 -1.484321 -1.757092 0
M  V30 56 H -1.327260 -0.324334 -1.606740 0
M  V30 57 H -3.208006 -1.678887 -1.079819 0
M  V30 58 H -2.393909 -5.848659 0.729542 0
M  V30 59 H -3.657308 -6.391182 -0.421437 0
M  V30 60 H -5.257988 -6.032704 1.188325 0
M  V30 61 H -3.918352 -5.729545 2.318643 0
M  V30 62 H -5.085902 -3.896490 3.590389 0
M  V30 63 H -5.974926 -2.708141 2.602647 0
M  V30 64 H -6.509534 -4.413437 2.539990 0
M  V30 65 H -5.226196 -2.313265 0.376104 0
M  V30 66 H -6.410531 -3.677573 0.284646 0
M  V30 67 H -4.523029 -3.089646 -1.662697 0
M  V30 68 H -5.121051 -4.724920 -1.397087 0
M  V30 69 H -0.687296 -5.074161 -0.499331 0
M  V30 70 H 3.417800 -3.678873 -1.523154 0
M  V30 71 H 2.692186 -5.300838 -1.611567 0
M  V30 72 H 3.040305 -4.555560 0.011987 0
M  V30 73 H 2.537645 0.766896 0.854375 0
M  V30 END ATOM
M  V30 BEGIN BOND
M  V30 1 2 1 2
M  V30 2 1 2 3
M  V30 3 2 3 4
M  V30 4 1 3 5
M  V30 5 1 5 6
M  V30 6 2 6 7
M  V30 7 1 7 8
M  V30 8 2 8 9
M  V30 9 1 9 10
M  V30 10 1 10 11
M  V30 11 1 11 12
M  V30 12 2 12 13
M  V30 13 1 12 14
M  V30 14 1 14 15
M  V30 15 1 15 16
M  V30 16 1 15 17
M  V30 17 1 15 18
M  V30 18 2 18 19
M  V30 19 1 19 20
M  V30 20 2 20 21
M  V30 21 1 21 22
M  V30 22 1 22 23
M  V30 23 2 23 24
M  V30 24 1 24 25
M  V30 25 2 25 26
M  V30 26 1 26 27
M  V30 27 1 27 28
M  V30 28 1 28 29
M  V30 29 1 29 30
M  V30 30 1 30 31
M  V30 31 1 30 32
M  V30 32 1 32 33
M  V30 33 1 26 34
M  V30 34 2 34 35
M  V30 35 1 35 36
M  V30 36 1 36 37
M  V30 37 1 21 38
M  V30 38 2 38 39
M  V30 39 2 10 40
M  V30 40 1 40 6
M  V30 41 1 39 11
M  V30 42 1 39 18
M  V30 43 1 35 23
M  V30 44 1 33 27
M  V30 45 1 1 41
M  V30 46 1 1 42
M  V30 47 1 2 43
M  V30 48 1 5 44
M  V30 49 1 7 45
M  V30 50 1 8 46
M  V30 51 1 9 47
M  V30 52 1 16 48
M  V30 53 1 16 49
M  V30 54 1 16 50
M  V30 55 1 17 51
M  V30 56 1 17 52
M  V30 57 1 17 53
M  V30 58 1 19 54
M  V30 59 1 22 55
M  V30 60 1 24 56
M  V30 61 1 25 57
M  V30 62 1 28 58
M  V30 63 1 28 59
M  V30 64 1 29 60
M  V30 65 1 29 61
M  V30 66 1 31 62
M  V30 67 1 31 63
M  V30 68 1 31 64
M  V30 69 1 32 65
M  V30 70 1 32 66
M  V30 71 1 33 67
M  V30 72 1 33 68
M  V30 73 1 34 69
M  V30 74 1 37 70
M  V30 75 1 37 71
M  V30 76 1 37 72
M  V30 77 1 40 73
M  V30 END BOND
M  V30 END CTAB
M  END
>  <Dataset>  (421) 
ChEMBL_Kinases

>  <Ligand_Instance>  (421) 
nan

>  <PDB_ID>  (421) 
nan

>  <Standardized_SMILES>  (421) 
C=CC(=O)Nc1cccc(N2C(=O)OC(C)(C)c3cnc(Nc4ccc(N5CCN(C)CC5)cc4OC)nc32)c1

>  <Name>  (421) 
nan

>  <Pocket>  (421) 
nan

>  <ATP_Site>  (421) 
nan

>  <Peripheral>  (421) 
nan

>  <Num_H_Atoms_ProtBoundConf>  (421) 
nan

>  <Num_Resolved_Atoms>  (421) 
nan

>  <Num_Not_Resolved_Atoms>  (421) 
nan

$$$$
CHEMBL3701807
     RDKit          3D

  0  0  0  0  0  0  0  0  0  0999 V3000
M  V30 BEGIN CTAB
M  V30 COUNTS 87 91 0 0 0
M  V30 BEGIN ATOM
M  V30 1 C -5.275704 -5.800120 -4.844293 0
M  V30 2 C -5.484055 -5.515196 -3.374344 0
M  V30 3 C -5.415055 -6.856445 -2.650510 0
M  V30 4 C -6.891414 -5.001327 -3.162337 0
M  V30 5 O -4.515218 -4.678296 -2.809965 0
M  V30 6 C -4.246083 -3.395475 -3.208984 0
M  V30 7 O -4.884699 -2.865024 -4.152344 0
M  V30 8 N -3.233589 -2.636515 -2.559310 0
M  V30 9 C -2.881750 -1.275526 -2.908089 0
M  V30 10 C -2.857083 -0.346977 -1.739190 0
M  V30 11 C -2.324538 -0.940268 -0.483042 0
M  V30 12 C -2.515200 -0.072312 0.723744 0
M  V30 13 N -1.875052 1.207734 0.622197 0
M  V30 14 S -2.133307 2.160837 2.052271 0
M  V30 15 O -3.565176 2.468828 2.283380 0
M  V30 16 O -1.393463 3.453769 1.854651 0
M  V30 17 C -1.446219 1.363196 3.450707 0
M  V30 18 C -2.228620 0.441183 4.118688 0
M  V30 19 C -1.743989 -0.225374 5.229256 0
M  V30 20 C -0.455152 0.103323 5.595253 0
M  V30 21 C 0.374455 1.020468 4.962570 0
M  V30 22 S 1.979992 1.283116 5.596977 0
M  V30 23 O 2.273477 2.765746 5.574085 0
M  V30 24 O 1.957065 0.939266 7.082821 0
M  V30 25 N 3.183364 0.337913 4.844057 0
M  V30 26 C 3.494826 0.433230 3.460556 0
M  V30 27 C 3.691510 -0.655618 2.641669 0
M  V30 28 C 3.996548 -0.421934 1.300500 0
M  V30 29 C 4.098030 0.883982 0.807445 0
M  V30 30 N 4.413947 0.984257 -0.576746 0
M  V30 31 C 3.811669 1.519323 -1.781938 0
M  V30 32 C 3.551036 0.411306 -2.790991 0
M  V30 33 C 4.731085 -0.515495 -2.897882 0
M  V30 34 C 5.933163 0.166559 -2.282976 0
M  V30 35 C 5.699494 0.369446 -0.821043 0
M  V30 36 C 3.899672 1.962513 1.631451 0
M  V30 37 C 4.004176 3.321619 1.121275 0
M  V30 38 C 3.810952 4.436910 1.908361 0
M  V30 39 C 3.974862 5.585254 1.149981 0
M  V30 40 C 4.270708 5.097104 -0.106486 0
M  V30 41 O 4.271783 3.805737 -0.054748 0
M  V30 42 C 3.600830 1.693999 2.948064 0
M  V30 43 C -0.169578 1.656177 3.854241 0
M  V30 44 C -2.896495 -2.329777 -0.271867 0
M  V30 45 C -2.437213 -3.157578 -1.462520 0
M  V30 46 H -4.625748 -6.683404 -5.003976 0
M  V30 47 H -6.287067 -6.109280 -5.242028 0
M  V30 48 H -4.906283 -4.941742 -5.416328 0
M  V30 49 H -6.113446 -7.588108 -3.101734 0
M  V30 50 H -4.409357 -7.316089 -2.683615 0
M  V30 51 H -5.642598 -6.717093 -1.552680 0
M  V30 52 H -7.611663 -5.788740 -3.439784 0
M  V30 53 H -7.082265 -4.779452 -2.092299 0
M  V30 54 H -7.094799 -4.050650 -3.713477 0
M  V30 55 H -3.474774 -0.856757 -3.725076 0
M  V30 56 H -1.814814 -1.334434 -3.274130 0
M  V30 57 H -2.314838 0.562291 -2.054795 0
M  V30 58 H -3.902639 -0.018384 -1.559357 0
M  V30 59 H -1.233692 -1.100502 -0.621636 0
M  V30 60 H -3.616698 0.096513 0.821890 0
M  V30 61 H -2.172483 -0.540698 1.656277 0
M  V30 62 H -2.352663 1.748100 -0.143714 0
M  V30 63 H -3.250633 0.203783 3.799922 0
M  V30 64 H -2.319867 -0.949641 5.776391 0
M  V30 65 H -0.084767 -0.435254 6.477902 0
M  V30 66 H 3.819296 -0.396796 5.272514 0
M  V30 67 H 3.603773 -1.658188 3.059646 0
M  V30 68 H 4.139918 -1.315375 0.706497 0
M  V30 69 H 2.840152 1.997324 -1.546416 0
M  V30 70 H 4.531975 2.235400 -2.252320 0
M  V30 71 H 2.643554 -0.133249 -2.525555 0
M  V30 72 H 3.372203 0.887513 -3.792856 0
M  V30 73 H 4.966309 -0.705582 -3.983085 0
M  V30 74 H 4.507531 -1.464447 -2.389115 0
M  V30 75 H 6.810576 -0.522985 -2.381202 0
M  V30 76 H 6.133677 1.119260 -2.793988 0
M  V30 77 H 5.811892 -0.612481 -0.272060 0
M  V30 78 H 6.544722 1.000787 -0.425628 0
M  V30 79 H 3.566592 4.502724 2.959833 0
M  V30 80 H 3.915551 6.648520 1.357713 0
M  V30 81 H 4.482286 5.633029 -1.044736 0
M  V30 82 H 3.450294 2.563110 3.571741 0
M  V30 83 H 0.465702 2.370335 3.355472 0
M  V30 84 H -4.020477 -2.225827 -0.317194 0
M  V30 85 H -2.668716 -2.768117 0.696340 0
M  V30 86 H -2.679921 -4.228202 -1.231951 0
M  V30 87 H -1.358600 -3.023439 -1.611953 0
M  V30 END ATOM
M  V30 BEGIN BOND
M  V30 1 1 1 2
M  V30 2 1 2 3
M  V30 3 1 2 4
M  V30 4 1 2 5
M  V30 5 1 5 6
M  V30 6 2 6 7
M  V30 7 1 6 8
M  V30 8 1 8 9
M  V30 9 1 9 10
M  V30 10 1 10 11
M  V30 11 1 11 12
M  V30 12 1 12 13
M  V30 13 1 13 14
M  V30 14 2 14 15
M  V30 15 2 14 16
M  V30 16 1 14 17
M  V30 17 2 17 18
M  V30 18 1 18 19
M  V30 19 2 19 20
M  V30 20 1 20 21
M  V30 21 1 21 22
M  V30 22 2 22 23
M  V30 23 2 22 24
M  V30 24 1 22 25
M  V30 25 1 25 26
M  V30 26 2 26 27
M  V30 27 1 27 28
M  V30 28 2 28 29
M  V30 29 1 29 30
M  V30 30 1 30 31
M  V30 31 1 31 32
M  V30 32 1 32 33
M  V30 33 1 33 34
M  V30 34 1 34 35
M  V30 35 1 29 36
M  V30 36 1 36 37
M  V30 37 2 37 38
M  V30 38 1 38 39
M  V30 39 2 39 40
M  V30 40 1 40 41
M  V30 41 2 36 42
M  V30 42 2 21 43
M  V30 43 1 11 44
M  V30 44 1 44 45
M  V30 45 1 45 8
M  V30 46 1 43 17
M  V30 47 1 42 26
M  V30 48 1 35 30
M  V30 49 1 41 37
M  V30 50 1 1 46
M  V30 51 1 1 47
M  V30 52 1 1 48
M  V30 53 1 3 49
M  V30 54 1 3 50
M  V30 55 1 3 51
M  V30 56 1 4 52
M  V30 57 1 4 53
M  V30 58 1 4 54
M  V30 59 1 9 55
M  V30 60 1 9 56
M  V30 61 1 10 57
M  V30 62 1 10 58
M  V30 63 1 11 59
M  V30 64 1 12 60
M  V30 65 1 12 61
M  V30 66 1 13 62
M  V30 67 1 18 63
M  V30 68 1 19 64
M  V30 69 1 20 65
M  V30 70 1 25 66
M  V30 71 1 27 67
M  V30 72 1 28 68
M  V30 73 1 31 69
M  V30 74 1 31 70
M  V30 75 1 32 71
M  V30 76 1 32 72
M  V30 77 1 33 73
M  V30 78 1 33 74
M  V30 79 1 34 75
M  V30 80 1 34 76
M  V30 81 1 35 77
M  V30 82 1 35 78
M  V30 83 1 38 79
M  V30 84 1 39 80
M  V30 85 1 40 81
M  V30 86 1 42 82
M  V30 87 1 43 83
M  V30 88 1 44 84
M  V30 89 1 44 85
M  V30 90 1 45 86
M  V30 91 1 45 87
M  V30 END BOND
M  V30 END CTAB
M  END
>  <Dataset>  (422) 
ChEMBL_Kinases

>  <Ligand_Instance>  (422) 
nan

>  <PDB_ID>  (422) 
nan

>  <Standardized_SMILES>  (422) 
CC(C)(C)OC(=O)N1CCC(CNS(=O)(=O)c2cccc(S(=O)(=O)Nc3ccc(N4CCCCC4)c(-c4ccco4)c3)c2)CC1

>  <Name>  (422) 
nan

>  <Pocket>  (422) 
nan

>  <ATP_Site>  (422) 
nan

>  <Peripheral>  (422) 
nan

>  <Num_H_Atoms_ProtBoundConf>  (422) 
nan

>  <Num_Resolved_Atoms>  (422) 
nan

>  <Num_Not_Resolved_Atoms>  (422) 
nan

$$$$
CHEMBL3969365
     RDKit          3D

  0  0  0  0  0  0  0  0  0  0999 V3000
M  V30 BEGIN CTAB
M  V30 COUNTS 59 63 0 0 0
M  V30 BEGIN ATOM
M  V30 1 C 4.674714 -1.077924 1.231479 0
M  V30 2 O 3.806184 0.031857 1.109111 0
M  V30 3 C 3.432583 0.701897 2.263534 0
M  V30 4 C 3.888656 0.306971 3.514758 0
M  V30 5 C 3.521777 0.970383 4.680916 0
M  V30 6 C 2.678679 2.053713 4.588162 0
M  V30 7 F 2.287336 2.738800 5.696072 0
M  V30 8 C 2.192438 2.492050 3.363440 0
M  V30 9 C 2.580911 1.805867 2.230531 0
M  V30 10 C 2.054479 2.286649 0.963173 0
M  V30 11 C 2.674758 3.233911 0.173451 0
M  V30 12 F 3.848477 3.757758 0.596526 0
M  V30 13 C 2.037618 3.570934 -0.997894 0
M  V30 14 N 0.868539 3.024142 -1.383238 0
M  V30 15 C 0.264239 2.089516 -0.596014 0
M  V30 16 N -0.878124 1.432968 -0.789351 0
M  V30 17 C -1.078677 0.603387 0.256334 0
M  V30 18 C -2.201356 -0.330253 0.491726 0
M  V30 19 C -2.286758 -1.094640 1.590593 0
M  V30 20 C -2.919593 -2.438951 1.330875 0
M  V30 21 C -4.390425 -2.272883 1.645290 0
M  V30 22 C -4.975978 -1.866094 0.310438 0
M  V30 23 C -3.772667 -1.831664 -0.653685 0
M  V30 24 C -3.262348 -0.395837 -0.576754 0
M  V30 25 N -2.923879 -2.741301 -0.025987 0
M  V30 26 C -2.103373 -3.629975 -0.645519 0
M  V30 27 C -0.943795 -3.080804 -1.404359 0
M  V30 28 O -0.434342 -1.962760 -1.682958 0
M  V30 29 N 0.062382 -3.763504 -2.134673 0
M  V30 30 C 1.005720 -2.814278 -2.732846 0
M  V30 31 C 0.122803 -5.217174 -2.251301 0
M  V30 32 C -0.011610 0.767912 1.115264 0
M  V30 33 C 0.853814 1.719348 0.575331 0
M  V30 34 H 5.678417 -0.762672 1.584064 0
M  V30 35 H 4.733388 -1.568427 0.228243 0
M  V30 36 H 4.186845 -1.787876 1.952657 0
M  V30 37 H 4.563794 -0.555032 3.618806 0
M  V30 38 H 3.894518 0.641477 5.650973 0
M  V30 39 H 1.523561 3.348892 3.284930 0
M  V30 40 H 2.513115 4.322801 -1.643525 0
M  V30 41 H -1.584922 1.469773 -1.578127 0
M  V30 42 H -1.896256 -0.641540 2.480176 0
M  V30 43 H -2.443209 -3.217585 1.958974 0
M  V30 44 H -4.563561 -1.510316 2.429018 0
M  V30 45 H -4.830554 -3.216313 2.033056 0
M  V30 46 H -5.680911 -2.686106 0.007971 0
M  V30 47 H -5.504856 -0.909615 0.339376 0
M  V30 48 H -4.053892 -2.078794 -1.676277 0
M  V30 49 H -2.774441 -0.184211 -1.537285 0
M  V30 50 H -4.037273 0.304815 -0.263239 0
M  V30 51 H -1.658402 -4.327601 0.104034 0
M  V30 52 H -2.722457 -4.300401 -1.312139 0
M  V30 53 H 0.584137 -2.266021 -3.585627 0
M  V30 54 H 1.857132 -3.438840 -3.115102 0
M  V30 55 H 1.456891 -2.144316 -1.983903 0
M  V30 56 H -0.484272 -5.609617 -3.091367 0
M  V30 57 H -0.100773 -5.720625 -1.291756 0
M  V30 58 H 1.188158 -5.501853 -2.499576 0
M  V30 59 H 0.151508 0.255043 2.062768 0
M  V30 END ATOM
M  V30 BEGIN BOND
M  V30 1 1 1 2
M  V30 2 1 2 3
M  V30 3 2 3 4
M  V30 4 1 4 5
M  V30 5 2 5 6
M  V30 6 1 6 7
M  V30 7 1 6 8
M  V30 8 2 8 9
M  V30 9 1 9 10
M  V30 10 2 10 11
M  V30 11 1 11 12
M  V30 12 1 11 13
M  V30 13 2 13 14
M  V30 14 1 14 15
M  V30 15 1 15 16
M  V30 16 1 16 17
M  V30 17 1 17 18
M  V30 18 2 18 19
M  V30 19 1 19 20
M  V30 20 1 20 21
M  V30 21 1 21 22
M  V30 22 1 22 23
M  V30 23 1 23 24
M  V30 24 1 23 25
M  V30 25 1 25 26
M  V30 26 1 26 27
M  V30 27 2 27 28
M  V30 28 1 27 29
M  V30 29 1 29 30
M  V30 30 1 29 31
M  V30 31 2 17 32
M  V30 32 1 32 33
M  V30 33 1 9 3
M  V30 34 1 33 10
M  V30 35 2 33 15
M  V30 36 1 24 18
M  V30 37 1 25 20
M  V30 38 1 1 34
M  V30 39 1 1 35
M  V30 40 1 1 36
M  V30 41 1 4 37
M  V30 42 1 5 38
M  V30 43 1 8 39
M  V30 44 1 13 40
M  V30 45 1 16 41
M  V30 46 1 19 42
M  V30 47 1 20 43
M  V30 48 1 21 44
M  V30 49 1 21 45
M  V30 50 1 22 46
M  V30 51 1 22 47
M  V30 52 1 23 48
M  V30 53 1 24 49
M  V30 54 1 24 50
M  V30 55 1 26 51
M  V30 56 1 26 52
M  V30 57 1 30 53
M  V30 58 1 30 54
M  V30 59 1 30 55
M  V30 60 1 31 56
M  V30 61 1 31 57
M  V30 62 1 31 58
M  V30 63 1 32 59
M  V30 END BOND
M  V30 END CTAB
M  END
>  <Dataset>  (423) 
ChEMBL_Kinases

>  <Ligand_Instance>  (423) 
nan

>  <PDB_ID>  (423) 
nan

>  <Standardized_SMILES>  (423) 
COc1ccc(F)cc1-c1c(F)cnc2[nH]c(C3=CC4CCC(C3)N4CC(=O)N(C)C)cc12

>  <Name>  (423) 
nan

>  <Pocket>  (423) 
nan

>  <ATP_Site>  (423) 
nan

>  <Peripheral>  (423) 
nan

>  <Num_H_Atoms_ProtBoundConf>  (423) 
nan

>  <Num_Resolved_Atoms>  (423) 
nan

>  <Num_Not_Resolved_Atoms>  (423) 
nan

$$$$
CHEMBL3969107
     RDKit          3D

  0  0  0  0  0  0  0  0  0  0999 V3000
M  V30 BEGIN CTAB
M  V30 COUNTS 48 51 0 0 0
M  V30 BEGIN ATOM
M  V30 1 N 5.149136 -3.323038 -3.562834 0
M  V30 2 S 4.728909 -4.074752 -2.083229 0
M  V30 3 O 3.491373 -4.918285 -2.291939 0
M  V30 4 O 5.830662 -4.991640 -1.635219 0
M  V30 5 C 4.473543 -2.862286 -0.873857 0
M  V30 6 C 5.574219 -2.302254 -0.219896 0
M  V30 7 C 5.384250 -1.348215 0.761742 0
M  V30 8 C 4.125242 -0.878911 1.171509 0
M  V30 9 N 3.999243 0.093957 2.200512 0
M  V30 10 C 2.727556 0.419485 2.734352 0
M  V30 11 N 2.802348 0.454690 4.073638 0
M  V30 12 C 1.800804 0.714503 4.916491 0
M  V30 13 C 0.560459 0.974928 4.345839 0
M  V30 14 C 0.448347 0.948825 2.976742 0
M  V30 15 C -0.814228 1.218037 2.310577 0
M  V30 16 C -0.903378 1.205882 0.931421 0
M  V30 17 C -2.108541 1.436316 0.260177 0
M  V30 18 C -3.265322 1.687899 1.008979 0
M  V30 19 O -4.529554 1.928980 0.431878 0
M  V30 20 C -5.280600 0.770347 0.161790 0
M  V30 21 C -5.100029 0.291106 -1.143874 0
M  V30 22 C -5.742236 -0.831908 -1.611281 0
M  V30 23 C -6.594182 -1.521807 -0.783215 0
M  V30 24 C -6.801734 -1.084458 0.509529 0
M  V30 25 C -6.160880 0.039322 0.979760 0
M  V30 26 C -3.119510 1.688895 2.358887 0
M  V30 27 C -1.949456 1.465888 3.036443 0
M  V30 28 N 1.536239 0.671305 2.204916 0
M  V30 29 C 3.054508 -1.457436 0.498545 0
M  V30 30 C 3.224298 -2.403824 -0.476946 0
M  V30 31 H 4.673148 -3.814199 -4.340968 0
M  V30 32 H 4.755163 -2.342030 -3.548139 0
M  V30 33 H 6.615604 -2.581222 -0.446507 0
M  V30 34 H 6.255167 -0.930092 1.248999 0
M  V30 35 H 4.882440 0.545784 2.520177 0
M  V30 36 H 1.871376 0.738632 5.994083 0
M  V30 37 H -0.259375 1.186834 5.013585 0
M  V30 38 H -0.058001 1.022309 0.289128 0
M  V30 39 H -2.192143 1.429712 -0.834420 0
M  V30 40 H -4.434545 0.785929 -1.866126 0
M  V30 41 H -5.577601 -1.169972 -2.628258 0
M  V30 42 H -7.130298 -2.419255 -1.096209 0
M  V30 43 H -7.447213 -1.540713 1.262435 0
M  V30 44 H -6.194873 0.531710 1.951769 0
M  V30 45 H -4.033309 1.886417 2.933999 0
M  V30 46 H -1.993757 1.497545 4.095708 0
M  V30 47 H 2.052650 -1.136940 0.769257 0
M  V30 48 H 2.418105 -2.869217 -1.015222 0
M  V30 END ATOM
M  V30 BEGIN BOND
M  V30 1 1 1 2
M  V30 2 2 2 3
M  V30 3 2 2 4
M  V30 4 1 2 5
M  V30 5 2 5 6
M  V30 6 1 6 7
M  V30 7 2 7 8
M  V30 8 1 8 9
M  V30 9 1 9 10
M  V30 10 2 10 11
M  V30 11 1 11 12
M  V30 12 2 12 13
M  V30 13 1 13 14
M  V30 14 1 14 15
M  V30 15 2 15 16
M  V30 16 1 16 17
M  V30 17 2 17 18
M  V30 18 1 18 19
M  V30 19 1 19 20
M  V30 20 2 20 21
M  V30 21 1 21 22
M  V30 22 2 22 23
M  V30 23 1 23 24
M  V30 24 2 24 25
M  V30 25 1 18 26
M  V30 26 2 26 27
M  V30 27 2 14 28
M  V30 28 1 8 29
M  V30 29 2 29 30
M  V30 30 1 30 5
M  V30 31 1 28 10
M  V30 32 1 27 15
M  V30 33 1 25 20
M  V30 34 1 1 31
M  V30 35 1 1 32
M  V30 36 1 6 33
M  V30 37 1 7 34
M  V30 38 1 9 35
M  V30 39 1 12 36
M  V30 40 1 13 37
M  V30 41 1 16 38
M  V30 42 1 17 39
M  V30 43 1 21 40
M  V30 44 1 22 41
M  V30 45 1 23 42
M  V30 46 1 24 43
M  V30 47 1 25 44
M  V30 48 1 26 45
M  V30 49 1 27 46
M  V30 50 1 29 47
M  V30 51 1 30 48
M  V30 END BOND
M  V30 END CTAB
M  END
>  <Dataset>  (424) 
ChEMBL_Kinases

>  <Ligand_Instance>  (424) 
nan

>  <PDB_ID>  (424) 
nan

>  <Standardized_SMILES>  (424) 
NS(=O)(=O)c1ccc(Nc2nccc(-c3ccc(Oc4ccccc4)cc3)n2)cc1

>  <Name>  (424) 
nan

>  <Pocket>  (424) 
nan

>  <ATP_Site>  (424) 
nan

>  <Peripheral>  (424) 
nan

>  <Num_H_Atoms_ProtBoundConf>  (424) 
nan

>  <Num_Resolved_Atoms>  (424) 
nan

>  <Num_Not_Resolved_Atoms>  (424) 
nan

$$$$
CHEMBL3969077
     RDKit          3D

  0  0  0  0  0  0  0  0  0  0999 V3000
M  V30 BEGIN CTAB
M  V30 COUNTS 41 44 0 0 0
M  V30 BEGIN ATOM
M  V30 1 C 0.596841 -5.141985 2.617180 0
M  V30 2 C 0.457063 -3.646108 2.726295 0
M  V30 3 C 0.854793 -2.925690 3.836288 0
M  V30 4 C 0.684041 -1.568062 3.841851 0
M  V30 5 C 0.130230 -0.896661 2.781221 0
M  V30 6 C -0.284400 -1.565142 1.649333 0
M  V30 7 C -0.841834 -0.831501 0.523627 0
M  V30 8 C 0.004674 0.148764 0.026387 0
M  V30 9 C -0.336277 0.920186 -1.065772 0
M  V30 10 N 0.539022 1.940191 -1.586642 0
M  V30 11 C 1.787090 2.214853 -0.971601 0
M  V30 12 C 1.660069 3.262956 -0.046589 0
M  V30 13 C 2.910670 3.483865 0.526554 0
M  V30 14 N 3.751199 2.589116 -0.046358 0
M  V30 15 C 5.168112 2.397451 0.200996 0
M  V30 16 N 3.099146 1.849479 -0.918565 0
M  V30 17 N -1.531093 0.687974 -1.639943 0
M  V30 18 C -2.387932 -0.239834 -1.206657 0
M  V30 19 N -3.615201 -0.694617 -1.540294 0
M  V30 20 C -4.031238 -1.691164 -0.712967 0
M  V30 21 C -3.023647 -1.902760 0.214572 0
M  V30 22 C -3.131733 -2.874157 1.253157 0
M  V30 23 N -3.239988 -3.666660 2.096962 0
M  V30 24 C -2.046136 -1.008210 -0.116652 0
M  V30 25 C -0.095914 -2.946873 1.674822 0
M  V30 26 H -0.399993 -5.563396 2.358115 0
M  V30 27 H 1.399198 -5.428842 1.935507 0
M  V30 28 H 0.782255 -5.516529 3.666098 0
M  V30 29 H 1.287194 -3.540512 4.638906 0
M  V30 30 H 1.036363 -1.113505 4.768285 0
M  V30 31 H 0.028233 0.181477 2.858236 0
M  V30 32 H 0.971611 0.378404 0.445344 0
M  V30 33 H 0.224107 2.465198 -2.420885 0
M  V30 34 H 0.892457 3.934872 0.343171 0
M  V30 35 H 3.296300 4.172136 1.273512 0
M  V30 36 H 5.226447 1.536965 0.910743 0
M  V30 37 H 5.562810 3.294430 0.742023 0
M  V30 38 H 5.708653 2.241572 -0.742536 0
M  V30 39 H -4.158175 -0.304045 -2.347910 0
M  V30 40 H -4.987020 -2.202394 -0.795762 0
M  V30 41 H -0.395159 -3.527290 0.805026 0
M  V30 END ATOM
M  V30 BEGIN BOND
M  V30 1 1 1 2
M  V30 2 2 2 3
M  V30 3 1 3 4
M  V30 4 2 4 5
M  V30 5 1 5 6
M  V30 6 1 6 7
M  V30 7 2 7 8
M  V30 8 1 8 9
M  V30 9 1 9 10
M  V30 10 1 10 11
M  V30 11 1 11 12
M  V30 12 2 12 13
M  V30 13 1 13 14
M  V30 14 1 14 15
M  V30 15 1 14 16
M  V30 16 2 9 17
M  V30 17 1 17 18
M  V30 18 1 18 19
M  V30 19 1 19 20
M  V30 20 2 20 21
M  V30 21 1 21 22
M  V30 22 3 22 23
M  V30 23 1 21 24
M  V30 24 2 6 25
M  V30 25 1 25 2
M  V30 26 1 24 7
M  V30 27 2 16 11
M  V30 28 2 24 18
M  V30 29 1 1 26
M  V30 30 1 1 27
M  V30 31 1 1 28
M  V30 32 1 3 29
M  V30 33 1 4 30
M  V30 34 1 5 31
M  V30 35 1 8 32
M  V30 36 1 10 33
M  V30 37 1 12 34
M  V30 38 1 13 35
M  V30 39 1 15 36
M  V30 40 1 15 37
M  V30 41 1 15 38
M  V30 42 1 19 39
M  V30 43 1 20 40
M  V30 44 1 25 41
M  V30 END BOND
M  V30 END CTAB
M  END
>  <Dataset>  (425) 
ChEMBL_Kinases

>  <Ligand_Instance>  (425) 
nan

>  <PDB_ID>  (425) 
nan

>  <Standardized_SMILES>  (425) 
Cc1cccc(-c2cc(Nc3ccn(C)n3)nc3[nH]cc(C#N)c23)c1

>  <Name>  (425) 
nan

>  <Pocket>  (425) 
nan

>  <ATP_Site>  (425) 
nan

>  <Peripheral>  (425) 
nan

>  <Num_H_Atoms_ProtBoundConf>  (425) 
nan

>  <Num_Resolved_Atoms>  (425) 
nan

>  <Num_Not_Resolved_Atoms>  (425) 
nan

$$$$
CHEMBL3968891
     RDKit          3D

  0  0  0  0  0  0  0  0  0  0999 V3000
M  V30 BEGIN CTAB
M  V30 COUNTS 33 35 0 0 0
M  V30 BEGIN ATOM
M  V30 1 O 2.087383 1.297348 4.437283 0
M  V30 2 C 1.941467 0.633248 3.340310 0
M  V30 3 N 2.908583 -0.228228 2.780151 0
M  V30 4 C 2.488505 -0.837422 1.566952 0
M  V30 5 N 2.751679 -1.978590 1.059859 0
M  V30 6 C 2.180056 -2.372833 -0.212289 0
M  V30 7 C 2.201909 -1.593427 -1.344229 0
M  V30 8 C 1.603590 -2.101107 -2.508183 0
M  V30 9 C 1.033111 -3.353733 -2.429374 0
M  V30 10 C 1.021201 -4.119782 -1.281086 0
M  V30 11 C 1.601487 -3.647390 -0.122178 0
M  V30 12 S 1.418148 0.488760 0.926588 0
M  V30 13 C 0.698369 0.747593 2.585137 0
M  V30 14 C -0.573048 0.916044 2.946653 0
M  V30 15 C -1.543436 0.982909 1.849572 0
M  V30 16 C -2.657786 0.148227 1.987411 0
M  V30 17 C -3.644635 0.150004 1.031935 0
M  V30 18 C -3.468136 1.012929 -0.055265 0
M  V30 19 O -4.381888 1.130275 -1.113053 0
M  V30 20 C -2.382020 1.834713 -0.199704 0
M  V30 21 C -1.382998 1.829155 0.773814 0
M  V30 22 H 3.865835 -0.410983 3.222198 0
M  V30 23 H 2.710568 -0.629515 -1.173679 0
M  V30 24 H 1.669906 -1.424247 -3.337726 0
M  V30 25 H 0.602285 -3.663797 -3.372721 0
M  V30 26 H 0.546118 -5.099716 -1.302273 0
M  V30 27 H 1.582839 -4.259947 0.766073 0
M  V30 28 H -0.688424 0.980093 4.030136 0
M  V30 29 H -2.761858 -0.505052 2.837885 0
M  V30 30 H -4.545981 -0.464932 1.055098 0
M  V30 31 H -4.215452 0.574815 -1.969667 0
M  V30 32 H -2.222627 2.518777 -1.036365 0
M  V30 33 H -0.503769 2.463739 0.695845 0
M  V30 END ATOM
M  V30 BEGIN BOND
M  V30 1 2 1 2
M  V30 2 1 2 3
M  V30 3 1 3 4
M  V30 4 2 4 5
M  V30 5 1 5 6
M  V30 6 2 6 7
M  V30 7 1 7 8
M  V30 8 2 8 9
M  V30 9 1 9 10
M  V30 10 2 10 11
M  V30 11 1 4 12
M  V30 12 1 12 13
M  V30 13 2 13 14
M  V30 14 1 14 15
M  V30 15 2 15 16
M  V30 16 1 16 17
M  V30 17 2 17 18
M  V30 18 1 18 19
M  V30 19 1 18 20
M  V30 20 2 20 21
M  V30 21 1 13 2
M  V30 22 1 21 15
M  V30 23 1 11 6
M  V30 24 1 3 22
M  V30 25 1 7 23
M  V30 26 1 8 24
M  V30 27 1 9 25
M  V30 28 1 10 26
M  V30 29 1 11 27
M  V30 30 1 14 28
M  V30 31 1 16 29
M  V30 32 1 17 30
M  V30 33 1 19 31
M  V30 34 1 20 32
M  V30 35 1 21 33
M  V30 END BOND
M  V30 END CTAB
M  END
>  <Dataset>  (426) 
ChEMBL_Kinases

>  <Ligand_Instance>  (426) 
nan

>  <PDB_ID>  (426) 
nan

>  <Standardized_SMILES>  (426) 
O=C1N/C(=N/c2ccccc2)S/C1=C\c1ccc(O)cc1

>  <Name>  (426) 
nan

>  <Pocket>  (426) 
nan

>  <ATP_Site>  (426) 
nan

>  <Peripheral>  (426) 
nan

>  <Num_H_Atoms_ProtBoundConf>  (426) 
nan

>  <Num_Resolved_Atoms>  (426) 
nan

>  <Num_Not_Resolved_Atoms>  (426) 
nan

$$$$
CHEMBL3701808
     RDKit          3D

  0  0  0  0  0  0  0  0  0  0999 V3000
M  V30 BEGIN CTAB
M  V30 COUNTS 72 75 0 0 0
M  V30 BEGIN ATOM
M  V30 1 C 2.662972 0.443830 3.575241 0
M  V30 2 C 2.221966 -1.019199 3.615077 0
M  V30 3 C 0.863962 -1.065198 4.267304 0
M  V30 4 C 3.251219 -1.755260 4.448294 0
M  V30 5 O 2.212205 -1.474985 2.289195 0
M  V30 6 C 1.857726 -2.765457 1.926250 0
M  V30 7 O 1.602789 -3.252169 3.058887 0
M  V30 8 N 1.787125 -3.400197 0.661190 0
M  V30 9 C 2.021225 -3.066015 -0.729753 0
M  V30 10 C 0.662730 -2.904809 -1.374002 0
M  V30 11 C -0.277539 -4.051232 -1.127823 0
M  V30 12 C -1.636489 -3.492316 -0.656407 0
M  V30 13 N -1.491742 -2.736060 0.546206 0
M  V30 14 S -2.919604 -2.063176 1.175146 0
M  V30 15 O -3.855302 -3.156698 1.625112 0
M  V30 16 O -2.537102 -1.311404 2.442880 0
M  V30 17 C -3.719816 -0.936049 0.149814 0
M  V30 18 C -4.669469 -1.496380 -0.679085 0
M  V30 19 C -5.413271 -0.741850 -1.573731 0
M  V30 20 C -5.156547 0.614341 -1.597510 0
M  V30 21 C -4.194320 1.200385 -0.761486 0
M  V30 22 S -3.960626 2.927374 -0.877443 0
M  V30 23 O -5.292734 3.528199 -1.199051 0
M  V30 24 O -3.570427 3.490996 0.476808 0
M  V30 25 N -2.831003 3.374494 -2.083846 0
M  V30 26 C -1.461865 3.095643 -2.252793 0
M  V30 27 C -0.864227 1.851271 -2.112743 0
M  V30 28 C 0.465005 1.589936 -2.277663 0
M  V30 29 C 1.293364 2.624733 -2.608575 0
M  V30 30 C 0.794177 3.891096 -2.769376 0
M  V30 31 C 1.552919 5.110436 -3.124944 0
M  V30 32 C 2.927649 4.982210 -3.315868 0
M  V30 33 C 3.399593 6.259547 -3.637893 0
M  V30 34 C 2.248870 7.054716 -3.611224 0
M  V30 35 O 1.189651 6.339426 -3.306157 0
M  V30 36 C -0.573762 4.127120 -2.593052 0
M  V30 37 C -3.475866 0.416894 0.114040 0
M  V30 38 C 0.207036 -5.100068 -0.200063 0
M  V30 39 C 1.373531 -4.776634 0.658600 0
M  V30 40 H 1.853548 1.139321 3.355924 0
M  V30 41 H 3.494073 0.592841 2.864649 0
M  V30 42 H 3.070829 0.655532 4.599075 0
M  V30 43 H 0.890786 -1.835304 5.055697 0
M  V30 44 H 0.066488 -1.294384 3.511868 0
M  V30 45 H 0.630542 -0.084454 4.772327 0
M  V30 46 H 4.067236 -2.088369 3.811031 0
M  V30 47 H 2.748971 -2.592331 4.977584 0
M  V30 48 H 3.671668 -1.033275 5.201843 0
M  V30 49 H 2.512731 -2.069479 -0.809847 0
M  V30 50 H 2.686743 -3.776310 -1.253288 0
M  V30 51 H 0.752160 -2.658617 -2.458246 0
M  V30 52 H 0.216931 -2.015566 -0.830639 0
M  V30 53 H -0.436178 -4.520465 -2.152678 0
M  V30 54 H -2.262277 -4.415487 -0.493918 0
M  V30 55 H -2.136886 -2.939016 -1.480909 0
M  V30 56 H -1.107356 -3.379327 1.272844 0
M  V30 57 H -4.923878 -2.565986 -0.712723 0
M  V30 58 H -6.167066 -1.144662 -2.238892 0
M  V30 59 H -5.724014 1.234303 -2.286610 0
M  V30 60 H -3.164013 3.979708 -2.895686 0
M  V30 61 H -1.483973 1.028971 -1.858515 0
M  V30 62 H 0.894087 0.602948 -2.158527 0
M  V30 63 H 2.348328 2.561968 -2.765894 0
M  V30 64 H 3.685501 4.202400 -3.282919 0
M  V30 65 H 4.364084 6.706193 -3.874006 0
M  V30 66 H 2.139271 8.116199 -3.799744 0
M  V30 67 H -1.020091 5.110885 -2.706295 0
M  V30 68 H -2.728214 0.838305 0.771204 0
M  V30 69 H 0.415984 -6.044390 -0.776499 0
M  V30 70 H -0.646294 -5.365439 0.478656 0
M  V30 71 H 1.205737 -5.183062 1.686834 0
M  V30 72 H 2.259193 -5.372819 0.275815 0
M  V30 END ATOM
M  V30 BEGIN BOND
M  V30 1 1 1 2
M  V30 2 1 2 3
M  V30 3 1 2 4
M  V30 4 1 2 5
M  V30 5 1 5 6
M  V30 6 2 6 7
M  V30 7 1 6 8
M  V30 8 1 8 9
M  V30 9 1 9 10
M  V30 10 1 10 11
M  V30 11 1 11 12
M  V30 12 1 12 13
M  V30 13 1 13 14
M  V30 14 2 14 15
M  V30 15 2 14 16
M  V30 16 1 14 17
M  V30 17 2 17 18
M  V30 18 1 18 19
M  V30 19 2 19 20
M  V30 20 1 20 21
M  V30 21 1 21 22
M  V30 22 2 22 23
M  V30 23 2 22 24
M  V30 24 1 22 25
M  V30 25 1 25 26
M  V30 26 2 26 27
M  V30 27 1 27 28
M  V30 28 2 28 29
M  V30 29 1 29 30
M  V30 30 1 30 31
M  V30 31 2 31 32
M  V30 32 1 32 33
M  V30 33 2 33 34
M  V30 34 1 34 35
M  V30 35 2 30 36
M  V30 36 2 21 37
M  V30 37 1 11 38
M  V30 38 1 38 39
M  V30 39 1 39 8
M  V30 40 1 37 17
M  V30 41 1 36 26
M  V30 42 1 35 31
M  V30 43 1 1 40
M  V30 44 1 1 41
M  V30 45 1 1 42
M  V30 46 1 3 43
M  V30 47 1 3 44
M  V30 48 1 3 45
M  V30 49 1 4 46
M  V30 50 1 4 47
M  V30 51 1 4 48
M  V30 52 1 9 49
M  V30 53 1 9 50
M  V30 54 1 10 51
M  V30 55 1 10 52
M  V30 56 1 11 53
M  V30 57 1 12 54
M  V30 58 1 12 55
M  V30 59 1 13 56
M  V30 60 1 18 57
M  V30 61 1 19 58
M  V30 62 1 20 59
M  V30 63 1 25 60
M  V30 64 1 27 61
M  V30 65 1 28 62
M  V30 66 1 29 63
M  V30 67 1 32 64
M  V30 68 1 33 65
M  V30 69 1 34 66
M  V30 70 1 36 67
M  V30 71 1 37 68
M  V30 72 1 38 69
M  V30 73 1 38 70
M  V30 74 1 39 71
M  V30 75 1 39 72
M  V30 END BOND
M  V30 END CTAB
M  END
>  <Dataset>  (427) 
ChEMBL_Kinases

>  <Ligand_Instance>  (427) 
nan

>  <PDB_ID>  (427) 
nan

>  <Standardized_SMILES>  (427) 
CC(C)(C)OC(=O)N1CCC(CNS(=O)(=O)c2cccc(S(=O)(=O)Nc3cccc(-c4ccco4)c3)c2)CC1

>  <Name>  (427) 
nan

>  <Pocket>  (427) 
nan

>  <ATP_Site>  (427) 
nan

>  <Peripheral>  (427) 
nan

>  <Num_H_Atoms_ProtBoundConf>  (427) 
nan

>  <Num_Resolved_Atoms>  (427) 
nan

>  <Num_Not_Resolved_Atoms>  (427) 
nan

$$$$
CHEMBL3968771
     RDKit          3D

  0  0  0  0  0  0  0  0  0  0999 V3000
M  V30 BEGIN CTAB
M  V30 COUNTS 43 46 0 0 0
M  V30 BEGIN ATOM
M  V30 1 N -1.476588 -7.850643 2.859306 0
M  V30 2 C -1.813455 -7.627662 1.501434 0
M  V30 3 O -2.423248 -8.509758 0.828796 0
M  V30 4 C -1.458081 -6.368376 0.858638 0
M  V30 5 C -1.781686 -6.141465 -0.463986 0
M  V30 6 C -1.469496 -4.956195 -1.138384 0
M  V30 7 C -0.799381 -3.972936 -0.417896 0
M  V30 8 N -0.337249 -2.729038 -0.706904 0
M  V30 9 C 0.252853 -2.182249 0.370748 0
M  V30 10 C 0.870994 -0.863160 0.462975 0
M  V30 11 C 0.891690 -0.026328 -0.635084 0
M  V30 12 C 1.501650 1.209614 -0.452804 0
M  V30 13 C 2.076131 1.636773 0.742534 0
M  V30 14 C 2.711225 2.952764 0.891867 0
M  V30 15 O 3.534799 3.234488 -0.189088 0
M  V30 16 C 1.762501 4.053593 1.064745 0
M  V30 17 C 0.420163 3.854516 1.293467 0
M  V30 18 C -0.520699 4.843764 1.464003 0
M  V30 19 C -0.064985 6.165290 1.397708 0
M  V30 20 Cl -1.195501 7.460777 1.603596 0
M  V30 21 C 1.296285 6.374172 1.165821 0
M  V30 22 Cl 1.790716 8.063167 1.096205 0
M  V30 23 C 2.216604 5.349462 0.998492 0
M  V30 24 C 2.035610 0.760609 1.833507 0
M  V30 25 C 1.431827 -0.467593 1.659705 0
M  V30 26 N 0.154680 -3.096007 1.334288 0
M  V30 27 C -0.475070 -4.210565 0.921818 0
M  V30 28 C -0.793899 -5.391793 1.569931 0
M  V30 29 H -0.945248 -8.603268 3.381775 0
M  V30 30 H -1.649701 -7.339597 3.762854 0
M  V30 31 H -2.302948 -6.912638 -1.015656 0
M  V30 32 H -1.719806 -4.776957 -2.166620 0
M  V30 33 H -0.417585 -2.247601 -1.625703 0
M  V30 34 H 0.467068 -0.294074 -1.585271 0
M  V30 35 H 1.569401 1.932278 -1.245755 0
M  V30 36 H 3.362993 2.938074 1.790850 0
M  V30 37 H 4.130354 3.998258 -0.017463 0
M  V30 38 H 0.124594 2.800302 1.334678 0
M  V30 39 H -1.560540 4.571605 1.640112 0
M  V30 40 H 3.237289 5.630199 0.825748 0
M  V30 41 H 2.461174 1.027741 2.787479 0
M  V30 42 H 1.391228 -1.161614 2.497397 0
M  V30 43 H -0.511695 -5.507308 2.608929 0
M  V30 END ATOM
M  V30 BEGIN BOND
M  V30 1 1 1 2
M  V30 2 2 2 3
M  V30 3 1 2 4
M  V30 4 2 4 5
M  V30 5 1 5 6
M  V30 6 2 6 7
M  V30 7 1 7 8
M  V30 8 1 8 9
M  V30 9 1 9 10
M  V30 10 2 10 11
M  V30 11 1 11 12
M  V30 12 2 12 13
M  V30 13 1 13 14
M  V30 14 1 14 15
M  V30 15 1 14 16
M  V30 16 2 16 17
M  V30 17 1 17 18
M  V30 18 2 18 19
M  V30 19 1 19 20
M  V30 20 1 19 21
M  V30 21 1 21 22
M  V30 22 2 21 23
M  V30 23 1 13 24
M  V30 24 2 24 25
M  V30 25 2 9 26
M  V30 26 1 26 27
M  V30 27 2 27 28
M  V30 28 1 28 4
M  V30 29 1 27 7
M  V30 30 1 25 10
M  V30 31 1 23 16
M  V30 32 1 1 29
M  V30 33 1 1 30
M  V30 34 1 5 31
M  V30 35 1 6 32
M  V30 36 1 8 33
M  V30 37 1 11 34
M  V30 38 1 12 35
M  V30 39 1 14 36
M  V30 40 1 15 37
M  V30 41 1 17 38
M  V30 42 1 18 39
M  V30 43 1 23 40
M  V30 44 1 24 41
M  V30 45 1 25 42
M  V30 46 1 28 43
M  V30 END BOND
M  V30 END CTAB
M  END
>  <Dataset>  (428) 
ChEMBL_Kinases

>  <Ligand_Instance>  (428) 
nan

>  <PDB_ID>  (428) 
nan

>  <Standardized_SMILES>  (428) 
NC(=O)c1ccc2[nH]c(-c3ccc(C(O)c4ccc(Cl)c(Cl)c4)cc3)nc2c1

>  <Name>  (428) 
nan

>  <Pocket>  (428) 
nan

>  <ATP_Site>  (428) 
nan

>  <Peripheral>  (428) 
nan

>  <Num_H_Atoms_ProtBoundConf>  (428) 
nan

>  <Num_Resolved_Atoms>  (428) 
nan

>  <Num_Not_Resolved_Atoms>  (428) 
nan

$$$$
CHEMBL3968487
     RDKit          3D

  0  0  0  0  0  0  0  0  0  0999 V3000
M  V30 BEGIN CTAB
M  V30 COUNTS 55 59 0 0 0
M  V30 BEGIN ATOM
M  V30 1 C 7.799403 -2.350166 1.499128 0
M  V30 2 O 7.326368 -1.526798 0.445600 0
M  V30 3 C 6.022306 -1.381344 0.059712 0
M  V30 4 O 5.391891 -2.150444 0.850031 0
M  V30 5 N 5.553138 -0.536017 -1.003661 0
M  V30 6 C 4.134008 -0.675465 -1.105566 0
M  V30 7 N 3.400420 0.046944 -0.243739 0
M  V30 8 C 2.091963 -0.150195 -0.440278 0
M  V30 9 C 0.868480 0.222937 0.039401 0
M  V30 10 C -0.409394 -0.183158 -0.402026 0
M  V30 11 C -1.499436 0.425879 0.350880 0
M  V30 12 O -1.057174 0.852340 1.628880 0
M  V30 13 C -1.852745 1.690591 -0.356567 0
M  V30 14 C -0.989863 2.649904 -0.703629 0
M  V30 15 C -1.296741 3.832560 -1.315594 0
M  V30 16 C -2.675905 3.950450 -1.556470 0
M  V30 17 C -3.581563 2.959819 -1.203421 0
M  V30 18 C -3.197938 1.793227 -0.592891 0
M  V30 19 C -3.751665 0.505488 -0.080785 0
M  V30 20 O -5.036956 0.506551 -0.247188 0
M  V30 21 N -2.684763 -0.348052 0.446913 0
M  V30 22 C -3.296616 -1.589186 0.865137 0
M  V30 23 C -2.947519 -2.752004 -0.108910 0
M  V30 24 C -2.935890 -2.029972 2.221480 0
M  V30 25 C -4.012487 -2.465977 3.038386 0
M  V30 26 C -3.750002 -2.923980 4.332405 0
M  V30 27 F -4.768783 -3.346442 5.150658 0
M  V30 28 C -2.488444 -2.984674 4.887285 0
M  V30 29 C -1.405588 -2.562039 4.110334 0
M  V30 30 F -0.130134 -2.575668 4.554979 0
M  V30 31 C -1.725230 -2.124633 2.850698 0
M  V30 32 C -0.277622 -1.065205 -1.445963 0
M  V30 33 C 0.892496 -1.504582 -1.998873 0
M  V30 34 C 2.103934 -1.056030 -1.503078 0
M  V30 35 N 3.328135 -1.388630 -1.918432 0
M  V30 36 H 7.424007 -3.375849 1.403233 0
M  V30 37 H 8.894794 -2.259087 1.617408 0
M  V30 38 H 7.347985 -1.956095 2.457476 0
M  V30 39 H 6.290341 0.020052 -1.517628 0
M  V30 40 H 1.009727 0.926992 0.855316 0
M  V30 41 H -1.680286 0.632433 2.337966 0
M  V30 42 H 0.104941 2.631446 -0.544924 0
M  V30 43 H -0.684503 4.648624 -1.626286 0
M  V30 44 H -3.121857 4.824485 -2.037302 0
M  V30 45 H -4.646177 3.063597 -1.393083 0
M  V30 46 H -4.417371 -1.579207 0.781033 0
M  V30 47 H -1.933114 -3.111140 0.037229 0
M  V30 48 H -3.138493 -2.415004 -1.120426 0
M  V30 49 H -3.716467 -3.554275 0.148797 0
M  V30 50 H -5.057062 -2.482051 2.788090 0
M  V30 51 H -2.295934 -3.346819 5.875766 0
M  V30 52 H -0.880269 -1.786005 2.230502 0
M  V30 53 H -1.209512 -1.383985 -1.832902 0
M  V30 54 H 0.812403 -2.201135 -2.812731 0
M  V30 55 H 3.701845 -2.003940 -2.645125 0
M  V30 END ATOM
M  V30 BEGIN BOND
M  V30 1 1 1 2
M  V30 2 1 2 3
M  V30 3 2 3 4
M  V30 4 1 3 5
M  V30 5 1 5 6
M  V30 6 2 6 7
M  V30 7 1 7 8
M  V30 8 2 8 9
M  V30 9 1 9 10
M  V30 10 1 10 11
M  V30 11 1 11 12
M  V30 12 1 11 13
M  V30 13 2 13 14
M  V30 14 1 14 15
M  V30 15 2 15 16
M  V30 16 1 16 17
M  V30 17 2 17 18
M  V30 18 1 18 19
M  V30 19 2 19 20
M  V30 20 1 19 21
M  V30 21 1 21 22
M  V30 22 1 22 23
M  V30 23 1 22 24
M  V30 24 2 24 25
M  V30 25 1 25 26
M  V30 26 1 26 27
M  V30 27 2 26 28
M  V30 28 1 28 29
M  V30 29 1 29 30
M  V30 30 2 29 31
M  V30 31 2 10 32
M  V30 32 1 32 33
M  V30 33 2 33 34
M  V30 34 1 34 35
M  V30 35 1 35 6
M  V30 36 1 34 8
M  V30 37 1 21 11
M  V30 38 1 31 24
M  V30 39 1 18 13
M  V30 40 1 1 36
M  V30 41 1 1 37
M  V30 42 1 1 38
M  V30 43 1 5 39
M  V30 44 1 9 40
M  V30 45 1 12 41
M  V30 46 1 14 42
M  V30 47 1 15 43
M  V30 48 1 16 44
M  V30 49 1 17 45
M  V30 50 1 22 46
M  V30 51 1 23 47
M  V30 52 1 23 48
M  V30 53 1 23 49
M  V30 54 1 25 50
M  V30 55 1 28 51
M  V30 56 1 31 52
M  V30 57 1 32 53
M  V30 58 1 33 54
M  V30 59 1 35 55
M  V30 END BOND
M  V30 END CTAB
M  END
>  <Dataset>  (429) 
ChEMBL_Kinases

>  <Ligand_Instance>  (429) 
nan

>  <PDB_ID>  (429) 
nan

>  <Standardized_SMILES>  (429) 
COC(=O)Nc1nc2cc(C3(O)c4ccccc4C(=O)N3C(C)c3cc(F)cc(F)c3)ccc2[nH]1

>  <Name>  (429) 
nan

>  <Pocket>  (429) 
nan

>  <ATP_Site>  (429) 
nan

>  <Peripheral>  (429) 
nan

>  <Num_H_Atoms_ProtBoundConf>  (429) 
nan

>  <Num_Resolved_Atoms>  (429) 
nan

>  <Num_Not_Resolved_Atoms>  (429) 
nan

$$$$
CHEMBL4869480
     RDKit          3D

  0  0  0  0  0  0  0  0  0  0999 V3000
M  V30 BEGIN CTAB
M  V30 COUNTS 26 28 0 0 0
M  V30 BEGIN ATOM
M  V30 1 N -2.824970 -3.575001 1.283405 0
M  V30 2 C -1.985242 -2.509251 1.711149 0
M  V30 3 C -2.138735 -1.890272 2.933885 0
M  V30 4 C -1.300245 -0.861178 3.304924 0
M  V30 5 C -0.329108 -0.510571 2.389771 0
M  V30 6 C -0.132164 -1.101157 1.146404 0
M  V30 7 C 0.904171 -0.683891 0.238763 0
M  V30 8 N 1.677169 -1.601184 -0.400555 0
M  V30 9 N 2.561847 -0.993053 -1.183102 0
M  V30 10 C 2.422128 0.342792 -1.103440 0
M  V30 11 N 2.966218 1.466302 -1.607710 0
M  V30 12 C 2.543199 2.698301 -1.280238 0
M  V30 13 C 1.505164 2.878199 -0.389449 0
M  V30 14 Br 1.005303 4.657623 -0.012419 0
M  V30 15 C 0.893971 1.770385 0.172279 0
M  V30 16 C 1.383459 0.529726 -0.212319 0
M  V30 17 C -0.995677 -2.126589 0.819240 0
M  V30 18 H -2.230911 -4.437440 1.314145 0
M  V30 19 H -3.784926 -3.830304 0.956394 0
M  V30 20 H -2.930742 -2.233177 3.589176 0
M  V30 21 H -1.386833 -0.353403 4.248229 0
M  V30 22 H 0.333256 0.306259 2.689109 0
M  V30 23 H 3.292800 -1.423549 -1.801052 0
M  V30 24 H 3.116722 3.456442 -1.798727 0
M  V30 25 H 0.095128 1.913135 0.857674 0
M  V30 26 H -0.885025 -2.626072 -0.147388 0
M  V30 END ATOM
M  V30 BEGIN BOND
M  V30 1 1 1 2
M  V30 2 2 2 3
M  V30 3 1 3 4
M  V30 4 2 4 5
M  V30 5 1 5 6
M  V30 6 1 6 7
M  V30 7 2 7 8
M  V30 8 1 8 9
M  V30 9 1 9 10
M  V30 10 2 10 11
M  V30 11 1 11 12
M  V30 12 2 12 13
M  V30 13 1 13 14
M  V30 14 1 13 15
M  V30 15 2 15 16
M  V30 16 2 6 17
M  V30 17 1 17 2
M  V30 18 1 16 7
M  V30 19 1 16 10
M  V30 20 1 1 18
M  V30 21 1 1 19
M  V30 22 1 3 20
M  V30 23 1 4 21
M  V30 24 1 5 22
M  V30 25 1 9 23
M  V30 26 1 12 24
M  V30 27 1 15 25
M  V30 28 1 17 26
M  V30 END BOND
M  V30 END CTAB
M  END
>  <Dataset>  (430) 
ChEMBL_Kinases

>  <Ligand_Instance>  (430) 
nan

>  <PDB_ID>  (430) 
nan

>  <Standardized_SMILES>  (430) 
Nc1cccc(-c2n[nH]c3ncc(Br)cc23)c1

>  <Name>  (430) 
nan

>  <Pocket>  (430) 
nan

>  <ATP_Site>  (430) 
nan

>  <Peripheral>  (430) 
nan

>  <Num_H_Atoms_ProtBoundConf>  (430) 
nan

>  <Num_Resolved_Atoms>  (430) 
nan

>  <Num_Not_Resolved_Atoms>  (430) 
nan

$$$$
CHEMBL3967949
     RDKit          3D

  0  0  0  0  0  0  0  0  0  0999 V3000
M  V30 BEGIN CTAB
M  V30 COUNTS 46 48 0 0 0
M  V30 BEGIN ATOM
M  V30 1 C -0.947934 -6.385759 2.663346 0
M  V30 2 C -0.855913 -5.013466 3.284507 0
M  V30 3 C -0.607733 -3.917654 2.303940 0
M  V30 4 C 0.685152 -4.063124 1.524015 0
M  V30 5 C 0.870522 -2.943040 0.565227 0
M  V30 6 C 1.517597 -1.748259 0.822215 0
M  V30 7 C 1.603419 -0.791778 -0.187053 0
M  V30 8 C 1.047093 -1.023662 -1.446511 0
M  V30 9 N 1.194694 0.046705 -2.410520 0
M  V30 10 C 0.732803 1.222378 -2.157138 0
M  V30 11 S -0.060610 1.276632 -0.523544 0
M  V30 12 C 0.124417 3.070193 -0.337376 0
M  V30 13 C 0.128241 3.817979 0.737022 0
M  V30 14 C -0.039091 3.172405 2.030658 0
M  V30 15 C 0.741163 3.694924 3.062895 0
M  V30 16 C 0.664550 3.164043 4.335448 0
M  V30 17 N -0.162189 2.129669 4.619596 0
M  V30 18 C -0.922560 1.613938 3.633435 0
M  V30 19 C -0.866341 2.121493 2.360736 0
M  V30 20 C 0.279029 3.516976 -1.716641 0
M  V30 21 O 0.145174 4.725398 -2.119490 0
M  V30 22 N 0.601829 2.533029 -2.677986 0
M  V30 23 C 0.824928 2.635331 -4.104956 0
M  V30 24 C 0.398957 -2.218022 -1.707495 0
M  V30 25 C 0.327997 -3.152534 -0.686187 0
M  V30 26 H -0.975140 -7.187672 3.428851 0
M  V30 27 H -1.912962 -6.511329 2.089973 0
M  V30 28 H -0.141031 -6.626440 1.965135 0
M  V30 29 H -0.162697 -5.014629 4.137173 0
M  V30 30 H -1.883163 -4.817416 3.710714 0
M  V30 31 H -1.481804 -3.901401 1.589210 0
M  V30 32 H -0.643772 -2.965633 2.858150 0
M  V30 33 H 1.490312 -4.044905 2.316682 0
M  V30 34 H 0.778056 -5.060921 1.055595 0
M  V30 35 H 1.925306 -1.631075 1.815410 0
M  V30 36 H 2.128735 0.105576 0.114835 0
M  V30 37 H 0.249951 4.873584 0.677134 0
M  V30 38 H 1.443820 4.526423 2.955989 0
M  V30 39 H 1.229724 3.505212 5.187313 0
M  V30 40 H -1.599204 0.785268 3.817892 0
M  V30 41 H -1.458235 1.739946 1.542898 0
M  V30 42 H 0.879977 3.704977 -4.429327 0
M  V30 43 H -0.002290 2.195823 -4.712906 0
M  V30 44 H 1.819504 2.197118 -4.390572 0
M  V30 45 H -0.014035 -2.350296 -2.695704 0
M  V30 46 H -0.207951 -4.052475 -1.014688 0
M  V30 END ATOM
M  V30 BEGIN BOND
M  V30 1 1 1 2
M  V30 2 1 2 3
M  V30 3 1 3 4
M  V30 4 1 4 5
M  V30 5 2 5 6
M  V30 6 1 6 7
M  V30 7 2 7 8
M  V30 8 1 8 9
M  V30 9 2 9 10
M  V30 10 1 10 11
M  V30 11 1 11 12
M  V30 12 2 12 13
M  V30 13 1 13 14
M  V30 14 2 14 15
M  V30 15 1 15 16
M  V30 16 2 16 17
M  V30 17 1 17 18
M  V30 18 2 18 19
M  V30 19 1 12 20
M  V30 20 2 20 21
M  V30 21 1 20 22
M  V30 22 1 22 23
M  V30 23 1 8 24
M  V30 24 2 24 25
M  V30 25 1 25 5
M  V30 26 1 22 10
M  V30 27 1 19 14
M  V30 28 1 1 26
M  V30 29 1 1 27
M  V30 30 1 1 28
M  V30 31 1 2 29
M  V30 32 1 2 30
M  V30 33 1 3 31
M  V30 34 1 3 32
M  V30 35 1 4 33
M  V30 36 1 4 34
M  V30 37 1 6 35
M  V30 38 1 7 36
M  V30 39 1 13 37
M  V30 40 1 15 38
M  V30 41 1 16 39
M  V30 42 1 18 40
M  V30 43 1 19 41
M  V30 44 1 23 42
M  V30 45 1 23 43
M  V30 46 1 23 44
M  V30 47 1 24 45
M  V30 48 1 25 46
M  V30 END BOND
M  V30 END CTAB
M  END
>  <Dataset>  (431) 
ChEMBL_Kinases

>  <Ligand_Instance>  (431) 
nan

>  <PDB_ID>  (431) 
nan

>  <Standardized_SMILES>  (431) 
CCCCc1ccc(/N=C2\S/C(=C\c3ccncc3)C(=O)N2C)cc1

>  <Name>  (431) 
nan

>  <Pocket>  (431) 
nan

>  <ATP_Site>  (431) 
nan

>  <Peripheral>  (431) 
nan

>  <Num_H_Atoms_ProtBoundConf>  (431) 
nan

>  <Num_Resolved_Atoms>  (431) 
nan

>  <Num_Not_Resolved_Atoms>  (431) 
nan

$$$$
CHEMBL3967915
     RDKit          3D

  0  0  0  0  0  0  0  0  0  0999 V3000
M  V30 BEGIN CTAB
M  V30 COUNTS 47 50 0 0 0
M  V30 BEGIN ATOM
M  V30 1 C 0.125861 -3.231660 4.158930 0
M  V30 2 C 0.226538 -3.957312 2.844451 0
M  V30 3 N 0.034558 -5.277052 2.592258 0
M  V30 4 N 0.227898 -5.470126 1.296017 0
M  V30 5 C 0.546331 -4.303419 0.672379 0
M  V30 6 C 0.825980 -4.046117 -0.654523 0
M  V30 7 C 1.126076 -2.762211 -1.049764 0
M  V30 8 C 1.126730 -1.794123 -0.067653 0
M  V30 9 C 1.431939 -0.410850 -0.379282 0
M  V30 10 O 2.627292 -0.396023 -0.822278 0
M  V30 11 N 0.976234 0.928735 -0.403664 0
M  V30 12 C 1.910081 1.926013 -0.887432 0
M  V30 13 C 2.162182 2.872318 0.243537 0
M  V30 14 N 1.033270 3.282026 1.001794 0
M  V30 15 C 1.552052 3.625255 2.339736 0
M  V30 16 C 0.006047 2.308960 1.223261 0
M  V30 17 C -0.277624 1.557011 -0.030806 0
M  V30 18 C -1.404775 0.614805 0.069292 0
M  V30 19 C -2.247321 0.612663 1.161551 0
M  V30 20 C -3.288381 -0.258351 1.235941 0
M  V30 21 C -3.561570 -1.177252 0.241623 0
M  V30 22 Cl -4.893406 -2.309902 0.303440 0
M  V30 23 C -2.699838 -1.156516 -0.847871 0
M  V30 24 C -1.618595 -0.276409 -0.961206 0
M  V30 25 C 0.843615 -2.051650 1.277110 0
M  V30 26 C 0.546036 -3.338351 1.654727 0
M  V30 27 H 0.929252 -2.453016 4.154258 0
M  V30 28 H 0.209618 -3.912341 5.024119 0
M  V30 29 H -0.881562 -2.740057 4.166451 0
M  V30 30 H 0.137651 -6.405940 0.855800 0
M  V30 31 H 0.802598 -4.875554 -1.359866 0
M  V30 32 H 1.349761 -2.522209 -2.080198 0
M  V30 33 H 2.865268 1.477848 -1.170671 0
M  V30 34 H 1.414919 2.456941 -1.737488 0
M  V30 35 H 2.577229 3.807997 -0.233911 0
M  V30 36 H 2.997611 2.500312 0.873652 0
M  V30 37 H 2.073295 2.674955 2.659716 0
M  V30 38 H 0.691352 3.709425 3.009777 0
M  V30 39 H 2.249942 4.461314 2.326353 0
M  V30 40 H 0.371596 1.620853 2.023274 0
M  V30 41 H -0.888253 2.872683 1.583061 0
M  V30 42 H -0.582272 2.319163 -0.807014 0
M  V30 43 H -2.105484 1.298255 1.984742 0
M  V30 44 H -3.978892 -0.290442 2.090981 0
M  V30 45 H -2.845189 -1.845024 -1.672817 0
M  V30 46 H -0.975370 -0.296858 -1.828688 0
M  V30 47 H 0.839806 -1.313040 2.048498 0
M  V30 END ATOM
M  V30 BEGIN BOND
M  V30 1 1 1 2
M  V30 2 2 2 3
M  V30 3 1 3 4
M  V30 4 1 4 5
M  V30 5 2 5 6
M  V30 6 1 6 7
M  V30 7 2 7 8
M  V30 8 1 8 9
M  V30 9 2 9 10
M  V30 10 1 9 11
M  V30 11 1 11 12
M  V30 12 1 12 13
M  V30 13 1 13 14
M  V30 14 1 14 15
M  V30 15 1 14 16
M  V30 16 1 16 17
M  V30 17 1 17 18
M  V30 18 2 18 19
M  V30 19 1 19 20
M  V30 20 2 20 21
M  V30 21 1 21 22
M  V30 22 1 21 23
M  V30 23 2 23 24
M  V30 24 1 8 25
M  V30 25 2 25 26
M  V30 26 1 26 2
M  V30 27 1 26 5
M  V30 28 1 17 11
M  V30 29 1 24 18
M  V30 30 1 1 27
M  V30 31 1 1 28
M  V30 32 1 1 29
M  V30 33 1 4 30
M  V30 34 1 6 31
M  V30 35 1 7 32
M  V30 36 1 12 33
M  V30 37 1 12 34
M  V30 38 1 13 35
M  V30 39 1 13 36
M  V30 40 1 15 37
M  V30 41 1 15 38
M  V30 42 1 15 39
M  V30 43 1 16 40
M  V30 44 1 16 41
M  V30 45 1 17 42
M  V30 46 1 19 43
M  V30 47 1 20 44
M  V30 48 1 23 45
M  V30 49 1 24 46
M  V30 50 1 25 47
M  V30 END BOND
M  V30 END CTAB
M  END
>  <Dataset>  (432) 
ChEMBL_Kinases

>  <Ligand_Instance>  (432) 
nan

>  <PDB_ID>  (432) 
nan

>  <Standardized_SMILES>  (432) 
Cc1n[nH]c2ccc(C(=O)N3CCN(C)CC3c3ccc(Cl)cc3)cc12

>  <Name>  (432) 
nan

>  <Pocket>  (432) 
nan

>  <ATP_Site>  (432) 
nan

>  <Peripheral>  (432) 
nan

>  <Num_H_Atoms_ProtBoundConf>  (432) 
nan

>  <Num_Resolved_Atoms>  (432) 
nan

>  <Num_Not_Resolved_Atoms>  (432) 
nan

$$$$
CHEMBL3967834
     RDKit          3D

  0  0  0  0  0  0  0  0  0  0999 V3000
M  V30 BEGIN CTAB
M  V30 COUNTS 43 44 0 0 0
M  V30 BEGIN ATOM
M  V30 1 O 4.710025 -2.955213 2.331274 0
M  V30 2 C 3.934661 -3.905255 1.974559 0
M  V30 3 C 3.169896 -4.200017 0.750851 0
M  V30 4 C 3.321269 -3.173028 -0.321853 0
M  V30 5 C 2.844271 -1.840229 0.191708 0
M  V30 6 O 2.965828 -0.835190 -0.782711 0
M  V30 7 N 2.507313 0.296690 -0.194776 0
M  V30 8 C 1.144883 0.659431 -0.272091 0
M  V30 9 O 0.495784 -0.186743 -0.928381 0
M  V30 10 C 0.626458 1.867928 0.349306 0
M  V30 11 C 1.470953 2.740547 0.993708 0
M  V30 12 C 0.903308 3.881776 1.536222 0
M  V30 13 C -0.455730 4.208346 1.476618 0
M  V30 14 F -0.912397 5.347493 2.037366 0
M  V30 15 C -1.274556 3.292097 0.812768 0
M  V30 16 F -2.586160 3.620095 0.762495 0
M  V30 17 C -0.719536 2.152028 0.269136 0
M  V30 18 N -1.690933 1.315859 -0.342917 0
M  V30 19 C -2.666956 0.403206 0.173802 0
M  V30 20 C -3.924266 0.836562 -0.259639 0
M  V30 21 C -5.081206 0.151307 0.088457 0
M  V30 22 C -4.997150 -0.972623 0.871902 0
M  V30 23 I -6.705139 -2.079696 1.451328 0
M  V30 24 C -3.752261 -1.386233 1.290551 0
M  V30 25 C -2.591820 -0.723514 0.958525 0
M  V30 26 F -1.335915 -1.017038 1.303900 0
M  V30 27 N 3.830979 -4.849314 3.035899 0
M  V30 28 O 4.499889 -4.666125 4.207530 0
M  V30 29 H 2.086459 -4.180589 1.069462 0
M  V30 30 H 3.370151 -5.229057 0.415493 0
M  V30 31 H 2.695072 -3.474666 -1.176249 0
M  V30 32 H 4.362857 -3.151773 -0.660807 0
M  V30 33 H 1.763145 -1.913412 0.425190 0
M  V30 34 H 3.378200 -1.490445 1.072809 0
M  V30 35 H 3.222318 0.866617 0.308263 0
M  V30 36 H 2.533341 2.591848 1.100359 0
M  V30 37 H 1.554838 4.583958 2.049723 0
M  V30 38 H -1.587184 1.475872 -1.381127 0
M  V30 39 H -4.180670 1.701048 -0.882822 0
M  V30 40 H -6.086435 0.418186 -0.203233 0
M  V30 41 H -3.609654 -2.255375 1.904714 0
M  V30 42 H 3.264567 -5.727871 3.025815 0
M  V30 43 H 5.476473 -4.576868 4.055672 0
M  V30 END ATOM
M  V30 BEGIN BOND
M  V30 1 2 1 2
M  V30 2 1 2 3
M  V30 3 1 3 4
M  V30 4 1 4 5
M  V30 5 1 5 6
M  V30 6 1 6 7
M  V30 7 1 7 8
M  V30 8 2 8 9
M  V30 9 1 8 10
M  V30 10 2 10 11
M  V30 11 1 11 12
M  V30 12 2 12 13
M  V30 13 1 13 14
M  V30 14 1 13 15
M  V30 15 1 15 16
M  V30 16 2 15 17
M  V30 17 1 17 18
M  V30 18 1 18 19
M  V30 19 2 19 20
M  V30 20 1 20 21
M  V30 21 2 21 22
M  V30 22 1 22 23
M  V30 23 1 22 24
M  V30 24 2 24 25
M  V30 25 1 25 26
M  V30 26 1 2 27
M  V30 27 1 27 28
M  V30 28 1 17 10
M  V30 29 1 25 19
M  V30 30 1 3 29
M  V30 31 1 3 30
M  V30 32 1 4 31
M  V30 33 1 4 32
M  V30 34 1 5 33
M  V30 35 1 5 34
M  V30 36 1 7 35
M  V30 37 1 11 36
M  V30 38 1 12 37
M  V30 39 1 18 38
M  V30 40 1 20 39
M  V30 41 1 21 40
M  V30 42 1 24 41
M  V30 43 1 27 42
M  V30 44 1 28 43
M  V30 END BOND
M  V30 END CTAB
M  END
>  <Dataset>  (433) 
ChEMBL_Kinases

>  <Ligand_Instance>  (433) 
nan

>  <PDB_ID>  (433) 
nan

>  <Standardized_SMILES>  (433) 
O=C(CCCONC(=O)c1ccc(F)c(F)c1Nc1ccc(I)cc1F)NO

>  <Name>  (433) 
nan

>  <Pocket>  (433) 
nan

>  <ATP_Site>  (433) 
nan

>  <Peripheral>  (433) 
nan

>  <Num_H_Atoms_ProtBoundConf>  (433) 
nan

>  <Num_Resolved_Atoms>  (433) 
nan

>  <Num_Not_Resolved_Atoms>  (433) 
nan

$$$$
CHEMBL3967778
     RDKit          3D

  0  0  0  0  0  0  0  0  0  0999 V3000
M  V30 BEGIN CTAB
M  V30 COUNTS 38 41 0 0 0
M  V30 BEGIN ATOM
M  V30 1 C -0.205759 -4.578827 2.385048 0
M  V30 2 C 1.152143 -4.141830 1.896221 0
M  V30 3 N 2.263969 -4.750624 2.339820 0
M  V30 4 C 3.363005 -4.247343 1.816611 0
M  V30 5 C 2.915781 -3.247745 0.981212 0
M  V30 6 S 3.188916 -1.843863 -0.258558 0
M  V30 7 C 1.388584 -1.496016 -0.421302 0
M  V30 8 C 1.073094 -0.409797 -1.336755 0
M  V30 9 O 1.502733 -0.261311 -2.509718 0
M  V30 10 N 0.250016 0.760114 -1.251072 0
M  V30 11 C 0.229069 1.595889 -2.447990 0
M  V30 12 C 0.002815 3.003041 -1.889409 0
M  V30 13 C 0.010385 2.830161 -0.381196 0
M  V30 14 C -0.619602 1.429513 -0.327667 0 CFG=2
M  V30 15 C -0.823693 0.927226 0.986128 0
M  V30 16 C 0.148794 0.520968 1.864362 0
M  V30 17 C -0.125187 0.036146 3.131747 0
M  V30 18 C -1.424908 -0.059765 3.573634 0
M  V30 19 Cl -1.860043 -0.663139 5.159123 0
M  V30 20 C -2.476406 0.329185 2.751658 0
M  V30 21 C -2.123083 0.800712 1.505247 0
M  V30 22 N 0.805130 -2.319627 0.338745 0
M  V30 23 N 1.520295 -3.174429 1.025469 0
M  V30 24 H -0.182602 -5.608669 2.724762 0
M  V30 25 H -0.559944 -3.941258 3.231539 0
M  V30 26 H -0.931187 -4.403800 1.548323 0
M  V30 27 H 4.437443 -4.343814 1.816441 0
M  V30 28 H 1.118121 1.554802 -3.065781 0
M  V30 29 H -0.619712 1.265836 -3.082409 0
M  V30 30 H -1.005859 3.310163 -2.223671 0
M  V30 31 H 0.805146 3.684370 -2.224523 0
M  V30 32 H 1.063307 2.796035 -0.058358 0
M  V30 33 H -0.612208 3.571258 0.116135 0
M  V30 34 H -1.585974 1.555254 -0.858932 0
M  V30 35 H 1.168348 0.573431 1.581783 0
M  V30 36 H 0.675545 -0.271366 3.786527 0
M  V30 37 H -3.510614 0.285781 3.018518 0
M  V30 38 H -2.941138 1.112205 0.840467 0
M  V30 END ATOM
M  V30 BEGIN BOND
M  V30 1 1 1 2
M  V30 2 2 2 3
M  V30 3 1 3 4
M  V30 4 2 4 5
M  V30 5 1 5 6
M  V30 6 1 6 7
M  V30 7 1 7 8
M  V30 8 2 8 9
M  V30 9 1 8 10
M  V30 10 1 10 11
M  V30 11 1 11 12
M  V30 12 1 12 13
M  V30 13 1 13 14
M  V30 14 1 14 15
M  V30 15 2 15 16
M  V30 16 1 16 17
M  V30 17 2 17 18
M  V30 18 1 18 19
M  V30 19 1 18 20
M  V30 20 2 20 21
M  V30 21 2 7 22
M  V30 22 1 22 23
M  V30 23 1 23 2
M  V30 24 1 23 5
M  V30 25 1 14 10
M  V30 26 1 21 15
M  V30 27 1 1 24
M  V30 28 1 1 25
M  V30 29 1 1 26
M  V30 30 1 4 27
M  V30 31 1 11 28
M  V30 32 1 11 29
M  V30 33 1 12 30
M  V30 34 1 12 31
M  V30 35 1 13 32
M  V30 36 1 13 33
M  V30 37 1 14 34 CFG=3
M  V30 38 1 16 35
M  V30 39 1 17 36
M  V30 40 1 20 37
M  V30 41 1 21 38
M  V30 END BOND
M  V30 END CTAB
M  END
>  <Dataset>  (434) 
ChEMBL_Kinases

>  <Ligand_Instance>  (434) 
nan

>  <PDB_ID>  (434) 
nan

>  <Standardized_SMILES>  (434) 
Cc1ncc2sc(C(=O)N3CCC[C@@H]3c3ccc(Cl)cc3)nn12

>  <Name>  (434) 
nan

>  <Pocket>  (434) 
nan

>  <ATP_Site>  (434) 
nan

>  <Peripheral>  (434) 
nan

>  <Num_H_Atoms_ProtBoundConf>  (434) 
nan

>  <Num_Resolved_Atoms>  (434) 
nan

>  <Num_Not_Resolved_Atoms>  (434) 
nan

$$$$
CHEMBL3967758
     RDKit          3D

  0  0  0  0  0  0  0  0  0  0999 V3000
M  V30 BEGIN CTAB
M  V30 COUNTS 41 44 0 0 0
M  V30 BEGIN ATOM
M  V30 1 N 3.698676 -5.777600 4.038070 0
M  V30 2 C 4.168513 -6.117131 2.724851 0
M  V30 3 O 4.871713 -7.051940 2.212314 0
M  V30 4 C 3.745768 -5.157615 1.686790 0
M  V30 5 C 4.095512 -5.257214 0.344056 0
M  V30 6 C 3.661390 -4.322308 -0.574871 0
M  V30 7 C 2.870840 -3.247460 -0.249784 0
M  V30 8 N 2.293350 -2.199027 -0.860330 0
M  V30 9 C 1.594446 -1.434991 0.010437 0
M  V30 10 C 0.817412 -0.213962 -0.172227 0
M  V30 11 C 0.149933 0.341219 0.931379 0
M  V30 12 C -0.575828 1.495635 0.722378 0
M  V30 13 C -0.674518 2.122506 -0.511185 0
M  V30 14 C -1.510437 3.314790 -0.579008 0
M  V30 15 O -1.367903 4.272933 -1.380990 0
M  V30 16 C -2.637950 3.474290 0.343552 0
M  V30 17 C -3.262606 2.330870 0.846120 0
M  V30 18 C -4.305281 2.384129 1.737132 0
M  V30 19 C -4.784207 3.579235 2.176060 0
M  V30 20 Cl -6.114077 3.669619 3.317642 0
M  V30 21 C -4.180722 4.709115 1.690500 0
M  V30 22 Cl -4.709282 6.301690 2.186363 0
M  V30 23 C -3.133440 4.708168 0.797737 0
M  V30 24 C -0.019631 1.586337 -1.609962 0
M  V30 25 C 0.700041 0.431155 -1.376633 0
M  V30 26 N 1.755042 -2.040667 1.184981 0
M  V30 27 C 2.515766 -3.134432 1.074005 0
M  V30 28 C 2.952438 -4.068356 1.980011 0
M  V30 29 H 2.669084 -5.734468 4.055351 0
M  V30 30 H 4.704767 -5.734415 4.394235 0
M  V30 31 H 4.718778 -6.092240 0.041259 0
M  V30 32 H 3.939512 -4.407073 -1.626881 0
M  V30 33 H 2.366564 -1.991430 -1.879924 0
M  V30 34 H 0.236434 -0.163319 1.882945 0
M  V30 35 H -1.026657 1.828325 1.669990 0
M  V30 36 H -3.009264 1.298916 0.580094 0
M  V30 37 H -4.805887 1.498318 2.143884 0
M  V30 38 H -2.604845 5.537302 0.369336 0
M  V30 39 H -0.103979 2.083474 -2.563279 0
M  V30 40 H 1.224815 -0.014590 -2.222164 0
M  V30 41 H 2.628556 -3.903842 3.020847 0
M  V30 END ATOM
M  V30 BEGIN BOND
M  V30 1 1 1 2
M  V30 2 2 2 3
M  V30 3 1 2 4
M  V30 4 2 4 5
M  V30 5 1 5 6
M  V30 6 2 6 7
M  V30 7 1 7 8
M  V30 8 1 8 9
M  V30 9 1 9 10
M  V30 10 2 10 11
M  V30 11 1 11 12
M  V30 12 2 12 13
M  V30 13 1 13 14
M  V30 14 2 14 15
M  V30 15 1 14 16
M  V30 16 2 16 17
M  V30 17 1 17 18
M  V30 18 2 18 19
M  V30 19 1 19 20
M  V30 20 1 19 21
M  V30 21 1 21 22
M  V30 22 2 21 23
M  V30 23 1 13 24
M  V30 24 2 24 25
M  V30 25 2 9 26
M  V30 26 1 26 27
M  V30 27 2 27 28
M  V30 28 1 28 4
M  V30 29 1 27 7
M  V30 30 1 25 10
M  V30 31 1 23 16
M  V30 32 1 1 29
M  V30 33 1 1 30
M  V30 34 1 5 31
M  V30 35 1 6 32
M  V30 36 1 8 33
M  V30 37 1 11 34
M  V30 38 1 12 35
M  V30 39 1 17 36
M  V30 40 1 18 37
M  V30 41 1 23 38
M  V30 42 1 24 39
M  V30 43 1 25 40
M  V30 44 1 28 41
M  V30 END BOND
M  V30 END CTAB
M  END
>  <Dataset>  (435) 
ChEMBL_Kinases

>  <Ligand_Instance>  (435) 
nan

>  <PDB_ID>  (435) 
nan

>  <Standardized_SMILES>  (435) 
NC(=O)c1ccc2[nH]c(-c3ccc(C(=O)c4ccc(Cl)c(Cl)c4)cc3)nc2c1

>  <Name>  (435) 
nan

>  <Pocket>  (435) 
nan

>  <ATP_Site>  (435) 
nan

>  <Peripheral>  (435) 
nan

>  <Num_H_Atoms_ProtBoundConf>  (435) 
nan

>  <Num_Resolved_Atoms>  (435) 
nan

>  <Num_Not_Resolved_Atoms>  (435) 
nan

$$$$
CHEMBL3967714
     RDKit          3D

  0  0  0  0  0  0  0  0  0  0999 V3000
M  V30 BEGIN CTAB
M  V30 COUNTS 72 76 0 0 0
M  V30 BEGIN ATOM
M  V30 1 C 1.898533 0.400721 1.297124 0
M  V30 2 C 2.347970 1.238823 0.120191 0 CFG=1
M  V30 3 C 3.626169 0.642119 -0.493315 0
M  V30 4 N 3.349204 0.396651 -1.850997 0
M  V30 5 C 4.156742 -0.477105 -2.593620 0
M  V30 6 C 4.051330 -1.931727 -2.200296 0
M  V30 7 C 2.639765 -2.449688 -2.363022 0
M  V30 8 C 2.170251 -2.409991 -3.780851 0
M  V30 9 O 3.030091 -3.021612 -4.659661 0
M  V30 10 C 4.346267 -2.639820 -4.575059 0
M  V30 11 C 4.913626 -2.705221 -3.178590 0
M  V30 12 C 3.022458 1.629808 -2.519559 0
M  V30 13 C 1.705783 2.166068 -1.932690 0
M  V30 14 N 1.271366 1.301854 -0.864587 0
M  V30 15 C 0.095480 0.564273 -0.650770 0
M  V30 16 O 0.096070 1.161296 -1.748926 0
M  V30 17 N -1.077940 -0.170090 -0.440478 0
M  V30 18 C -1.412075 -0.935422 0.741381 0
M  V30 19 C -2.856864 -0.644329 0.937527 0
M  V30 20 C -3.826086 -0.601718 1.902147 0
M  V30 21 N -3.831881 -0.862735 3.299816 0
M  V30 22 C -4.989868 -0.761924 4.121474 0
M  V30 23 O -6.028120 -0.420102 3.513947 0
M  V30 24 C -4.908949 -1.045799 5.544672 0
M  V30 25 C -6.135802 -0.899983 6.204175 0
M  V30 26 C -6.147713 -1.150444 7.562902 0
M  V30 27 C -5.030300 -1.522269 8.247382 0
M  V30 28 C -3.866303 -1.641256 7.517279 0
M  V30 29 C -2.676436 -2.036799 8.245387 0
M  V30 30 N -1.701140 -2.362826 8.818572 0
M  V30 31 C -3.732135 -1.415679 6.147479 0
M  V30 32 N -4.940247 -0.218162 1.224199 0
M  V30 33 N -4.660909 -0.044332 -0.047144 0
M  V30 34 C -3.345895 -0.299464 -0.303802 0
M  V30 35 C -2.223064 -0.382628 -1.271237 0
M  V30 36 C -2.424487 0.627269 -2.356763 0
M  V30 37 C -2.168285 -1.777088 -1.869809 0
M  V30 38 H 2.807188 0.154928 1.922256 0
M  V30 39 H 1.469232 -0.553504 0.958683 0
M  V30 40 H 1.233339 0.951732 1.973947 0
M  V30 41 H 2.521269 2.274587 0.470605 0
M  V30 42 H 4.426150 1.423573 -0.366877 0
M  V30 43 H 3.913866 -0.216159 0.117645 0
M  V30 44 H 5.215679 -0.201559 -2.516523 0
M  V30 45 H 3.831599 -0.431930 -3.658643 0
M  V30 46 H 4.428998 -2.154582 -1.201731 0
M  V30 47 H 1.919666 -1.910739 -1.717370 0
M  V30 48 H 2.636887 -3.505252 -2.032752 0
M  V30 49 H 1.225131 -3.035104 -3.804917 0
M  V30 50 H 1.869343 -1.381323 -4.091431 0
M  V30 51 H 4.930665 -3.397288 -5.165881 0
M  V30 52 H 4.556175 -1.678477 -5.088869 0
M  V30 53 H 5.926123 -2.234724 -3.221723 0
M  V30 54 H 4.951188 -3.786375 -2.918575 0
M  V30 55 H 2.927124 1.537249 -3.627083 0
M  V30 56 H 3.815359 2.412202 -2.355124 0
M  V30 57 H 1.009022 2.331861 -2.748388 0
M  V30 58 H 1.896072 3.202503 -1.506699 0
M  V30 59 H -0.812094 -0.577875 1.621024 0
M  V30 60 H -1.302750 -2.019599 0.572040 0
M  V30 61 H -2.870236 -1.139605 3.646518 0
M  V30 62 H -7.043197 -0.606310 5.699552 0
M  V30 63 H -7.073120 -1.049830 8.104388 0
M  V30 64 H -5.020250 -1.722026 9.310026 0
M  V30 65 H -2.808068 -1.519899 5.623666 0
M  V30 66 H -5.279830 0.251231 -0.859004 0
M  V30 67 H -2.507147 1.645413 -1.909043 0
M  V30 68 H -3.414976 0.412006 -2.820021 0
M  V30 69 H -1.675292 0.566540 -3.150698 0
M  V30 70 H -2.449683 -2.498837 -1.089312 0
M  V30 71 H -2.921717 -1.790327 -2.695080 0
M  V30 72 H -1.186051 -1.971302 -2.348447 0
M  V30 END ATOM
M  V30 BEGIN BOND
M  V30 1 1 1 2
M  V30 2 1 2 3
M  V30 3 1 3 4
M  V30 4 1 4 5
M  V30 5 1 5 6
M  V30 6 1 6 7
M  V30 7 1 7 8
M  V30 8 1 8 9
M  V30 9 1 9 10
M  V30 10 1 10 11
M  V30 11 1 4 12
M  V30 12 1 12 13
M  V30 13 1 13 14
M  V30 14 1 14 15
M  V30 15 2 15 16
M  V30 16 1 15 17
M  V30 17 1 17 18
M  V30 18 1 18 19
M  V30 19 1 19 20
M  V30 20 1 20 21
M  V30 21 1 21 22
M  V30 22 2 22 23
M  V30 23 1 22 24
M  V30 24 2 24 25
M  V30 25 1 25 26
M  V30 26 2 26 27
M  V30 27 1 27 28
M  V30 28 1 28 29
M  V30 29 3 29 30
M  V30 30 2 28 31
M  V30 31 2 20 32
M  V30 32 1 32 33
M  V30 33 1 33 34
M  V30 34 1 34 35
M  V30 35 1 35 36
M  V30 36 1 35 37
M  V30 37 1 14 2
M  V30 38 1 35 17
M  V30 39 1 11 6
M  V30 40 2 34 19
M  V30 41 1 31 24
M  V30 42 1 1 38
M  V30 43 1 1 39
M  V30 44 1 1 40
M  V30 45 1 2 41 CFG=1
M  V30 46 1 3 42
M  V30 47 1 3 43
M  V30 48 1 5 44
M  V30 49 1 5 45
M  V30 50 1 6 46
M  V30 51 1 7 47
M  V30 52 1 7 48
M  V30 53 1 8 49
M  V30 54 1 8 50
M  V30 55 1 10 51
M  V30 56 1 10 52
M  V30 57 1 11 53
M  V30 58 1 11 54
M  V30 59 1 12 55
M  V30 60 1 12 56
M  V30 61 1 13 57
M  V30 62 1 13 58
M  V30 63 1 18 59
M  V30 64 1 18 60
M  V30 65 1 21 61
M  V30 66 1 25 62
M  V30 67 1 26 63
M  V30 68 1 27 64
M  V30 69 1 31 65
M  V30 70 1 33 66
M  V30 71 1 36 67
M  V30 72 1 36 68
M  V30 73 1 36 69
M  V30 74 1 37 70
M  V30 75 1 37 71
M  V30 76 1 37 72
M  V30 END BOND
M  V30 END CTAB
M  END
>  <Dataset>  (436) 
ChEMBL_Kinases

>  <Ligand_Instance>  (436) 
nan

>  <PDB_ID>  (436) 
nan

>  <Standardized_SMILES>  (436) 
C[C@H]1CN(CC2CCOCC2)CCN1C(=O)N1Cc2c(NC(=O)c3cccc(C#N)c3)n[nH]c2C1(C)C

>  <Name>  (436) 
nan

>  <Pocket>  (436) 
nan

>  <ATP_Site>  (436) 
nan

>  <Peripheral>  (436) 
nan

>  <Num_H_Atoms_ProtBoundConf>  (436) 
nan

>  <Num_Resolved_Atoms>  (436) 
nan

>  <Num_Not_Resolved_Atoms>  (436) 
nan

$$$$
CHEMBL396768
     RDKit          3D

  0  0  0  0  0  0  0  0  0  0999 V3000
M  V30 BEGIN CTAB
M  V30 COUNTS 63 67 0 0 0
M  V30 BEGIN ATOM
M  V30 1 C 2.911336 3.072662 4.098210 0
M  V30 2 O 2.430969 2.674147 2.821533 0
M  V30 3 C 2.371297 1.309083 2.605875 0
M  V30 4 C 2.739939 0.350491 3.532244 0
M  V30 5 C 2.638476 -0.984150 3.209843 0
M  V30 6 C 2.183071 -1.438526 1.995412 0
M  V30 7 C 1.825547 -0.465165 1.097570 0
M  V30 8 C 1.911908 0.881485 1.381476 0
M  V30 9 C 1.495274 1.805490 0.325656 0
M  V30 10 O 2.302610 2.250602 -0.544298 0
M  V30 11 N 0.117136 2.199749 0.302571 0
M  V30 12 C -1.069676 1.962540 1.049623 0
M  V30 13 C -2.102928 1.108701 0.322622 0
M  V30 14 N -2.304456 1.551492 -1.017365 0
M  V30 15 C -1.469714 2.475889 -1.481825 0
M  V30 16 C -1.850034 2.765485 -2.767095 0
M  V30 17 N -2.905875 1.978881 -2.986137 0
M  V30 18 C -3.213153 1.216803 -1.928494 0
M  V30 19 C -4.341634 0.332587 -2.015871 0
M  V30 20 C -5.176414 0.423749 -3.130266 0
M  V30 21 C -6.272641 -0.384616 -3.309731 0
M  V30 22 C -6.624272 -1.346752 -2.397056 0
M  V30 23 F -7.705945 -2.115133 -2.612745 0
M  V30 24 C -5.827765 -1.471264 -1.282722 0
M  V30 25 C -4.744274 -0.640665 -1.148796 0
M  V30 26 F -4.058603 -0.897362 -0.023729 0
M  V30 27 C -0.333230 3.092098 -0.758040 0
M  V30 28 C 2.170361 -2.807923 1.902648 0
M  V30 29 C 1.796287 -3.756031 0.896824 0
M  V30 30 O 1.948676 -4.984226 1.213165 0
M  V30 31 C 1.270187 -3.758465 -0.439591 0
M  V30 32 O 0.930662 -2.810197 -1.219046 0
M  V30 33 N 1.009497 -4.925365 -1.201732 0
M  V30 34 C 1.255908 -6.276971 -0.719475 0
M  V30 35 C 0.471356 -4.937014 -2.534816 0
M  V30 36 C 2.654474 -3.212620 3.154433 0
M  V30 37 N 2.907406 -2.112420 3.865886 0
M  V30 38 C 3.430334 -2.115332 5.241080 0
M  V30 39 H 3.983123 2.736522 4.217621 0
M  V30 40 H 2.340572 2.612465 4.926478 0
M  V30 41 H 2.950562 4.186759 4.220311 0
M  V30 42 H 3.105164 0.675787 4.501798 0
M  V30 43 H 1.465078 -0.763742 0.136954 0
M  V30 44 H -1.495064 2.896512 1.453343 0
M  V30 45 H -0.823222 1.345834 1.966183 0
M  V30 46 H -3.008588 1.195642 0.942765 0
M  V30 47 H -1.733088 0.062720 0.314488 0
M  V30 48 H -1.435825 3.450909 -3.476538 0
M  V30 49 H -5.038536 1.138862 -3.953280 0
M  V30 50 H -6.898115 -0.287567 -4.180803 0
M  V30 51 H -6.105928 -2.229158 -0.569009 0
M  V30 52 H 0.520806 3.334267 -1.450929 0
M  V30 53 H -0.621779 4.073808 -0.325180 0
M  V30 54 H 2.348879 -6.442875 -0.494748 0
M  V30 55 H 1.035653 -7.061165 -1.488894 0
M  V30 56 H 0.679215 -6.558192 0.160109 0
M  V30 57 H 1.035723 -5.634466 -3.208666 0
M  V30 58 H -0.596101 -5.286114 -2.538318 0
M  V30 59 H 0.435059 -3.911656 -2.995734 0
M  V30 60 H 2.833013 -4.215042 3.581205 0
M  V30 61 H 2.603911 -1.876090 5.955587 0
M  V30 62 H 3.835498 -3.094165 5.516938 0
M  V30 63 H 4.156431 -1.294159 5.310774 0
M  V30 END ATOM
M  V30 BEGIN BOND
M  V30 1 1 1 2
M  V30 2 1 2 3
M  V30 3 2 3 4
M  V30 4 1 4 5
M  V30 5 2 5 6
M  V30 6 1 6 7
M  V30 7 2 7 8
M  V30 8 1 8 9
M  V30 9 2 9 10
M  V30 10 1 9 11
M  V30 11 1 11 12
M  V30 12 1 12 13
M  V30 13 1 13 14
M  V30 14 1 14 15
M  V30 15 2 15 16
M  V30 16 1 16 17
M  V30 17 2 17 18
M  V30 18 1 18 19
M  V30 19 2 19 20
M  V30 20 1 20 21
M  V30 21 2 21 22
M  V30 22 1 22 23
M  V30 23 1 22 24
M  V30 24 2 24 25
M  V30 25 1 25 26
M  V30 26 1 15 27
M  V30 27 1 6 28
M  V30 28 1 28 29
M  V30 29 2 29 30
M  V30 30 1 29 31
M  V30 31 2 31 32
M  V30 32 1 31 33
M  V30 33 1 33 34
M  V30 34 1 33 35
M  V30 35 2 28 36
M  V30 36 1 36 37
M  V30 37 1 37 38
M  V30 38 1 8 3
M  V30 39 1 27 11
M  V30 40 1 37 5
M  V30 41 1 18 14
M  V30 42 1 25 19
M  V30 43 1 1 39
M  V30 44 1 1 40
M  V30 45 1 1 41
M  V30 46 1 4 42
M  V30 47 1 7 43
M  V30 48 1 12 44
M  V30 49 1 12 45
M  V30 50 1 13 46
M  V30 51 1 13 47
M  V30 52 1 16 48
M  V30 53 1 20 49
M  V30 54 1 21 50
M  V30 55 1 24 51
M  V30 56 1 27 52
M  V30 57 1 27 53
M  V30 58 1 34 54
M  V30 59 1 34 55
M  V30 60 1 34 56
M  V30 61 1 35 57
M  V30 62 1 35 58
M  V30 63 1 35 59
M  V30 64 1 36 60
M  V30 65 1 38 61
M  V30 66 1 38 62
M  V30 67 1 38 63
M  V30 END BOND
M  V30 END CTAB
M  END
>  <Dataset>  (437) 
ChEMBL_Kinases

>  <Ligand_Instance>  (437) 
nan

>  <PDB_ID>  (437) 
nan

>  <Standardized_SMILES>  (437) 
COc1cc2c(cc1C(=O)N1CCn3c(cnc3-c3ccc(F)cc3F)C1)c(C(=O)C(=O)N(C)C)cn2C

>  <Name>  (437) 
nan

>  <Pocket>  (437) 
nan

>  <ATP_Site>  (437) 
nan

>  <Peripheral>  (437) 
nan

>  <Num_H_Atoms_ProtBoundConf>  (437) 
nan

>  <Num_Resolved_Atoms>  (437) 
nan

>  <Num_Not_Resolved_Atoms>  (437) 
nan

$$$$
CHEMBL396766
     RDKit          3D

  0  0  0  0  0  0  0  0  0  0999 V3000
M  V30 BEGIN CTAB
M  V30 COUNTS 44 47 0 0 0
M  V30 BEGIN ATOM
M  V30 1 O 2.289209 -2.521995 1.689883 0
M  V30 2 C 2.197951 -1.281652 1.964045 0
M  V30 3 O 2.308339 -1.120033 3.328603 0
M  V30 4 C 2.013229 -0.312571 0.892504 0
M  V30 5 C 2.001070 -0.785293 -0.406666 0
M  V30 6 C 1.866961 0.129906 -1.433557 0
M  V30 7 C 1.853260 -0.303925 -2.740866 0
M  V30 8 C 1.721884 0.587792 -3.803028 0
M  V30 9 C 1.602847 1.942015 -3.524119 0
M  V30 10 C 1.613883 2.404797 -2.222438 0
M  V30 11 C 1.746008 1.494718 -1.182063 0
M  V30 12 C 1.755481 1.983891 0.118275 0
M  V30 13 C 1.889760 1.059233 1.129404 0
M  V30 14 N 1.909565 1.577842 2.480208 0
M  V30 15 C 0.741642 1.104201 3.192823 0
M  V30 16 C 0.579649 1.305198 4.569491 0
M  V30 17 C -0.546530 0.871128 5.268038 0
M  V30 18 N -1.503755 0.238465 4.575333 0
M  V30 19 C -1.402846 0.024253 3.281665 0
M  V30 20 N -2.146614 -0.568997 2.214896 0
M  V30 21 C -1.840125 -1.729699 1.463856 0
M  V30 22 C -0.924552 -2.700723 1.790968 0
M  V30 23 C -0.649909 -3.769782 0.962544 0
M  V30 24 C -1.310864 -3.862207 -0.219314 0
M  V30 25 C -2.244304 -2.893798 -0.576477 0
M  V30 26 O -2.918710 -3.002464 -1.799727 0
M  V30 27 C -2.520219 -1.831830 0.243476 0
M  V30 28 N -0.319413 0.458638 2.700303 0
M  V30 29 H 2.437650 -1.805968 4.024447 0
M  V30 30 H 2.094429 -1.858491 -0.629554 0
M  V30 31 H 1.943140 -1.341263 -3.039107 0
M  V30 32 H 1.707195 0.276560 -4.854565 0
M  V30 33 H 1.495918 2.727041 -4.272894 0
M  V30 34 H 1.522675 3.469862 -1.979618 0
M  V30 35 H 1.656843 3.042154 0.284997 0
M  V30 36 H 2.530905 2.184100 3.046584 0
M  V30 37 H 1.376244 1.830356 5.126520 0
M  V30 38 H -0.685852 1.017132 6.321742 0
M  V30 39 H -2.990509 0.004795 2.064698 0
M  V30 40 H -0.420167 -2.589689 2.749115 0
M  V30 41 H 0.103915 -4.479443 1.340375 0
M  V30 42 H -1.073209 -4.713125 -0.857615 0
M  V30 43 H -2.812386 -3.845697 -2.351930 0
M  V30 44 H -3.251802 -1.086249 -0.053667 0
M  V30 END ATOM
M  V30 BEGIN BOND
M  V30 1 2 1 2
M  V30 2 1 2 3
M  V30 3 1 2 4
M  V30 4 2 4 5
M  V30 5 1 5 6
M  V30 6 2 6 7
M  V30 7 1 7 8
M  V30 8 2 8 9
M  V30 9 1 9 10
M  V30 10 2 10 11
M  V30 11 1 11 12
M  V30 12 2 12 13
M  V30 13 1 13 14
M  V30 14 1 14 15
M  V30 15 2 15 16
M  V30 16 1 16 17
M  V30 17 2 17 18
M  V30 18 1 18 19
M  V30 19 1 19 20
M  V30 20 1 20 21
M  V30 21 2 21 22
M  V30 22 1 22 23
M  V30 23 2 23 24
M  V30 24 1 24 25
M  V30 25 1 25 26
M  V30 26 2 25 27
M  V30 27 2 19 28
M  V30 28 1 13 4
M  V30 29 1 28 15
M  V30 30 1 11 6
M  V30 31 1 27 21
M  V30 32 1 3 29
M  V30 33 1 5 30
M  V30 34 1 7 31
M  V30 35 1 8 32
M  V30 36 1 9 33
M  V30 37 1 10 34
M  V30 38 1 12 35
M  V30 39 1 14 36
M  V30 40 1 16 37
M  V30 41 1 17 38
M  V30 42 1 20 39
M  V30 43 1 22 40
M  V30 44 1 23 41
M  V30 45 1 24 42
M  V30 46 1 26 43
M  V30 47 1 27 44
M  V30 END BOND
M  V30 END CTAB
M  END
>  <Dataset>  (438) 
ChEMBL_Kinases

>  <Ligand_Instance>  (438) 
nan

>  <PDB_ID>  (438) 
nan

>  <Standardized_SMILES>  (438) 
O=C(O)c1cc2ccccc2cc1Nc1ccnc(Nc2cccc(O)c2)n1

>  <Name>  (438) 
nan

>  <Pocket>  (438) 
nan

>  <ATP_Site>  (438) 
nan

>  <Peripheral>  (438) 
nan

>  <Num_H_Atoms_ProtBoundConf>  (438) 
nan

>  <Num_Resolved_Atoms>  (438) 
nan

>  <Num_Not_Resolved_Atoms>  (438) 
nan

$$$$
CHEMBL396731
     RDKit          3D

  0  0  0  0  0  0  0  0  0  0999 V3000
M  V30 BEGIN CTAB
M  V30 COUNTS 45 47 0 0 0
M  V30 BEGIN ATOM
M  V30 1 O 1.621587 -5.987356 -2.239335 0
M  V30 2 C 1.595209 -4.724778 -2.057323 0
M  V30 3 O 0.670932 -4.790363 -3.041279 0
M  V30 4 C 2.417083 -4.035516 -1.077898 0
M  V30 5 C 3.245705 -4.815185 -0.336445 0
M  V30 6 C 4.027685 -4.163046 0.591084 0
M  V30 7 C 3.926848 -2.794887 0.709995 0
M  V30 8 C 3.095003 -1.983660 -0.029038 0
M  V30 9 C 2.326108 -2.664288 -0.947531 0
M  V30 10 N 1.419804 -1.947921 -1.777477 0
M  V30 11 C 1.294905 -0.530246 -1.681155 0
M  V30 12 C 2.037043 0.344726 -2.489298 0
M  V30 13 C 1.914671 1.715549 -2.393336 0
M  V30 14 N 1.045713 2.193023 -1.483550 0
M  V30 15 C 0.313459 1.401551 -0.687186 0
M  V30 16 O -0.504853 1.844149 0.170669 0
M  V30 17 C -1.341848 2.326226 1.047418 0
M  V30 18 C -2.107721 1.294692 1.887806 0
M  V30 19 C -1.201773 0.431456 2.678777 0
M  V30 20 C -1.671605 0.062886 4.055993 0
M  V30 21 C -2.133914 1.242265 4.863627 0
M  V30 22 C -2.611339 2.388101 4.007140 0
M  V30 23 C -3.181432 1.939909 2.699875 0
M  V30 24 N 0.456989 0.086295 -0.807354 0
M  V30 25 H -0.299988 -4.588380 -2.844245 0
M  V30 26 H 3.300126 -5.875959 -0.452425 0
M  V30 27 H 4.716459 -4.731306 1.220628 0
M  V30 28 H 4.569135 -2.333863 1.460214 0
M  V30 29 H 3.043620 -0.922409 0.090657 0
M  V30 30 H 0.825574 -2.445337 -2.477064 0
M  V30 31 H 2.697388 -0.161853 -3.177298 0
M  V30 32 H 2.521730 2.351490 -3.052988 0
M  V30 33 H -0.874590 3.019322 1.804931 0
M  V30 34 H -2.184959 2.900223 0.535690 0
M  V30 35 H -2.639199 0.652659 1.136081 0
M  V30 36 H -0.183756 0.916773 2.735268 0
M  V30 37 H -0.997263 -0.526182 2.137280 0
M  V30 38 H -2.463115 -0.711396 4.021434 0
M  V30 39 H -0.808331 -0.389846 4.591012 0
M  V30 40 H -2.996404 0.912062 5.478852 0
M  V30 41 H -1.355851 1.573530 5.581991 0
M  V30 42 H -3.384066 3.004537 4.521767 0
M  V30 43 H -1.756380 3.060173 3.792233 0
M  V30 44 H -4.036773 1.245099 2.808135 0
M  V30 45 H -3.518782 2.844077 2.143814 0
M  V30 END ATOM
M  V30 BEGIN BOND
M  V30 1 2 1 2
M  V30 2 1 2 3
M  V30 3 1 2 4
M  V30 4 2 4 5
M  V30 5 1 5 6
M  V30 6 2 6 7
M  V30 7 1 7 8
M  V30 8 2 8 9
M  V30 9 1 9 10
M  V30 10 1 10 11
M  V30 11 2 11 12
M  V30 12 1 12 13
M  V30 13 2 13 14
M  V30 14 1 14 15
M  V30 15 1 15 16
M  V30 16 1 16 17
M  V30 17 1 17 18
M  V30 18 1 18 19
M  V30 19 1 19 20
M  V30 20 1 20 21
M  V30 21 1 21 22
M  V30 22 1 22 23
M  V30 23 2 15 24
M  V30 24 1 9 4
M  V30 25 1 24 11
M  V30 26 1 23 18
M  V30 27 1 3 25
M  V30 28 1 5 26
M  V30 29 1 6 27
M  V30 30 1 7 28
M  V30 31 1 8 29
M  V30 32 1 10 30
M  V30 33 1 12 31
M  V30 34 1 13 32
M  V30 35 1 17 33
M  V30 36 1 17 34
M  V30 37 1 18 35
M  V30 38 1 19 36
M  V30 39 1 19 37
M  V30 40 1 20 38
M  V30 41 1 20 39
M  V30 42 1 21 40
M  V30 43 1 21 41
M  V30 44 1 22 42
M  V30 45 1 22 43
M  V30 46 1 23 44
M  V30 47 1 23 45
M  V30 END BOND
M  V30 END CTAB
M  END
>  <Dataset>  (439) 
ChEMBL_Kinases

>  <Ligand_Instance>  (439) 
nan

>  <PDB_ID>  (439) 
nan

>  <Standardized_SMILES>  (439) 
O=C(O)c1ccccc1Nc1ccnc(OCC2CCCCC2)n1

>  <Name>  (439) 
nan

>  <Pocket>  (439) 
nan

>  <ATP_Site>  (439) 
nan

>  <Peripheral>  (439) 
nan

>  <Num_H_Atoms_ProtBoundConf>  (439) 
nan

>  <Num_Resolved_Atoms>  (439) 
nan

>  <Num_Not_Resolved_Atoms>  (439) 
nan

$$$$
CHEMBL3967300
     RDKit          3D

  0  0  0  0  0  0  0  0  0  0999 V3000
M  V30 BEGIN CTAB
M  V30 COUNTS 57 59 0 0 0
M  V30 BEGIN ATOM
M  V30 1 C 3.544160 -1.563382 -1.907456 0
M  V30 2 C 3.323708 -2.041352 -0.486798 0 CFG=2
M  V30 3 C 4.588563 -2.362090 0.117859 0
M  V30 4 C 4.888099 -1.501918 1.130891 0
M  V30 5 C 4.057253 -0.374753 1.584437 0
M  V30 6 O 4.377013 0.380738 2.567019 0
M  V30 7 C 3.017347 0.587608 1.716951 0 CFG=1
M  V30 8 O 3.069209 1.169113 3.024993 0
M  V30 9 C 2.805484 1.661521 0.715169 0 CFG=1
M  V30 10 O 2.901203 1.319410 -0.620442 0
M  V30 11 C 1.353862 2.233439 0.920185 0
M  V30 12 C 0.375999 1.168777 0.666465 0
M  V30 13 C -0.578723 0.485146 1.218494 0
M  V30 14 C -1.494510 -0.582229 0.822342 0
M  V30 15 C -2.783593 -0.093770 0.910160 0
M  V30 16 C -3.920683 -0.831239 0.621691 0
M  V30 17 N -5.263345 -0.402380 0.686941 0
M  V30 18 C -5.868607 0.183770 -0.476112 0
M  V30 19 C -6.888630 1.144383 0.118370 0
M  V30 20 N -7.288147 0.436296 1.324963 0
M  V30 21 C -6.227606 -0.421068 1.725458 0
M  V30 22 O -6.076620 -1.099776 2.760633 0
M  V30 23 C -3.725242 -2.131022 0.225766 0
M  V30 24 C -2.427939 -2.631622 0.135408 0
M  V30 25 O -2.009994 -3.922464 -0.240312 0
M  V30 26 C -1.304302 -1.893146 0.421064 0
M  V30 27 C 0.051386 -2.461692 0.279780 0
M  V30 28 O -0.037803 -2.970544 1.424478 0
M  V30 29 O 0.993053 -2.393670 -0.772303 0
M  V30 30 C 2.222235 -3.096089 -0.427354 0 CFG=1
M  V30 31 C 2.371825 -4.157438 -1.476495 0
M  V30 32 H 3.681559 -2.432737 -2.604782 0
M  V30 33 H 2.752064 -0.879549 -2.261404 0
M  V30 34 H 4.504443 -1.012095 -1.974630 0
M  V30 35 H 2.821748 -1.164169 0.005631 0
M  V30 36 H 5.314690 -3.102961 -0.052253 0
M  V30 37 H 5.802449 -1.581328 1.710304 0
M  V30 38 H 2.030991 0.007711 1.807083 0
M  V30 39 H 3.515272 2.058719 2.956478 0
M  V30 40 H 3.458436 2.507726 0.911598 0
M  V30 41 H 3.782399 1.443142 -1.016714 0
M  V30 42 H 1.276105 3.043856 0.184594 0
M  V30 43 H 1.307852 2.631008 1.927135 0
M  V30 44 H 0.541429 0.858351 -0.383449 0
M  V30 45 H -0.724422 0.812880 2.266301 0
M  V30 46 H -3.076684 0.925032 1.217582 0
M  V30 47 H -6.400417 -0.644960 -1.014202 0
M  V30 48 H -5.172838 0.699451 -1.155084 0
M  V30 49 H -7.746691 1.293463 -0.572357 0
M  V30 50 H -6.377776 2.099803 0.317857 0
M  V30 51 H -8.202768 0.529660 1.830115 0
M  V30 52 H -4.446454 -2.882765 -0.046534 0
M  V30 53 H -1.871717 -4.573406 0.543975 0
M  V30 54 H 2.175408 -3.553248 0.558321 0
M  V30 55 H 1.988421 -3.831980 -2.471380 0
M  V30 56 H 1.702571 -4.997250 -1.165716 0
M  V30 57 H 3.381287 -4.606661 -1.539623 0
M  V30 END ATOM
M  V30 BEGIN BOND
M  V30 1 1 1 2
M  V30 2 1 2 3
M  V30 3 2 3 4
M  V30 4 1 4 5
M  V30 5 2 5 6
M  V30 6 1 5 7
M  V30 7 1 7 8
M  V30 8 1 7 9
M  V30 9 1 9 10
M  V30 10 1 9 11
M  V30 11 1 11 12
M  V30 12 2 12 13
M  V30 13 1 13 14
M  V30 14 2 14 15
M  V30 15 1 15 16
M  V30 16 1 16 17
M  V30 17 1 17 18
M  V30 18 1 18 19
M  V30 19 1 19 20
M  V30 20 1 20 21
M  V30 21 2 21 22
M  V30 22 2 16 23
M  V30 23 1 23 24
M  V30 24 1 24 25
M  V30 25 2 24 26
M  V30 26 1 26 27
M  V30 27 2 27 28
M  V30 28 1 27 29
M  V30 29 1 29 30
M  V30 30 1 30 31
M  V30 31 1 30 2
M  V30 32 1 26 14
M  V30 33 1 21 17
M  V30 34 1 1 32
M  V30 35 1 1 33
M  V30 36 1 1 34
M  V30 37 1 2 35 CFG=1
M  V30 38 1 3 36
M  V30 39 1 4 37
M  V30 40 1 7 38 CFG=1
M  V30 41 1 8 39
M  V30 42 1 9 40 CFG=1
M  V30 43 1 10 41
M  V30 44 1 11 42
M  V30 45 1 11 43
M  V30 46 1 12 44
M  V30 47 1 13 45
M  V30 48 1 15 46
M  V30 49 1 18 47
M  V30 50 1 18 48
M  V30 51 1 19 49
M  V30 52 1 19 50
M  V30 53 1 20 51
M  V30 54 1 23 52
M  V30 55 1 25 53
M  V30 56 1 30 54 CFG=1
M  V30 57 1 31 55
M  V30 58 1 31 56
M  V30 59 1 31 57
M  V30 END BOND
M  V30 END CTAB
M  END
>  <Dataset>  (440) 
ChEMBL_Kinases

>  <Ligand_Instance>  (440) 
nan

>  <PDB_ID>  (440) 
nan

>  <Standardized_SMILES>  (440) 
C[C@@H]1/C=C\C(=O)[C@@H](O)[C@@H](O)C/C=C/c2cc(N3CCNC3=O)cc(O)c2C(=O)O[C@H]1C

>  <Name>  (440) 
nan

>  <Pocket>  (440) 
nan

>  <ATP_Site>  (440) 
nan

>  <Peripheral>  (440) 
nan

>  <Num_H_Atoms_ProtBoundConf>  (440) 
nan

>  <Num_Resolved_Atoms>  (440) 
nan

>  <Num_Not_Resolved_Atoms>  (440) 
nan

$$$$
CHEMBL370199
     RDKit          3D

  0  0  0  0  0  0  0  0  0  0999 V3000
M  V30 BEGIN CTAB
M  V30 COUNTS 29 30 0 0 0
M  V30 BEGIN ATOM
M  V30 1 C 2.345338 -2.192344 5.102517 0
M  V30 2 O 1.799882 -1.407572 4.055645 0
M  V30 3 C 1.510547 -1.862229 2.791593 0
M  V30 4 O 1.860670 -3.089079 2.875174 0
M  V30 5 C 0.941157 -0.934565 1.786975 0
M  V30 6 O 0.687958 0.292012 2.002658 0
M  V30 7 N 0.635735 -1.377281 0.482928 0
M  V30 8 C 0.095615 -0.359148 -0.357713 0
M  V30 9 C 0.961830 0.390948 -1.095140 0
M  V30 10 C 2.393959 0.361745 -1.203419 0
M  V30 11 N 3.078214 1.266125 -2.059086 0
M  V30 12 O 3.017484 -0.487136 -0.518556 0
M  V30 13 S -0.062423 1.529818 -1.996166 0
M  V30 14 C -1.629595 0.934766 -1.328923 0
M  V30 15 N -2.996483 1.082909 -1.330857 0
M  V30 16 N -3.469360 0.195808 -0.510293 0
M  V30 17 C -2.460418 -0.516686 0.019004 0
M  V30 18 C -2.758489 -1.614090 1.007237 0
M  V30 19 C -1.244289 -0.091331 -0.466888 0
M  V30 20 H 1.464004 -2.542124 5.714285 0
M  V30 21 H 2.880338 -3.082232 4.769154 0
M  V30 22 H 2.961413 -1.580526 5.794895 0
M  V30 23 H 0.801700 -2.372633 0.185908 0
M  V30 24 H 3.705558 2.057992 -1.797108 0
M  V30 25 H 3.068928 1.291521 -3.104763 0
M  V30 26 H -3.441493 1.803870 -1.920242 0
M  V30 27 H -1.952782 -2.402019 0.936131 0
M  V30 28 H -2.775328 -1.237633 2.046039 0
M  V30 29 H -3.696773 -2.111284 0.767706 0
M  V30 END ATOM
M  V30 BEGIN BOND
M  V30 1 1 1 2
M  V30 2 1 2 3
M  V30 3 2 3 4
M  V30 4 1 3 5
M  V30 5 2 5 6
M  V30 6 1 5 7
M  V30 7 1 7 8
M  V30 8 2 8 9
M  V30 9 1 9 10
M  V30 10 1 10 11
M  V30 11 2 10 12
M  V30 12 1 9 13
M  V30 13 1 13 14
M  V30 14 1 14 15
M  V30 15 1 15 16
M  V30 16 2 16 17
M  V30 17 1 17 18
M  V30 18 1 17 19
M  V30 19 1 19 8
M  V30 20 2 19 14
M  V30 21 1 1 20
M  V30 22 1 1 21
M  V30 23 1 1 22
M  V30 24 1 7 23
M  V30 25 1 11 24
M  V30 26 1 11 25
M  V30 27 1 15 26
M  V30 28 1 18 27
M  V30 29 1 18 28
M  V30 30 1 18 29
M  V30 END BOND
M  V30 END CTAB
M  END
>  <Dataset>  (441) 
ChEMBL_Kinases

>  <Ligand_Instance>  (441) 
nan

>  <PDB_ID>  (441) 
nan

>  <Standardized_SMILES>  (441) 
COC(=O)C(=O)Nc1c(C(N)=O)sc2[nH]nc(C)c12

>  <Name>  (441) 
nan

>  <Pocket>  (441) 
nan

>  <ATP_Site>  (441) 
nan

>  <Peripheral>  (441) 
nan

>  <Num_H_Atoms_ProtBoundConf>  (441) 
nan

>  <Num_Resolved_Atoms>  (441) 
nan

>  <Num_Not_Resolved_Atoms>  (441) 
nan

$$$$
CHEMBL3968271
     RDKit          3D

  0  0  0  0  0  0  0  0  0  0999 V3000
M  V30 BEGIN CTAB
M  V30 COUNTS 46 49 0 0 0
M  V30 BEGIN ATOM
M  V30 1 C 0.190225 -7.570765 -1.605861 0
M  V30 2 C 0.211472 -6.123891 -1.952259 0
M  V30 3 C 1.335330 -5.586093 -2.525264 0
M  V30 4 C 1.397826 -4.237268 -2.865197 0
M  V30 5 C 0.310212 -3.423080 -2.622408 0
M  V30 6 C 0.226326 -1.964136 -2.929822 0
M  V30 7 O -0.994070 -1.699882 -3.524314 0
M  V30 8 C 0.272352 -1.158128 -1.658389 0
M  V30 9 C 0.709668 -1.666479 -0.433136 0
M  V30 10 C 0.708855 -0.830975 0.673631 0
M  V30 11 C 0.276826 0.474212 0.530269 0
M  V30 12 C 0.275461 1.357196 1.697453 0
M  V30 13 N -0.106438 2.638952 1.740672 0
M  V30 14 C 0.029717 3.135181 2.991576 0
M  V30 15 C -0.231314 4.398111 3.535017 0
M  V30 16 C 0.022473 4.576914 4.875398 0
M  V30 17 C -0.251002 5.894459 5.437432 0
M  V30 18 N -0.037549 6.213345 6.789016 0
M  V30 19 O -0.699082 6.783168 4.670641 0
M  V30 20 C 0.519613 3.568746 5.696420 0
M  V30 21 C 0.757446 2.331942 5.086884 0
M  V30 22 C 0.522869 2.091240 3.747754 0
M  V30 23 N 0.663931 1.025075 2.944364 0
M  V30 24 C -0.155861 0.975631 -0.684067 0
M  V30 25 C -0.166149 0.160826 -1.811576 0
M  V30 26 C -0.834277 -3.935182 -2.047188 0
M  V30 27 C -0.854620 -5.281762 -1.724564 0
M  V30 28 H 0.420763 -8.230375 -2.465650 0
M  V30 29 H -0.838744 -7.862295 -1.266234 0
M  V30 30 H 0.914258 -7.801945 -0.786515 0
M  V30 31 H 2.244736 -6.156399 -2.754081 0
M  V30 32 H 2.245386 -3.735831 -3.319718 0
M  V30 33 H 1.106940 -1.708830 -3.527514 0
M  V30 34 H -1.294165 -2.511149 -3.995522 0
M  V30 35 H 1.028331 -2.695157 -0.415060 0
M  V30 36 H 1.054515 -1.256269 1.610836 0
M  V30 37 H -0.619494 5.187148 2.896369 0
M  V30 38 H 0.002252 7.182203 7.122474 0
M  V30 39 H 0.098986 5.554479 7.576255 0
M  V30 40 H 0.709137 3.739965 6.747454 0
M  V30 41 H 1.143569 1.533945 5.704705 0
M  V30 42 H 1.018987 0.131497 3.300214 0
M  V30 43 H -0.482557 2.005643 -0.735262 0
M  V30 44 H -0.501782 0.552509 -2.749889 0
M  V30 45 H -1.736593 -3.376311 -1.818528 0
M  V30 46 H -1.726469 -5.746656 -1.268914 0
M  V30 END ATOM
M  V30 BEGIN BOND
M  V30 1 1 1 2
M  V30 2 2 2 3
M  V30 3 1 3 4
M  V30 4 2 4 5
M  V30 5 1 5 6
M  V30 6 1 6 7
M  V30 7 1 6 8
M  V30 8 2 8 9
M  V30 9 1 9 10
M  V30 10 2 10 11
M  V30 11 1 11 12
M  V30 12 2 12 13
M  V30 13 1 13 14
M  V30 14 2 14 15
M  V30 15 1 15 16
M  V30 16 1 16 17
M  V30 17 1 17 18
M  V30 18 2 17 19
M  V30 19 2 16 20
M  V30 20 1 20 21
M  V30 21 2 21 22
M  V30 22 1 22 23
M  V30 23 1 11 24
M  V30 24 2 24 25
M  V30 25 1 5 26
M  V30 26 2 26 27
M  V30 27 1 27 2
M  V30 28 1 25 8
M  V30 29 1 23 12
M  V30 30 1 22 14
M  V30 31 1 1 28
M  V30 32 1 1 29
M  V30 33 1 1 30
M  V30 34 1 3 31
M  V30 35 1 4 32
M  V30 36 1 6 33
M  V30 37 1 7 34
M  V30 38 1 9 35
M  V30 39 1 10 36
M  V30 40 1 15 37
M  V30 41 1 18 38
M  V30 42 1 18 39
M  V30 43 1 20 40
M  V30 44 1 21 41
M  V30 45 1 23 42
M  V30 46 1 24 43
M  V30 47 1 25 44
M  V30 48 1 26 45
M  V30 49 1 27 46
M  V30 END BOND
M  V30 END CTAB
M  END
>  <Dataset>  (442) 
ChEMBL_Kinases

>  <Ligand_Instance>  (442) 
nan

>  <PDB_ID>  (442) 
nan

>  <Standardized_SMILES>  (442) 
Cc1ccc(C(O)c2ccc(-c3nc4cc(C(N)=O)ccc4[nH]3)cc2)cc1

>  <Name>  (442) 
nan

>  <Pocket>  (442) 
nan

>  <ATP_Site>  (442) 
nan

>  <Peripheral>  (442) 
nan

>  <Num_H_Atoms_ProtBoundConf>  (442) 
nan

>  <Num_Resolved_Atoms>  (442) 
nan

>  <Num_Not_Resolved_Atoms>  (442) 
nan

$$$$
CHEMBL3971136
     RDKit          3D

  0  0  0  0  0  0  0  0  0  0999 V3000
M  V30 BEGIN CTAB
M  V30 COUNTS 40 43 0 0 0
M  V30 BEGIN ATOM
M  V30 1 N 1.116324 -8.437271 -0.787266 0
M  V30 2 C 1.797815 -7.193364 -0.626557 0
M  V30 3 O 2.977042 -7.578404 -0.616422 0
M  V30 4 C 1.036600 -5.970075 -0.530158 0
M  V30 5 C -0.347402 -5.988330 -0.591722 0
M  V30 6 C -0.920465 -4.741481 -0.484678 0
M  V30 7 C -0.245959 -3.547888 -0.329510 0
M  V30 8 N -0.641119 -2.267612 -0.211242 0
M  V30 9 C 0.465823 -1.507877 -0.083258 0
M  V30 10 C 0.425147 -0.055561 0.068532 0
M  V30 11 C -0.808009 0.564837 0.081163 0
M  V30 12 C -0.898397 1.950435 0.223818 0
M  V30 13 C 0.267495 2.683312 0.351411 0
M  V30 14 O 0.105669 4.057679 0.489817 0
M  V30 15 C -0.029307 4.652993 1.737966 0
M  V30 16 C 1.078538 5.095099 2.450902 0
M  V30 17 C 0.851053 5.669535 3.672518 0
M  V30 18 C -0.421409 5.795999 4.157988 0
M  V30 19 Cl -0.727092 6.529122 5.719707 0
M  V30 20 C -1.500413 5.359214 3.450883 0
M  V30 21 C -1.326787 4.773273 2.215153 0
M  V30 22 C 1.510374 2.065378 0.339448 0
M  V30 23 C 1.586014 0.683540 0.196563 0
M  V30 24 Cl 3.150672 -0.122051 0.178583 0
M  V30 25 N 1.543685 -2.310964 -0.121680 0
M  V30 26 C 1.148827 -3.604512 -0.275387 0
M  V30 27 C 1.794509 -4.815249 -0.375482 0
M  V30 28 H 0.517947 -8.622970 -1.634334 0
M  V30 29 H 0.525014 -8.644275 -1.606039 0
M  V30 30 H -0.912721 -6.888864 -0.711217 0
M  V30 31 H -2.012156 -4.683400 -0.525582 0
M  V30 32 H -1.648462 -1.984779 -0.224767 0
M  V30 33 H -1.762917 0.045673 -0.014789 0
M  V30 34 H -1.877924 2.436733 0.233174 0
M  V30 35 H 2.076105 4.987721 2.053381 0
M  V30 36 H 1.723995 6.022623 4.244034 0
M  V30 37 H -2.503051 5.457063 3.829731 0
M  V30 38 H -2.166234 4.425518 1.648721 0
M  V30 39 H 2.392143 2.679807 0.442303 0
M  V30 40 H 2.862509 -4.819072 -0.329879 0
M  V30 END ATOM
M  V30 BEGIN BOND
M  V30 1 1 1 2
M  V30 2 2 2 3
M  V30 3 1 2 4
M  V30 4 2 4 5
M  V30 5 1 5 6
M  V30 6 2 6 7
M  V30 7 1 7 8
M  V30 8 1 8 9
M  V30 9 1 9 10
M  V30 10 2 10 11
M  V30 11 1 11 12
M  V30 12 2 12 13
M  V30 13 1 13 14
M  V30 14 1 14 15
M  V30 15 2 15 16
M  V30 16 1 16 17
M  V30 17 2 17 18
M  V30 18 1 18 19
M  V30 19 1 18 20
M  V30 20 2 20 21
M  V30 21 1 13 22
M  V30 22 2 22 23
M  V30 23 1 23 24
M  V30 24 2 9 25
M  V30 25 1 25 26
M  V30 26 2 26 27
M  V30 27 1 27 4
M  V30 28 1 26 7
M  V30 29 1 23 10
M  V30 30 1 21 15
M  V30 31 1 1 28
M  V30 32 1 1 29
M  V30 33 1 5 30
M  V30 34 1 6 31
M  V30 35 1 8 32
M  V30 36 1 11 33
M  V30 37 1 12 34
M  V30 38 1 16 35
M  V30 39 1 17 36
M  V30 40 1 20 37
M  V30 41 1 21 38
M  V30 42 1 22 39
M  V30 43 1 27 40
M  V30 END BOND
M  V30 END CTAB
M  END
>  <Dataset>  (443) 
ChEMBL_Kinases

>  <Ligand_Instance>  (443) 
nan

>  <PDB_ID>  (443) 
nan

>  <Standardized_SMILES>  (443) 
NC(=O)c1ccc2[nH]c(-c3ccc(Oc4ccc(Cl)cc4)cc3Cl)nc2c1

>  <Name>  (443) 
nan

>  <Pocket>  (443) 
nan

>  <ATP_Site>  (443) 
nan

>  <Peripheral>  (443) 
nan

>  <Num_H_Atoms_ProtBoundConf>  (443) 
nan

>  <Num_Resolved_Atoms>  (443) 
nan

>  <Num_Not_Resolved_Atoms>  (443) 
nan

$$$$
CHEMBL3971067
     RDKit          3D

  0  0  0  0  0  0  0  0  0  0999 V3000
M  V30 BEGIN CTAB
M  V30 COUNTS 54 57 0 0 0
M  V30 BEGIN ATOM
M  V30 1 C -1.764290 -5.658693 3.753812 0
M  V30 2 C -0.264202 -5.534825 3.537773 0
M  V30 3 C 0.184470 -4.264944 4.231031 0
M  V30 4 N 0.018045 -5.513773 2.136562 0
M  V30 5 C 0.207986 -4.377073 1.427046 0
M  V30 6 C 0.453748 -4.762063 0.123306 0
M  V30 7 C 0.713969 -3.839165 -0.979370 0
M  V30 8 C 0.731795 -2.489397 -0.787703 0
M  V30 9 C 0.976646 -1.570286 -1.813909 0
M  V30 10 C 0.962414 -0.154465 -1.451625 0
M  V30 11 C 0.569388 0.848185 -2.319364 0
M  V30 12 C 0.566445 2.187910 -1.943357 0
M  V30 13 C 0.962360 2.556180 -0.673582 0
M  V30 14 C 1.001826 3.945575 -0.158496 0
M  V30 15 N -0.244909 4.336228 0.460319 0
M  V30 16 C -1.357264 4.267856 -0.476591 0
M  V30 17 C -2.520779 4.982978 0.195570 0
M  V30 18 O -2.919988 4.113515 1.231923 0
M  V30 19 C -1.902294 3.949863 2.154561 0
M  V30 20 C -0.605169 3.462068 1.559859 0
M  V30 21 C 1.358815 1.551912 0.203691 0
M  V30 22 C 1.366076 0.202439 -0.162427 0
M  V30 23 C 1.206659 -2.099557 -3.066947 0
M  V30 24 N 1.193155 -3.428158 -3.275660 0
M  V30 25 C 0.951849 -4.300500 -2.257443 0
M  V30 26 N 0.936442 -5.717804 -2.475991 0
M  V30 27 N 0.406425 -6.098602 0.080913 0
M  V30 28 N 0.139186 -6.546181 1.318709 0
M  V30 29 H -1.969290 -5.231361 4.770622 0
M  V30 30 H -2.259651 -4.955650 3.036879 0
M  V30 31 H -2.114917 -6.697590 3.676065 0
M  V30 32 H 0.257256 -6.374589 4.031696 0
M  V30 33 H -0.404865 -3.394159 3.846611 0
M  V30 34 H -0.024180 -4.319584 5.318646 0
M  V30 35 H 1.254520 -4.060093 4.133149 0
M  V30 36 H 0.166652 -3.357961 1.844519 0
M  V30 37 H 0.540162 -2.153403 0.234846 0
M  V30 38 H 0.257375 0.576508 -3.314608 0
M  V30 39 H 0.260173 2.974911 -2.617813 0
M  V30 40 H 1.786964 4.029716 0.619720 0
M  V30 41 H 1.232265 4.691745 -0.940466 0
M  V30 42 H -1.658129 3.206174 -0.569997 0
M  V30 43 H -1.094615 4.710868 -1.455550 0
M  V30 44 H -3.389695 5.096212 -0.470220 0
M  V30 45 H -2.211540 5.950049 0.657529 0
M  V30 46 H -2.280916 3.173394 2.879924 0
M  V30 47 H -1.748347 4.862625 2.788589 0
M  V30 48 H -0.802881 2.467981 1.103593 0
M  V30 49 H 0.135796 3.416954 2.356608 0
M  V30 50 H 1.679476 1.817707 1.223007 0
M  V30 51 H 1.690017 -0.501010 0.588605 0
M  V30 52 H 1.394052 -1.372930 -3.846793 0
M  V30 53 H -0.028565 -6.098265 -2.303623 0
M  V30 54 H 1.895040 -6.030923 -2.755449 0
M  V30 END ATOM
M  V30 BEGIN BOND
M  V30 1 1 1 2
M  V30 2 1 2 3
M  V30 3 1 2 4
M  V30 4 1 4 5
M  V30 5 2 5 6
M  V30 6 1 6 7
M  V30 7 2 7 8
M  V30 8 1 8 9
M  V30 9 1 9 10
M  V30 10 2 10 11
M  V30 11 1 11 12
M  V30 12 2 12 13
M  V30 13 1 13 14
M  V30 14 1 14 15
M  V30 15 1 15 16
M  V30 16 1 16 17
M  V30 17 1 17 18
M  V30 18 1 18 19
M  V30 19 1 19 20
M  V30 20 1 13 21
M  V30 21 2 21 22
M  V30 22 2 9 23
M  V30 23 1 23 24
M  V30 24 2 24 25
M  V30 25 1 25 26
M  V30 26 1 6 27
M  V30 27 2 27 28
M  V30 28 1 28 4
M  V30 29 1 25 7
M  V30 30 1 22 10
M  V30 31 1 20 15
M  V30 32 1 1 29
M  V30 33 1 1 30
M  V30 34 1 1 31
M  V30 35 1 2 32
M  V30 36 1 3 33
M  V30 37 1 3 34
M  V30 38 1 3 35
M  V30 39 1 5 36
M  V30 40 1 8 37
M  V30 41 1 11 38
M  V30 42 1 12 39
M  V30 43 1 14 40
M  V30 44 1 14 41
M  V30 45 1 16 42
M  V30 46 1 16 43
M  V30 47 1 17 44
M  V30 48 1 17 45
M  V30 49 1 19 46
M  V30 50 1 19 47
M  V30 51 1 20 48
M  V30 52 1 20 49
M  V30 53 1 21 50
M  V30 54 1 22 51
M  V30 55 1 23 52
M  V30 56 1 26 53
M  V30 57 1 26 54
M  V30 END BOND
M  V30 END CTAB
M  END
>  <Dataset>  (444) 
ChEMBL_Kinases

>  <Ligand_Instance>  (444) 
nan

>  <PDB_ID>  (444) 
nan

>  <Standardized_SMILES>  (444) 
CC(C)n1cc(-c2cc(-c3ccc(CN4CCOCC4)cc3)cnc2N)nn1

>  <Name>  (444) 
nan

>  <Pocket>  (444) 
nan

>  <ATP_Site>  (444) 
nan

>  <Peripheral>  (444) 
nan

>  <Num_H_Atoms_ProtBoundConf>  (444) 
nan

>  <Num_Resolved_Atoms>  (444) 
nan

>  <Num_Not_Resolved_Atoms>  (444) 
nan

$$$$
CHEMBL3970700
     RDKit          3D

  0  0  0  0  0  0  0  0  0  0999 V3000
M  V30 BEGIN CTAB
M  V30 COUNTS 48 51 0 0 0
M  V30 BEGIN ATOM
M  V30 1 C -0.992520 -7.759906 2.822744 0
M  V30 2 O -1.340665 -7.256763 1.544786 0
M  V30 3 C -0.542028 -6.358597 0.857248 0
M  V30 4 C 0.650384 -5.915275 1.412658 0
M  V30 5 C 1.463663 -5.025483 0.756266 0
M  V30 6 C 1.028509 -4.599719 -0.481937 0
M  V30 7 S 2.082489 -3.434436 -1.356206 0
M  V30 8 C 1.585675 -1.779647 -0.893219 0
M  V30 9 C 2.240095 -1.255191 0.217648 0
M  V30 10 C 1.954402 0.014261 0.685834 0
M  V30 11 C 0.989596 0.772367 0.022252 0
M  V30 12 C 0.624316 2.139237 0.457875 0
M  V30 13 N 1.207759 2.734897 1.528955 0
M  V30 14 C 0.681742 3.963704 1.685454 0
M  V30 15 C 0.894585 5.001113 2.596753 0
M  V30 16 C 0.145488 6.145141 2.433942 0
M  V30 17 C 0.395088 7.207808 3.404436 0
M  V30 18 N -0.255392 8.470559 3.435192 0
M  V30 19 O 1.243496 7.071831 4.323602 0
M  V30 20 C -0.798735 6.364098 1.452366 0
M  V30 21 C -0.963386 5.303597 0.583647 0
M  V30 22 C -0.254399 4.120491 0.673878 0
M  V30 23 N -0.275180 2.985065 -0.072359 0
M  V30 24 C 0.341211 0.237714 -1.087891 0
M  V30 25 C 0.626919 -1.030256 -1.555122 0
M  V30 26 C -0.141971 -5.023792 -1.046553 0
M  V30 27 C -0.966229 -5.930491 -0.372570 0
M  V30 28 O -2.164969 -6.399507 -0.889623 0
M  V30 29 C -2.572680 -5.941331 -2.155182 0
M  V30 30 H -0.029879 -8.302777 2.834003 0
M  V30 31 H -0.832011 -6.871731 3.496915 0
M  V30 32 H -1.827389 -8.322987 3.274580 0
M  V30 33 H 0.931476 -6.295499 2.397319 0
M  V30 34 H 2.396284 -4.662553 1.161708 0
M  V30 35 H 2.993272 -1.749358 0.797895 0
M  V30 36 H 2.441818 0.464120 1.551191 0
M  V30 37 H 1.614986 4.883166 3.377014 0
M  V30 38 H 0.126614 9.422566 3.188092 0
M  V30 39 H -1.238972 8.751790 3.701947 0
M  V30 40 H -1.352157 7.290155 1.383334 0
M  V30 41 H -1.702891 5.416510 -0.222074 0
M  V30 42 H -0.866463 2.788845 -0.898792 0
M  V30 43 H -0.413454 0.829171 -1.608166 0
M  V30 44 H 0.150290 -1.489817 -2.413595 0
M  V30 45 H -0.445869 -4.667545 -2.014891 0
M  V30 46 H -3.639286 -6.172189 -2.329621 0
M  V30 47 H -1.979760 -6.449243 -2.958568 0
M  V30 48 H -2.469846 -4.851324 -2.208442 0
M  V30 END ATOM
M  V30 BEGIN BOND
M  V30 1 1 1 2
M  V30 2 1 2 3
M  V30 3 2 3 4
M  V30 4 1 4 5
M  V30 5 2 5 6
M  V30 6 1 6 7
M  V30 7 1 7 8
M  V30 8 2 8 9
M  V30 9 1 9 10
M  V30 10 2 10 11
M  V30 11 1 11 12
M  V30 12 2 12 13
M  V30 13 1 13 14
M  V30 14 2 14 15
M  V30 15 1 15 16
M  V30 16 1 16 17
M  V30 17 1 17 18
M  V30 18 2 17 19
M  V30 19 2 16 20
M  V30 20 1 20 21
M  V30 21 2 21 22
M  V30 22 1 22 23
M  V30 23 1 11 24
M  V30 24 2 24 25
M  V30 25 1 6 26
M  V30 26 2 26 27
M  V30 27 1 27 28
M  V30 28 1 28 29
M  V30 29 1 27 3
M  V30 30 1 25 8
M  V30 31 1 23 12
M  V30 32 1 22 14
M  V30 33 1 1 30
M  V30 34 1 1 31
M  V30 35 1 1 32
M  V30 36 1 4 33
M  V30 37 1 5 34
M  V30 38 1 9 35
M  V30 39 1 10 36
M  V30 40 1 15 37
M  V30 41 1 18 38
M  V30 42 1 18 39
M  V30 43 1 20 40
M  V30 44 1 21 41
M  V30 45 1 23 42
M  V30 46 1 24 43
M  V30 47 1 25 44
M  V30 48 1 26 45
M  V30 49 1 29 46
M  V30 50 1 29 47
M  V30 51 1 29 48
M  V30 END BOND
M  V30 END CTAB
M  END
>  <Dataset>  (445) 
ChEMBL_Kinases

>  <Ligand_Instance>  (445) 
nan

>  <PDB_ID>  (445) 
nan

>  <Standardized_SMILES>  (445) 
COc1ccc(Sc2ccc(-c3nc4cc(C(N)=O)ccc4[nH]3)cc2)cc1OC

>  <Name>  (445) 
nan

>  <Pocket>  (445) 
nan

>  <ATP_Site>  (445) 
nan

>  <Peripheral>  (445) 
nan

>  <Num_H_Atoms_ProtBoundConf>  (445) 
nan

>  <Num_Resolved_Atoms>  (445) 
nan

>  <Num_Not_Resolved_Atoms>  (445) 
nan

$$$$
CHEMBL3970673
     RDKit          3D

  0  0  0  0  0  0  0  0  0  0999 V3000
M  V30 BEGIN CTAB
M  V30 COUNTS 53 57 0 0 0
M  V30 BEGIN ATOM
M  V30 1 C 1.260030 -4.280038 7.595152 0
M  V30 2 O 1.619085 -2.927581 7.360991 0
M  V30 3 C 1.222842 -2.204055 6.263356 0
M  V30 4 O 0.499047 -2.952028 5.524570 0
M  V30 5 N 1.576017 -0.842774 6.014252 0
M  V30 6 C 0.986385 -0.401319 4.769801 0
M  V30 7 N 1.673826 -0.550130 3.605988 0
M  V30 8 C 0.910493 -0.063062 2.584191 0
M  V30 9 C 1.156266 0.013599 1.226076 0
M  V30 10 C 0.137958 0.577726 0.470526 0
M  V30 11 C 0.321150 0.698422 -0.985726 0
M  V30 12 O 1.479186 0.057749 -1.428728 0
M  V30 13 C 0.281992 2.117018 -1.395267 0
M  V30 14 C 1.041650 3.229964 -1.098365 0
M  V30 15 C 0.800374 4.488382 -1.620142 0
M  V30 16 C -0.257336 4.665565 -2.491475 0
M  V30 17 C -1.043457 3.557671 -2.810418 0
M  V30 18 C -0.770385 2.309966 -2.266754 0
M  V30 19 C -1.486263 1.037438 -2.489941 0
M  V30 20 O -2.492543 0.870238 -3.230469 0
M  V30 21 N -0.777001 0.092543 -1.688296 0
M  V30 22 C -1.140188 -1.280491 -1.620019 0
M  V30 23 C -2.017315 -1.896128 -0.753702 0
M  V30 24 C -2.267473 -3.248642 -0.808584 0
M  V30 25 C -1.658701 -4.057256 -1.727130 0
M  V30 26 C -0.782540 -3.455124 -2.595969 0
M  V30 27 C -0.102709 -4.277349 -3.600793 0
M  V30 28 N -0.342837 -5.678112 -3.679418 0
M  V30 29 O 0.723990 -3.888055 -4.466510 0
M  V30 30 C -0.512687 -2.102148 -2.563834 0
M  V30 31 C -1.042475 1.034796 1.019824 0
M  V30 32 C -1.251006 0.940949 2.380839 0
M  V30 33 C -0.271357 0.387947 3.182202 0
M  V30 34 N -0.201310 0.172439 4.504519 0
M  V30 35 H 2.026360 -4.919306 7.092674 0
M  V30 36 H 0.309462 -4.529714 7.038300 0
M  V30 37 H 1.121380 -4.509460 8.652230 0
M  V30 38 H 2.181353 -0.377115 6.730070 0
M  V30 39 H 2.079613 -0.348115 0.828120 0
M  V30 40 H 2.257410 0.637342 -1.352412 0
M  V30 41 H 1.894991 3.148391 -0.411409 0
M  V30 42 H 1.442817 5.333844 -1.343424 0
M  V30 43 H -0.473441 5.637789 -2.917724 0
M  V30 44 H -1.855169 3.724399 -3.487214 0
M  V30 45 H -2.479734 -1.237324 -0.045915 0
M  V30 46 H -2.974092 -3.597747 -0.073030 0
M  V30 47 H -1.883393 -5.114070 -1.735857 0
M  V30 48 H 0.298989 -6.156744 -2.981061 0
M  V30 49 H -0.964160 -6.316284 -4.228184 0
M  V30 50 H 0.199373 -1.687848 -3.288995 0
M  V30 51 H -1.795417 1.465004 0.366635 0
M  V30 52 H -2.175225 1.299769 2.803371 0
M  V30 53 H -0.897762 0.385087 5.240683 0
M  V30 END ATOM
M  V30 BEGIN BOND
M  V30 1 1 1 2
M  V30 2 1 2 3
M  V30 3 2 3 4
M  V30 4 1 3 5
M  V30 5 1 5 6
M  V30 6 2 6 7
M  V30 7 1 7 8
M  V30 8 2 8 9
M  V30 9 1 9 10
M  V30 10 1 10 11
M  V30 11 1 11 12
M  V30 12 1 11 13
M  V30 13 2 13 14
M  V30 14 1 14 15
M  V30 15 2 15 16
M  V30 16 1 16 17
M  V30 17 2 17 18
M  V30 18 1 18 19
M  V30 19 2 19 20
M  V30 20 1 19 21
M  V30 21 1 21 22
M  V30 22 2 22 23
M  V30 23 1 23 24
M  V30 24 2 24 25
M  V30 25 1 25 26
M  V30 26 1 26 27
M  V30 27 1 27 28
M  V30 28 2 27 29
M  V30 29 2 26 30
M  V30 30 2 10 31
M  V30 31 1 31 32
M  V30 32 2 32 33
M  V30 33 1 33 34
M  V30 34 1 34 6
M  V30 35 1 33 8
M  V30 36 1 21 11
M  V30 37 1 30 22
M  V30 38 1 18 13
M  V30 39 1 1 35
M  V30 40 1 1 36
M  V30 41 1 1 37
M  V30 42 1 5 38
M  V30 43 1 9 39
M  V30 44 1 12 40
M  V30 45 1 14 41
M  V30 46 1 15 42
M  V30 47 1 16 43
M  V30 48 1 17 44
M  V30 49 1 23 45
M  V30 50 1 24 46
M  V30 51 1 25 47
M  V30 52 1 28 48
M  V30 53 1 28 49
M  V30 54 1 30 50
M  V30 55 1 31 51
M  V30 56 1 32 52
M  V30 57 1 34 53
M  V30 END BOND
M  V30 END CTAB
M  END
>  <Dataset>  (446) 
ChEMBL_Kinases

>  <Ligand_Instance>  (446) 
nan

>  <PDB_ID>  (446) 
nan

>  <Standardized_SMILES>  (446) 
COC(=O)Nc1nc2cc(C3(O)c4ccccc4C(=O)N3c3cccc(C(N)=O)c3)ccc2[nH]1

>  <Name>  (446) 
nan

>  <Pocket>  (446) 
nan

>  <ATP_Site>  (446) 
nan

>  <Peripheral>  (446) 
nan

>  <Num_H_Atoms_ProtBoundConf>  (446) 
nan

>  <Num_Resolved_Atoms>  (446) 
nan

>  <Num_Not_Resolved_Atoms>  (446) 
nan

$$$$
CHEMBL3970662
     RDKit          3D

  0  0  0  0  0  0  0  0  0  0999 V3000
M  V30 BEGIN CTAB
M  V30 COUNTS 41 43 0 0 0
M  V30 BEGIN ATOM
M  V30 1 C 2.842560 -4.444780 0.788444 0
M  V30 2 C 1.774621 -3.493490 1.281361 0
M  V30 3 O 1.569654 -2.390164 0.432561 0
M  V30 4 C 1.173990 -2.501400 -0.881728 0
M  V30 5 C 0.933408 -3.701190 -1.516065 0
M  V30 6 C 0.538137 -3.793531 -2.833284 0
M  V30 7 C 0.382228 -2.633279 -3.527940 0
M  V30 8 C 0.624560 -1.442822 -2.886065 0
M  V30 9 C 1.026890 -1.311544 -1.550588 0
M  V30 10 C 1.227613 0.080795 -1.070912 0
M  V30 11 C 2.678953 0.503903 -1.273419 0
M  V30 12 N 0.914120 0.232656 0.336502 0
M  V30 13 C -0.139981 1.146425 0.613237 0
M  V30 14 O -0.770314 1.786855 -0.260336 0
M  V30 15 C -0.527709 1.360765 2.060871 0
M  V30 16 N -1.404439 2.100254 2.517524 0
M  V30 17 N -1.629410 2.184096 3.804998 0
M  V30 18 C -2.515323 2.909026 4.512811 0
M  V30 19 C -3.579407 3.889439 4.150954 0
M  V30 20 N -2.336716 2.632289 5.812985 0
M  V30 21 C -1.350913 1.738417 5.988890 0
M  V30 22 C -0.927027 1.477413 4.701588 0
M  V30 23 S 0.209817 0.571392 3.525343 0
M  V30 24 H 2.507347 -5.501072 0.773726 0
M  V30 25 H 3.675118 -4.436986 1.552047 0
M  V30 26 H 3.293816 -4.121225 -0.184791 0
M  V30 27 H 1.976885 -3.169934 2.318945 0
M  V30 28 H 0.802572 -4.037917 1.323859 0
M  V30 29 H 1.067937 -4.615406 -0.927624 0
M  V30 30 H 0.376598 -4.784216 -3.232159 0
M  V30 31 H 0.074448 -2.662724 -4.559957 0
M  V30 32 H 0.479106 -0.545383 -3.507037 0
M  V30 33 H 0.583268 0.777502 -1.672009 0
M  V30 34 H 2.742907 1.360183 -1.993614 0
M  V30 35 H 3.153959 0.749952 -0.315169 0
M  V30 36 H 3.214314 -0.326137 -1.751127 0
M  V30 37 H 1.350887 -0.224617 1.159894 0
M  V30 38 H -3.606074 4.748208 4.841609 0
M  V30 39 H -4.577812 3.375911 4.140929 0
M  V30 40 H -3.439457 4.206208 3.077483 0
M  V30 41 H -0.838296 1.210078 6.782345 0
M  V30 END ATOM
M  V30 BEGIN BOND
M  V30 1 1 1 2
M  V30 2 1 2 3
M  V30 3 1 3 4
M  V30 4 2 4 5
M  V30 5 1 5 6
M  V30 6 2 6 7
M  V30 7 1 7 8
M  V30 8 2 8 9
M  V30 9 1 9 10
M  V30 10 1 10 11
M  V30 11 1 10 12
M  V30 12 1 12 13
M  V30 13 2 13 14
M  V30 14 1 13 15
M  V30 15 2 15 16
M  V30 16 1 16 17
M  V30 17 1 17 18
M  V30 18 1 18 19
M  V30 19 2 18 20
M  V30 20 1 20 21
M  V30 21 2 21 22
M  V30 22 1 22 23
M  V30 23 1 9 4
M  V30 24 1 23 15
M  V30 25 1 22 17
M  V30 26 1 1 24
M  V30 27 1 1 25
M  V30 28 1 1 26
M  V30 29 1 2 27
M  V30 30 1 2 28
M  V30 31 1 5 29
M  V30 32 1 6 30
M  V30 33 1 7 31
M  V30 34 1 8 32
M  V30 35 1 10 33
M  V30 36 1 11 34
M  V30 37 1 11 35
M  V30 38 1 11 36
M  V30 39 1 12 37
M  V30 40 1 19 38
M  V30 41 1 19 39
M  V30 42 1 19 40
M  V30 43 1 21 41
M  V30 END BOND
M  V30 END CTAB
M  END
>  <Dataset>  (447) 
ChEMBL_Kinases

>  <Ligand_Instance>  (447) 
nan

>  <PDB_ID>  (447) 
nan

>  <Standardized_SMILES>  (447) 
CCOc1ccccc1C(C)NC(=O)c1nn2c(C)ncc2s1

>  <Name>  (447) 
nan

>  <Pocket>  (447) 
nan

>  <ATP_Site>  (447) 
nan

>  <Peripheral>  (447) 
nan

>  <Num_H_Atoms_ProtBoundConf>  (447) 
nan

>  <Num_Resolved_Atoms>  (447) 
nan

>  <Num_Not_Resolved_Atoms>  (447) 
nan

$$$$
CHEMBL4869482
     RDKit          3D

  0  0  0  0  0  0  0  0  0  0999 V3000
M  V30 BEGIN CTAB
M  V30 COUNTS 51 54 0 0 0
M  V30 BEGIN ATOM
M  V30 1 C 5.159251 2.179966 -2.000996 0
M  V30 2 N 5.933116 2.074441 -0.766114 0
M  V30 3 N 7.168029 2.514983 -0.697248 0
M  V30 4 C 7.647218 2.300161 0.534944 0
M  V30 5 C 6.627109 1.692354 1.240385 0
M  V30 6 Cl 6.654706 1.166597 2.919115 0
M  V30 7 C 5.514739 1.539543 0.415605 0
M  V30 8 C 4.196975 0.955416 0.693357 0
M  V30 9 C 3.667495 0.097129 -0.249196 0
M  V30 10 C 2.430297 -0.451469 0.011293 0
M  V30 11 F 1.895351 -1.292065 -0.896509 0
M  V30 12 C 1.671405 -0.217315 1.135885 0
M  V30 13 C 0.368069 -0.741112 1.499738 0
M  V30 14 O -0.200985 -0.436782 2.586829 0
M  V30 15 N -0.443877 -1.628594 0.749053 0
M  V30 16 C -1.736781 -2.156215 1.096267 0 CFG=2
M  V30 17 C -1.798842 -3.607592 1.336749 0
M  V30 18 N -2.574448 -4.308603 0.343574 0
M  V30 19 C -2.448771 -3.728102 -0.950995 0
M  V30 20 C -3.198858 -2.415794 -0.931326 0
M  V30 21 C -2.844716 -1.568565 0.247636 0 CFG=1
M  V30 22 C -4.019250 -1.138518 1.056955 0
M  V30 23 C -4.858303 -2.017383 1.708264 0
M  V30 24 C -5.954036 -1.662526 2.467849 0
M  V30 25 C -6.248445 -0.317940 2.596396 0
M  V30 26 F -7.293788 0.139571 3.314306 0
M  V30 27 C -5.462051 0.631837 1.978433 0
M  V30 28 F -5.735096 1.945914 2.093533 0
M  V30 29 C -4.384660 0.199454 1.236423 0
M  V30 30 C 2.250078 0.649661 2.045786 0
M  V30 31 C 3.483093 1.229607 1.842208 0
M  V30 32 F 3.997906 2.067289 2.765353 0
M  V30 33 H 5.426797 1.284484 -2.625714 0
M  V30 34 H 5.404867 3.066529 -2.591306 0
M  V30 35 H 4.074978 2.132887 -1.834245 0
M  V30 36 H 8.607431 2.504399 1.021223 0
M  V30 37 H 4.161104 -0.170325 -1.173873 0
M  V30 38 H -0.093268 -1.961184 -0.174400 0
M  V30 39 H -1.938540 -1.690649 2.112826 0
M  V30 40 H -0.814874 -4.116644 1.399863 0
M  V30 41 H -2.285686 -3.893171 2.320405 0
M  V30 42 H -2.434492 -5.339216 0.374252 0
M  V30 43 H -3.003269 -4.384122 -1.682685 0
M  V30 44 H -1.406016 -3.643522 -1.250597 0
M  V30 45 H -2.921634 -1.883366 -1.856672 0
M  V30 46 H -4.279284 -2.575740 -0.942036 0
M  V30 47 H -2.412550 -0.587959 -0.131174 0
M  V30 48 H -4.689379 -3.068586 1.651012 0
M  V30 49 H -6.588679 -2.366455 2.962857 0
M  V30 50 H -3.763165 0.960375 0.746948 0
M  V30 51 H 1.741431 0.910210 2.974421 0
M  V30 END ATOM
M  V30 BEGIN BOND
M  V30 1 1 1 2
M  V30 2 1 2 3
M  V30 3 2 3 4
M  V30 4 1 4 5
M  V30 5 1 5 6
M  V30 6 2 5 7
M  V30 7 1 7 8
M  V30 8 2 8 9
M  V30 9 1 9 10
M  V30 10 1 10 11
M  V30 11 2 10 12
M  V30 12 1 12 13
M  V30 13 2 13 14
M  V30 14 1 13 15
M  V30 15 1 15 16
M  V30 16 1 16 17
M  V30 17 1 17 18
M  V30 18 1 18 19
M  V30 19 1 19 20
M  V30 20 1 20 21
M  V30 21 1 21 22
M  V30 22 2 22 23
M  V30 23 1 23 24
M  V30 24 2 24 25
M  V30 25 1 25 26
M  V30 26 1 25 27
M  V30 27 1 27 28
M  V30 28 2 27 29
M  V30 29 1 12 30
M  V30 30 2 30 31
M  V30 31 1 31 32
M  V30 32 1 7 2
M  V30 33 1 31 8
M  V30 34 1 21 16
M  V30 35 1 29 22
M  V30 36 1 1 33
M  V30 37 1 1 34
M  V30 38 1 1 35
M  V30 39 1 4 36
M  V30 40 1 9 37
M  V30 41 1 15 38
M  V30 42 1 16 39 CFG=1
M  V30 43 1 17 40
M  V30 44 1 17 41
M  V30 45 1 18 42
M  V30 46 1 19 43
M  V30 47 1 19 44
M  V30 48 1 20 45
M  V30 49 1 20 46
M  V30 50 1 21 47 CFG=3
M  V30 51 1 23 48
M  V30 52 1 24 49
M  V30 53 1 29 50
M  V30 54 1 30 51
M  V30 END BOND
M  V30 END CTAB
M  END
>  <Dataset>  (448) 
ChEMBL_Kinases

>  <Ligand_Instance>  (448) 
nan

>  <PDB_ID>  (448) 
nan

>  <Standardized_SMILES>  (448) 
Cn1ncc(Cl)c1-c1cc(F)c(C(=O)N[C@@H]2CNCC[C@H]2c2ccc(F)c(F)c2)cc1F

>  <Name>  (448) 
nan

>  <Pocket>  (448) 
nan

>  <ATP_Site>  (448) 
nan

>  <Peripheral>  (448) 
nan

>  <Num_H_Atoms_ProtBoundConf>  (448) 
nan

>  <Num_Resolved_Atoms>  (448) 
nan

>  <Num_Not_Resolved_Atoms>  (448) 
nan

$$$$
CHEMBL3970569
     RDKit          3D

  0  0  0  0  0  0  0  0  0  0999 V3000
M  V30 BEGIN CTAB
M  V30 COUNTS 49 53 0 0 0
M  V30 BEGIN ATOM
M  V30 1 C 5.200879 -2.017457 7.321002 0
M  V30 2 O 4.334440 -2.656104 6.372693 0
M  V30 3 C 3.800141 -2.008066 5.296403 0
M  V30 4 O 3.950199 -0.805761 4.945775 0
M  V30 5 N 2.950863 -2.739368 4.416227 0
M  V30 6 C 2.334126 -2.174392 3.262013 0
M  V30 7 N 3.037016 -2.248664 2.113372 0
M  V30 8 C 2.350334 -1.684913 1.108905 0
M  V30 9 C 2.544604 -1.467595 -0.238521 0
M  V30 10 C 1.544398 -0.822759 -0.937512 0
M  V30 11 C 0.344022 -0.358791 -0.434643 0
M  V30 12 C -0.658238 0.310022 -1.219147 0
M  V30 13 O -0.176831 0.360340 -2.550485 0
M  V30 14 C -0.867839 1.745977 -0.854247 0
M  V30 15 C 0.126006 2.682813 -0.674361 0
M  V30 16 Cl 1.834689 2.345833 -0.845222 0
M  V30 17 C -0.196608 3.985905 -0.336383 0
M  V30 18 C -1.529904 4.353085 -0.177163 0
M  V30 19 C -2.500917 3.394680 -0.363575 0
M  V30 20 Cl -4.182406 3.815271 -0.172474 0
M  V30 21 C -2.218631 2.087592 -0.700492 0
M  V30 22 C -2.937846 0.843125 -0.969415 0
M  V30 23 O -4.206328 0.909705 -0.887734 0
M  V30 24 N -1.971518 -0.189190 -1.272976 0
M  V30 25 C -2.588369 -1.447153 -1.552180 0
M  V30 26 C -2.916926 -1.727520 -2.880932 0
M  V30 27 C -3.524787 -2.939222 -3.227180 0
M  V30 28 C -3.816672 -3.889634 -2.269852 0
M  V30 29 C -3.491143 -3.609934 -0.958642 0
M  V30 30 Cl -3.844496 -4.794824 0.308053 0
M  V30 31 C -2.895989 -2.420499 -0.628919 0
M  V30 32 F -2.586809 -2.166161 0.664659 0
M  V30 33 C 0.179326 -0.595702 0.935687 0
M  V30 34 C 1.163539 -1.239453 1.663430 0
M  V30 35 N 1.174355 -1.549239 2.982119 0
M  V30 36 H 4.595253 -1.949511 8.262902 0
M  V30 37 H 6.132494 -2.563719 7.454361 0
M  V30 38 H 5.317138 -0.976083 6.971709 0
M  V30 39 H 2.727567 -3.760975 4.575972 0
M  V30 40 H 3.458091 -1.800937 -0.705712 0
M  V30 41 H 1.731216 -0.665584 -2.008093 0
M  V30 42 H -0.857638 0.860477 -3.058751 0
M  V30 43 H 0.563141 4.748232 -0.187599 0
M  V30 44 H -1.842494 5.353356 0.085614 0
M  V30 45 H -2.717776 -1.025016 -3.699525 0
M  V30 46 H -3.763330 -3.115889 -4.275266 0
M  V30 47 H -4.288911 -4.822235 -2.566405 0
M  V30 48 H -0.721383 -0.271937 1.419475 0
M  V30 49 H 0.502852 -1.399580 3.738635 0
M  V30 END ATOM
M  V30 BEGIN BOND
M  V30 1 1 1 2
M  V30 2 1 2 3
M  V30 3 2 3 4
M  V30 4 1 3 5
M  V30 5 1 5 6
M  V30 6 2 6 7
M  V30 7 1 7 8
M  V30 8 2 8 9
M  V30 9 1 9 10
M  V30 10 2 10 11
M  V30 11 1 11 12
M  V30 12 1 12 13
M  V30 13 1 12 14
M  V30 14 2 14 15
M  V30 15 1 15 16
M  V30 16 1 15 17
M  V30 17 2 17 18
M  V30 18 1 18 19
M  V30 19 1 19 20
M  V30 20 2 19 21
M  V30 21 1 21 22
M  V30 22 2 22 23
M  V30 23 1 22 24
M  V30 24 1 24 25
M  V30 25 2 25 26
M  V30 26 1 26 27
M  V30 27 2 27 28
M  V30 28 1 28 29
M  V30 29 1 29 30
M  V30 30 2 29 31
M  V30 31 1 31 32
M  V30 32 1 11 33
M  V30 33 2 33 34
M  V30 34 1 34 35
M  V30 35 1 35 6
M  V30 36 1 34 8
M  V30 37 1 24 12
M  V30 38 1 31 25
M  V30 39 1 21 14
M  V30 40 1 1 36
M  V30 41 1 1 37
M  V30 42 1 1 38
M  V30 43 1 5 39
M  V30 44 1 9 40
M  V30 45 1 10 41
M  V30 46 1 13 42
M  V30 47 1 17 43
M  V30 48 1 18 44
M  V30 49 1 26 45
M  V30 50 1 27 46
M  V30 51 1 28 47
M  V30 52 1 33 48
M  V30 53 1 35 49
M  V30 END BOND
M  V30 END CTAB
M  END
>  <Dataset>  (449) 
ChEMBL_Kinases

>  <Ligand_Instance>  (449) 
nan

>  <PDB_ID>  (449) 
nan

>  <Standardized_SMILES>  (449) 
COC(=O)Nc1nc2ccc(C3(O)c4c(Cl)ccc(Cl)c4C(=O)N3c3cccc(Cl)c3F)cc2[nH]1

>  <Name>  (449) 
nan

>  <Pocket>  (449) 
nan

>  <ATP_Site>  (449) 
nan

>  <Peripheral>  (449) 
nan

>  <Num_H_Atoms_ProtBoundConf>  (449) 
nan

>  <Num_Resolved_Atoms>  (449) 
nan

>  <Num_Not_Resolved_Atoms>  (449) 
nan

$$$$
CHEMBL3970535
     RDKit          3D

  0  0  0  0  0  0  0  0  0  0999 V3000
M  V30 BEGIN CTAB
M  V30 COUNTS 46 50 0 0 0
M  V30 BEGIN ATOM
M  V30 1 N 2.997973 -5.122493 6.168251 0
M  V30 2 C 3.854355 -4.018889 6.253275 0
M  V30 3 O 4.718441 -4.117925 7.142821 0
M  V30 4 C 3.699766 -2.892835 5.359469 0
M  V30 5 C 4.595496 -1.856441 5.510422 0
M  V30 6 C 4.492566 -0.756299 4.682352 0
M  V30 7 C 3.502826 -0.675993 3.700656 0
M  V30 8 N 3.128481 0.210217 2.760113 0
M  V30 9 C 2.072207 -0.274901 2.092015 0
M  V30 10 C 1.347404 0.351586 0.993245 0
M  V30 11 C 1.706929 1.586697 0.499500 0
M  V30 12 C 0.983614 2.138360 -0.547748 0
M  V30 13 C -0.089149 1.528097 -1.140901 0
M  V30 14 C -0.859145 2.108848 -2.254269 0
M  V30 15 O -1.159453 3.444899 -2.079625 0
M  V30 16 C -2.078379 1.284832 -2.492645 0
M  V30 17 C -2.359060 0.466167 -3.566874 0
M  V30 18 C -3.549282 -0.206327 -3.582423 0
M  V30 19 C -4.521746 -0.149981 -2.612818 0
M  V30 20 C -4.215662 0.682082 -1.539872 0
M  V30 21 C -3.013831 1.389920 -1.477277 0
M  V30 22 Cl -2.814368 2.378172 -0.054098 0
M  V30 23 O -5.569185 -0.970491 -2.997183 0
M  V30 24 C -4.994750 -1.936252 -3.886074 0
M  V30 25 O -4.051993 -1.088544 -4.559050 0
M  V30 26 C -0.426792 0.294587 -0.627630 0
M  V30 27 C 0.269625 -0.286357 0.414139 0
M  V30 28 N 1.785342 -1.476952 2.622524 0
M  V30 29 C 2.648691 -1.762512 3.622063 0
M  V30 30 C 2.694279 -2.893116 4.416685 0
M  V30 31 H 2.085310 -5.621920 5.969219 0
M  V30 32 H 2.374104 -5.948027 6.109762 0
M  V30 33 H 5.345767 -1.958072 6.281327 0
M  V30 34 H 5.175362 0.056795 4.782004 0
M  V30 35 H 3.603714 1.105483 2.610691 0
M  V30 36 H 2.537964 2.136429 0.906851 0
M  V30 37 H 1.291043 3.116913 -0.917907 0
M  V30 38 H -0.235325 2.027900 -3.168843 0
M  V30 39 H -1.967054 3.739365 -2.556407 0
M  V30 40 H -1.592729 0.436203 -4.307874 0
M  V30 41 H -4.975281 0.747557 -0.747389 0
M  V30 42 H -5.752523 -2.276888 -4.606979 0
M  V30 43 H -4.475035 -2.734488 -3.333407 0
M  V30 44 H -1.270250 -0.288102 -1.025649 0
M  V30 45 H -0.037189 -1.264941 0.786142 0
M  V30 46 H 1.985219 -3.698831 4.287316 0
M  V30 END ATOM
M  V30 BEGIN BOND
M  V30 1 1 1 2
M  V30 2 2 2 3
M  V30 3 1 2 4
M  V30 4 2 4 5
M  V30 5 1 5 6
M  V30 6 2 6 7
M  V30 7 1 7 8
M  V30 8 1 8 9
M  V30 9 1 9 10
M  V30 10 2 10 11
M  V30 11 1 11 12
M  V30 12 2 12 13
M  V30 13 1 13 14
M  V30 14 1 14 15
M  V30 15 1 14 16
M  V30 16 2 16 17
M  V30 17 1 17 18
M  V30 18 2 18 19
M  V30 19 1 19 20
M  V30 20 2 20 21
M  V30 21 1 21 22
M  V30 22 1 19 23
M  V30 23 1 23 24
M  V30 24 1 24 25
M  V30 25 1 13 26
M  V30 26 2 26 27
M  V30 27 2 9 28
M  V30 28 1 28 29
M  V30 29 2 29 30
M  V30 30 1 30 4
M  V30 31 1 29 7
M  V30 32 1 27 10
M  V30 33 1 21 16
M  V30 34 1 25 18
M  V30 35 1 1 31
M  V30 36 1 1 32
M  V30 37 1 5 33
M  V30 38 1 6 34
M  V30 39 1 8 35
M  V30 40 1 11 36
M  V30 41 1 12 37
M  V30 42 1 14 38
M  V30 43 1 15 39
M  V30 44 1 17 40
M  V30 45 1 20 41
M  V30 46 1 24 42
M  V30 47 1 24 43
M  V30 48 1 26 44
M  V30 49 1 27 45
M  V30 50 1 30 46
M  V30 END BOND
M  V30 END CTAB
M  END
>  <Dataset>  (450) 
ChEMBL_Kinases

>  <Ligand_Instance>  (450) 
nan

>  <PDB_ID>  (450) 
nan

>  <Standardized_SMILES>  (450) 
NC(=O)c1ccc2[nH]c(-c3ccc(C(O)c4cc5c(cc4Cl)OCO5)cc3)nc2c1

>  <Name>  (450) 
nan

>  <Pocket>  (450) 
nan

>  <ATP_Site>  (450) 
nan

>  <Peripheral>  (450) 
nan

>  <Num_H_Atoms_ProtBoundConf>  (450) 
nan

>  <Num_Resolved_Atoms>  (450) 
nan

>  <Num_Not_Resolved_Atoms>  (450) 
nan

$$$$
CHEMBL3970521
     RDKit          3D

  0  0  0  0  0  0  0  0  0  0999 V3000
M  V30 BEGIN CTAB
M  V30 COUNTS 27 29 0 0 0
M  V30 BEGIN ATOM
M  V30 1 N 0.945727 -2.587948 4.598252 0
M  V30 2 C 0.891059 -2.530110 3.160812 0
M  V30 3 C 0.869849 -3.698292 2.426340 0
M  V30 4 C 0.816997 -3.591287 1.044120 0
M  V30 5 C 0.786640 -2.353768 0.424854 0
M  V30 6 C 0.809635 -1.213369 1.202530 0
M  V30 7 C 0.780755 0.141085 0.639716 0
M  V30 8 N 1.539668 1.210565 0.981990 0
M  V30 9 N 1.214657 2.262396 0.240409 0
M  V30 10 C 0.218489 1.929840 -0.631037 0
M  V30 11 C -0.457781 2.650641 -1.595648 0
M  V30 12 C -1.446824 1.994253 -2.332295 0
M  V30 13 C -1.758459 0.658122 -2.119365 0
M  V30 14 C -1.032163 0.016963 -1.135796 0
M  V30 15 C -0.042944 0.597710 -0.369164 0
M  V30 16 C 0.862741 -1.270878 2.598712 0
M  V30 17 H 1.421768 -3.176831 5.316116 0
M  V30 18 H 0.438430 -1.950070 5.263576 0
M  V30 19 H 0.894783 -4.655219 2.943865 0
M  V30 20 H 0.798958 -4.487924 0.433801 0
M  V30 21 H 0.745555 -2.263791 -0.648403 0
M  V30 22 H 1.685819 3.197888 0.345913 0
M  V30 23 H -0.223917 3.691046 -1.770316 0
M  V30 24 H -1.978825 2.556705 -3.089316 0
M  V30 25 H -2.523278 0.141579 -2.685462 0
M  V30 26 H -1.292709 -1.039481 -0.981673 0
M  V30 27 H 0.881030 -0.374187 3.215704 0
M  V30 END ATOM
M  V30 BEGIN BOND
M  V30 1 1 1 2
M  V30 2 2 2 3
M  V30 3 1 3 4
M  V30 4 2 4 5
M  V30 5 1 5 6
M  V30 6 1 6 7
M  V30 7 2 7 8
M  V30 8 1 8 9
M  V30 9 1 9 10
M  V30 10 2 10 11
M  V30 11 1 11 12
M  V30 12 2 12 13
M  V30 13 1 13 14
M  V30 14 2 14 15
M  V30 15 2 6 16
M  V30 16 1 16 2
M  V30 17 1 15 7
M  V30 18 1 15 10
M  V30 19 1 1 17
M  V30 20 1 1 18
M  V30 21 1 3 19
M  V30 22 1 4 20
M  V30 23 1 5 21
M  V30 24 1 9 22
M  V30 25 1 11 23
M  V30 26 1 12 24
M  V30 27 1 13 25
M  V30 28 1 14 26
M  V30 29 1 16 27
M  V30 END BOND
M  V30 END CTAB
M  END
>  <Dataset>  (451) 
ChEMBL_Kinases

>  <Ligand_Instance>  (451) 
nan

>  <PDB_ID>  (451) 
nan

>  <Standardized_SMILES>  (451) 
Nc1cccc(-c2n[nH]c3ccccc23)c1

>  <Name>  (451) 
nan

>  <Pocket>  (451) 
nan

>  <ATP_Site>  (451) 
nan

>  <Peripheral>  (451) 
nan

>  <Num_H_Atoms_ProtBoundConf>  (451) 
nan

>  <Num_Resolved_Atoms>  (451) 
nan

>  <Num_Not_Resolved_Atoms>  (451) 
nan

$$$$
CHEMBL4869487
     RDKit          3D

  0  0  0  0  0  0  0  0  0  0999 V3000
M  V30 BEGIN CTAB
M  V30 COUNTS 62 67 0 0 0
M  V30 BEGIN ATOM
M  V30 1 C 6.322690 2.063242 1.183105 0
M  V30 2 O 5.075735 1.931337 0.527123 0
M  V30 3 C 4.023245 1.164083 1.044823 0
M  V30 4 N 4.191147 0.515656 2.220721 0
M  V30 5 C 3.179971 -0.225439 2.723158 0
M  V30 6 C 2.029647 -0.253655 1.965868 0
M  V30 7 C 1.834917 0.396115 0.770059 0
M  V30 8 C 2.874282 1.144783 0.273545 0
M  V30 9 N 2.805643 1.856148 -0.947048 0
M  V30 10 S 1.901936 3.077745 -1.711042 0
M  V30 11 O 2.538049 3.405282 -3.038902 0
M  V30 12 O 1.954193 4.322219 -0.828523 0
M  V30 13 C 0.218194 2.693914 -1.936466 0
M  V30 14 C -0.660040 3.747150 -2.053311 0
M  V30 15 C -2.022412 3.651819 -2.235322 0
M  V30 16 C -2.543226 2.368983 -2.305096 0
M  V30 17 C -1.661403 1.287336 -2.187356 0
M  V30 18 C -0.305700 1.426425 -2.006976 0
M  V30 19 C -2.360235 0.019611 -2.261522 0
M  V30 20 O -3.251257 -0.267766 -3.092898 0
M  V30 21 N -2.472258 -1.261295 -1.673646 0
M  V30 22 C -3.419167 -2.229688 -2.188076 0
M  V30 23 C -3.261025 -3.447465 -1.295272 0 CFG=2
M  V30 24 C -3.456806 -2.929836 0.124943 0
M  V30 25 N -2.721254 -3.751652 1.071532 0
M  V30 26 C -2.482787 -5.118122 0.675487 0
M  V30 27 C -1.840069 -5.169496 -0.712837 0
M  V30 28 O -2.025803 -4.023614 -1.444653 0
M  V30 29 C -2.195182 -3.448924 2.333769 0
M  V30 30 N -2.801534 -3.981838 3.387043 0
M  V30 31 C -2.298482 -3.684844 4.624261 0
M  V30 32 N -1.232375 -2.888544 4.816723 0
M  V30 33 C -0.565414 -2.312814 3.798507 0
M  V30 34 C 0.513978 -1.501467 3.801160 0
M  V30 35 C 1.225864 -1.033996 5.031100 0
M  V30 36 C 0.921476 -1.117982 2.583617 0
M  V30 37 S -0.054400 -1.773973 1.377084 0
M  V30 38 C -1.124795 -2.658741 2.648066 0
M  V30 39 H 6.392596 1.379844 2.067870 0
M  V30 40 H 6.516556 3.097561 1.532881 0
M  V30 41 H 7.126482 1.738641 0.496854 0
M  V30 42 H 3.277646 -0.749453 3.637859 0
M  V30 43 H 0.857448 0.242664 0.338145 0
M  V30 44 H 3.600629 1.418044 -1.480452 0
M  V30 45 H -0.291301 4.780563 -2.003681 0
M  V30 46 H -2.655911 4.529201 -2.319701 0
M  V30 47 H -3.626229 2.223077 -2.452696 0
M  V30 48 H 0.238107 0.496826 -1.939671 0
M  V30 49 H -1.736838 -1.053440 -0.973173 0
M  V30 50 H -4.456472 -1.830627 -2.056721 0
M  V30 51 H -3.193013 -2.470586 -3.244657 0
M  V30 52 H -4.066077 -4.169607 -1.524947 0
M  V30 53 H -4.535993 -2.966422 0.400683 0
M  V30 54 H -3.113696 -1.889221 0.259790 0
M  V30 55 H -1.845049 -5.701642 1.352290 0
M  V30 56 H -3.442689 -5.688016 0.566107 0
M  V30 57 H -2.138259 -6.109263 -1.219922 0
M  V30 58 H -0.722556 -5.271485 -0.584035 0
M  V30 59 H -2.766659 -4.102951 5.538624 0
M  V30 60 H 1.492015 0.039936 4.983991 0
M  V30 61 H 1.991493 -1.712195 5.396156 0
M  V30 62 H 0.441242 -1.044388 5.849368 0
M  V30 END ATOM
M  V30 BEGIN BOND
M  V30 1 1 1 2
M  V30 2 1 2 3
M  V30 3 2 3 4
M  V30 4 1 4 5
M  V30 5 2 5 6
M  V30 6 1 6 7
M  V30 7 2 7 8
M  V30 8 1 8 9
M  V30 9 1 9 10
M  V30 10 2 10 11
M  V30 11 2 10 12
M  V30 12 1 10 13
M  V30 13 2 13 14
M  V30 14 1 14 15
M  V30 15 2 15 16
M  V30 16 1 16 17
M  V30 17 2 17 18
M  V30 18 1 17 19
M  V30 19 2 19 20
M  V30 20 1 19 21
M  V30 21 1 21 22
M  V30 22 1 22 23
M  V30 23 1 23 24
M  V30 24 1 24 25
M  V30 25 1 25 26
M  V30 26 1 26 27
M  V30 27 1 27 28
M  V30 28 1 25 29
M  V30 29 1 29 30
M  V30 30 2 30 31
M  V30 31 1 31 32
M  V30 32 2 32 33
M  V30 33 1 33 34
M  V30 34 1 34 35
M  V30 35 2 34 36
M  V30 36 1 36 37
M  V30 37 1 37 38
M  V30 38 1 8 3
M  V30 39 1 18 13
M  V30 40 1 28 23
M  V30 41 2 38 29
M  V30 42 1 36 6
M  V30 43 1 38 33
M  V30 44 1 1 39
M  V30 45 1 1 40
M  V30 46 1 1 41
M  V30 47 1 5 42
M  V30 48 1 7 43
M  V30 49 1 9 44
M  V30 50 1 14 45
M  V30 51 1 15 46
M  V30 52 1 16 47
M  V30 53 1 18 48
M  V30 54 1 21 49
M  V30 55 1 22 50
M  V30 56 1 22 51
M  V30 57 1 23 52 CFG=3
M  V30 58 1 24 53
M  V30 59 1 24 54
M  V30 60 1 26 55
M  V30 61 1 26 56
M  V30 62 1 27 57
M  V30 63 1 27 58
M  V30 64 1 31 59
M  V30 65 1 35 60
M  V30 66 1 35 61
M  V30 67 1 35 62
M  V30 END BOND
M  V30 END CTAB
M  END
>  <Dataset>  (452) 
ChEMBL_Kinases

>  <Ligand_Instance>  (452) 
nan

>  <PDB_ID>  (452) 
nan

>  <Standardized_SMILES>  (452) 
COc1ncc2cc1NS(=O)(=O)c1cccc(c1)C(=O)NC[C@@H]1CN(CCO1)c1ncnc3c(C)c-2sc13

>  <Name>  (452) 
nan

>  <Pocket>  (452) 
nan

>  <ATP_Site>  (452) 
nan

>  <Peripheral>  (452) 
nan

>  <Num_H_Atoms_ProtBoundConf>  (452) 
nan

>  <Num_Resolved_Atoms>  (452) 
nan

>  <Num_Not_Resolved_Atoms>  (452) 
nan

$$$$
CHEMBL3970424
     RDKit          3D

  0  0  0  0  0  0  0  0  0  0999 V3000
M  V30 BEGIN CTAB
M  V30 COUNTS 50 53 0 0 0
M  V30 BEGIN ATOM
M  V30 1 C 6.378781 0.228217 5.249007 0
M  V30 2 C 4.987249 -0.067701 4.818971 0
M  V30 3 C 4.719659 -0.304921 3.469268 0
M  V30 4 C 3.414318 -0.574871 3.119541 0
M  V30 5 C 2.418615 -0.606674 4.076191 0
M  V30 6 C 0.990407 -0.889229 3.783528 0
M  V30 7 N 0.692300 -2.308215 3.864273 0
M  V30 8 S -1.009452 -2.454392 3.495693 0
M  V30 9 O -1.389490 -3.891301 3.675889 0
M  V30 10 O -1.730624 -1.625213 4.520853 0
M  V30 11 C -1.309455 -1.874839 1.883201 0
M  V30 12 C -1.259608 -2.681405 0.764921 0
M  V30 13 C -1.505946 -2.185763 -0.520404 0
M  V30 14 C -1.808241 -0.832061 -0.642823 0
M  V30 15 C -2.076647 -0.245214 -1.951831 0
M  V30 16 N -2.062408 -0.917473 -3.133678 0
M  V30 17 C -2.355060 -0.058813 -4.133838 0
M  V30 18 C -2.483123 -0.161092 -5.504439 0
M  V30 19 C -2.799517 0.900983 -6.324651 0
M  V30 20 C -2.927808 0.753969 -7.784566 0
M  V30 21 N -2.710553 -0.542827 -8.328665 0
M  V30 22 O -3.221704 1.788060 -8.453869 0
M  V30 23 C -2.992108 2.120850 -5.704885 0
M  V30 24 C -2.879144 2.291367 -4.339173 0
M  V30 25 C -2.561604 1.190047 -3.585070 0
M  V30 26 N -2.384052 1.041052 -2.252334 0
M  V30 27 C -1.867445 0.009748 0.458663 0
M  V30 28 C -1.614920 -0.537459 1.699934 0
M  V30 29 C 2.699275 -0.369391 5.410844 0
M  V30 30 C 4.008603 -0.095530 5.783331 0
M  V30 31 H 7.037480 0.313595 4.378646 0
M  V30 32 H 6.775213 -0.480486 5.991518 0
M  V30 33 H 6.359437 1.232236 5.740525 0
M  V30 34 H 5.496936 -0.279523 2.726500 0
M  V30 35 H 3.133743 -0.769944 2.081377 0
M  V30 36 H 0.796475 -0.526333 2.743715 0
M  V30 37 H 0.308132 -0.305687 4.448041 0
M  V30 38 H 0.786305 -2.558686 4.876514 0
M  V30 39 H -1.021206 -3.738535 0.881872 0
M  V30 40 H -1.462849 -2.837255 -1.397776 0
M  V30 41 H -2.323274 -1.142687 -5.958578 0
M  V30 42 H -3.741661 -0.736627 -8.250766 0
M  V30 43 H -1.683013 -0.402705 -8.427205 0
M  V30 44 H -3.243971 3.001147 -6.289790 0
M  V30 45 H -3.031311 3.246335 -3.866747 0
M  V30 46 H -2.469508 1.813294 -1.526543 0
M  V30 47 H -2.103485 1.069965 0.369326 0
M  V30 48 H -1.656378 0.096400 2.557857 0
M  V30 49 H 1.955643 -0.384056 6.189144 0
M  V30 50 H 4.225944 0.089391 6.825112 0
M  V30 END ATOM
M  V30 BEGIN BOND
M  V30 1 1 1 2
M  V30 2 2 2 3
M  V30 3 1 3 4
M  V30 4 2 4 5
M  V30 5 1 5 6
M  V30 6 1 6 7
M  V30 7 1 7 8
M  V30 8 2 8 9
M  V30 9 2 8 10
M  V30 10 1 8 11
M  V30 11 2 11 12
M  V30 12 1 12 13
M  V30 13 2 13 14
M  V30 14 1 14 15
M  V30 15 2 15 16
M  V30 16 1 16 17
M  V30 17 2 17 18
M  V30 18 1 18 19
M  V30 19 1 19 20
M  V30 20 1 20 21
M  V30 21 2 20 22
M  V30 22 2 19 23
M  V30 23 1 23 24
M  V30 24 2 24 25
M  V30 25 1 25 26
M  V30 26 1 14 27
M  V30 27 2 27 28
M  V30 28 1 5 29
M  V30 29 2 29 30
M  V30 30 1 30 2
M  V30 31 1 28 11
M  V30 32 1 26 15
M  V30 33 1 25 17
M  V30 34 1 1 31
M  V30 35 1 1 32
M  V30 36 1 1 33
M  V30 37 1 3 34
M  V30 38 1 4 35
M  V30 39 1 6 36
M  V30 40 1 6 37
M  V30 41 1 7 38
M  V30 42 1 12 39
M  V30 43 1 13 40
M  V30 44 1 18 41
M  V30 45 1 21 42
M  V30 46 1 21 43
M  V30 47 1 23 44
M  V30 48 1 24 45
M  V30 49 1 26 46
M  V30 50 1 27 47
M  V30 51 1 28 48
M  V30 52 1 29 49
M  V30 53 1 30 50
M  V30 END BOND
M  V30 END CTAB
M  END
>  <Dataset>  (453) 
ChEMBL_Kinases

>  <Ligand_Instance>  (453) 
nan

>  <PDB_ID>  (453) 
nan

>  <Standardized_SMILES>  (453) 
Cc1ccc(CNS(=O)(=O)c2ccc(-c3nc4cc(C(N)=O)ccc4[nH]3)cc2)cc1

>  <Name>  (453) 
nan

>  <Pocket>  (453) 
nan

>  <ATP_Site>  (453) 
nan

>  <Peripheral>  (453) 
nan

>  <Num_H_Atoms_ProtBoundConf>  (453) 
nan

>  <Num_Resolved_Atoms>  (453) 
nan

>  <Num_Not_Resolved_Atoms>  (453) 
nan

$$$$
CHEMBL3969799
     RDKit          3D

  0  0  0  0  0  0  0  0  0  0999 V3000
M  V30 BEGIN CTAB
M  V30 COUNTS 70 74 0 0 0
M  V30 BEGIN ATOM
M  V30 1 C 2.394798 -0.891390 2.190933 0
M  V30 2 C 3.247607 -0.315879 1.104180 0 CFG=1
M  V30 3 C 3.489156 -1.330246 0.007206 0
M  V30 4 N 3.207165 -0.881895 -1.306688 0
M  V30 5 C 1.880816 -1.101574 -1.785548 0
M  V30 6 C 1.643700 -2.560883 -1.988828 0
M  V30 7 C 0.245761 -2.851171 -2.504301 0
M  V30 8 C 0.162575 -4.354270 -2.712486 0
M  V30 9 O 1.247187 -5.005894 -2.126398 0
M  V30 10 C 2.451504 -4.723115 -2.760393 0
M  V30 11 C 2.595061 -3.215397 -2.961459 0
M  V30 12 C 3.775728 0.395910 -1.581646 0
M  V30 13 C 3.666425 1.403993 -0.479587 0
M  V30 14 N 2.725447 0.898890 0.500527 0
M  V30 15 C 1.468798 1.252872 1.022589 0
M  V30 16 O 1.996041 1.960247 0.154927 0
M  V30 17 N 0.274372 1.980333 1.224185 0
M  V30 18 C -0.701739 1.519964 2.191782 0
M  V30 19 C -1.974461 1.498968 1.400614 0
M  V30 20 C -3.179601 0.848679 1.231195 0
M  V30 21 N -3.649972 -0.273059 1.968967 0
M  V30 22 C -4.897175 -0.886301 1.731730 0
M  V30 23 O -5.655118 -0.445482 0.830517 0
M  V30 24 C -5.284849 -2.040615 2.555028 0
M  V30 25 C -6.489428 -2.693729 2.381913 0
M  V30 26 C -6.790509 -3.768880 3.188022 0
M  V30 27 C -5.957359 -4.249268 4.175602 0
M  V30 28 Cl -6.292192 -5.603105 5.219152 0
M  V30 29 C -4.751325 -3.555236 4.311645 0
M  V30 30 N -4.468480 -2.506414 3.518411 0
M  V30 31 N -3.772710 1.521972 0.230330 0
M  V30 32 N -2.995231 2.514555 -0.189417 0
M  V30 33 C -1.833734 2.544442 0.525415 0
M  V30 34 C -0.501115 3.135141 0.832754 0
M  V30 35 C -0.626648 4.172244 1.899784 0
M  V30 36 C 0.006633 3.772476 -0.437661 0
M  V30 37 H 1.324282 -0.956100 1.928973 0
M  V30 38 H 2.773336 -1.910712 2.404006 0
M  V30 39 H 2.481091 -0.308973 3.119208 0
M  V30 40 H 4.223121 -0.004536 1.559738 0
M  V30 41 H 2.981579 -2.280821 0.292943 0
M  V30 42 H 4.584152 -1.605218 0.035756 0
M  V30 43 H 1.153066 -0.772163 -1.000959 0
M  V30 44 H 1.650775 -0.492080 -2.688720 0
M  V30 45 H 1.733186 -3.094585 -1.033430 0
M  V30 46 H -0.497251 -2.494782 -1.760260 0
M  V30 47 H 0.070459 -2.369777 -3.478759 0
M  V30 48 H 0.086847 -4.627169 -3.778428 0
M  V30 49 H -0.737946 -4.740440 -2.173770 0
M  V30 50 H 2.566570 -5.270274 -3.713224 0
M  V30 51 H 3.266968 -5.040611 -2.089567 0
M  V30 52 H 2.232144 -3.025744 -4.003169 0
M  V30 53 H 3.650974 -2.895683 -2.818544 0
M  V30 54 H 3.370294 0.856185 -2.508755 0
M  V30 55 H 4.861403 0.203895 -1.830643 0
M  V30 56 H 3.454649 2.425501 -0.843199 0
M  V30 57 H 4.670331 1.443737 0.045311 0
M  V30 58 H -0.539678 0.518496 2.578721 0
M  V30 59 H -0.730991 2.303377 2.982335 0
M  V30 60 H -3.046139 -0.664370 2.723070 0
M  V30 61 H -7.165827 -2.357641 1.629037 0
M  V30 62 H -7.727911 -4.320728 3.094349 0
M  V30 63 H -4.029688 -3.860141 5.063601 0
M  V30 64 H -3.178996 3.215258 -0.954275 0
M  V30 65 H -1.632746 4.052040 2.387392 0
M  V30 66 H -0.640771 5.166794 1.439892 0
M  V30 67 H 0.150519 4.127291 2.691043 0
M  V30 68 H 0.000665 3.087692 -1.284808 0
M  V30 69 H 0.983739 4.295504 -0.289724 0
M  V30 70 H -0.717567 4.595574 -0.669630 0
M  V30 END ATOM
M  V30 BEGIN BOND
M  V30 1 1 1 2
M  V30 2 1 2 3
M  V30 3 1 3 4
M  V30 4 1 4 5
M  V30 5 1 5 6
M  V30 6 1 6 7
M  V30 7 1 7 8
M  V30 8 1 8 9
M  V30 9 1 9 10
M  V30 10 1 10 11
M  V30 11 1 4 12
M  V30 12 1 12 13
M  V30 13 1 13 14
M  V30 14 1 14 15
M  V30 15 2 15 16
M  V30 16 1 15 17
M  V30 17 1 17 18
M  V30 18 1 18 19
M  V30 19 1 19 20
M  V30 20 1 20 21
M  V30 21 1 21 22
M  V30 22 2 22 23
M  V30 23 1 22 24
M  V30 24 2 24 25
M  V30 25 1 25 26
M  V30 26 2 26 27
M  V30 27 1 27 28
M  V30 28 1 27 29
M  V30 29 2 29 30
M  V30 30 2 20 31
M  V30 31 1 31 32
M  V30 32 1 32 33
M  V30 33 1 33 34
M  V30 34 1 34 35
M  V30 35 1 34 36
M  V30 36 1 14 2
M  V30 37 1 34 17
M  V30 38 1 11 6
M  V30 39 2 33 19
M  V30 40 1 30 24
M  V30 41 1 1 37
M  V30 42 1 1 38
M  V30 43 1 1 39
M  V30 44 1 2 40 CFG=1
M  V30 45 1 3 41
M  V30 46 1 3 42
M  V30 47 1 5 43
M  V30 48 1 5 44
M  V30 49 1 6 45
M  V30 50 1 7 46
M  V30 51 1 7 47
M  V30 52 1 8 48
M  V30 53 1 8 49
M  V30 54 1 10 50
M  V30 55 1 10 51
M  V30 56 1 11 52
M  V30 57 1 11 53
M  V30 58 1 12 54
M  V30 59 1 12 55
M  V30 60 1 13 56
M  V30 61 1 13 57
M  V30 62 1 18 58
M  V30 63 1 18 59
M  V30 64 1 21 60
M  V30 65 1 25 61
M  V30 66 1 26 62
M  V30 67 1 29 63
M  V30 68 1 32 64
M  V30 69 1 35 65
M  V30 70 1 35 66
M  V30 71 1 35 67
M  V30 72 1 36 68
M  V30 73 1 36 69
M  V30 74 1 36 70
M  V30 END BOND
M  V30 END CTAB
M  END
>  <Dataset>  (454) 
ChEMBL_Kinases

>  <Ligand_Instance>  (454) 
nan

>  <PDB_ID>  (454) 
nan

>  <Standardized_SMILES>  (454) 
C[C@H]1CN(CC2CCOCC2)CCN1C(=O)N1Cc2c(NC(=O)c3ccc(Cl)cn3)n[nH]c2C1(C)C

>  <Name>  (454) 
nan

>  <Pocket>  (454) 
nan

>  <ATP_Site>  (454) 
nan

>  <Peripheral>  (454) 
nan

>  <Num_H_Atoms_ProtBoundConf>  (454) 
nan

>  <Num_Resolved_Atoms>  (454) 
nan

>  <Num_Not_Resolved_Atoms>  (454) 
nan

$$$$
CHEMBL397022
     RDKit          3D

  0  0  0  0  0  0  0  0  0  0999 V3000
M  V30 BEGIN CTAB
M  V30 COUNTS 35 39 0 0 0
M  V30 BEGIN ATOM
M  V30 1 O 3.858618 -3.045550 0.972565 0
M  V30 2 C 2.695781 -2.753648 0.605133 0
M  V30 3 N 1.950101 -3.689648 -0.202493 0
M  V30 4 C 0.690275 -3.080174 -0.451237 0
M  V30 5 O -0.104357 -3.744644 -1.142307 0
M  V30 6 C 0.602500 -1.786978 0.168399 0
M  V30 7 C 1.814471 -1.612621 0.795089 0
M  V30 8 C 2.024075 -0.441017 1.484786 0
M  V30 9 C 3.184822 -0.176517 2.134645 0
M  V30 10 O 4.254880 -1.037438 2.171104 0
M  V30 11 C 3.471101 0.989354 2.855450 0
M  V30 12 C 2.457593 1.955509 2.897682 0
M  V30 13 C 1.260585 1.709228 2.241008 0
M  V30 14 O 0.375945 2.742037 2.374378 0
M  V30 15 C 1.054839 0.533511 1.550930 0
M  V30 16 C -0.160068 0.357762 0.922229 0
M  V30 17 N -1.258275 1.149637 0.838100 0
M  V30 18 C -2.156028 0.449134 0.082906 0
M  V30 19 C -3.449353 0.850872 -0.286508 0
M  V30 20 C -4.244150 0.029485 -1.057572 0
M  V30 21 C -3.704752 -1.202815 -1.445758 0
M  V30 22 O -4.518951 -2.016876 -2.221707 0
M  V30 23 C -2.440728 -1.524227 -1.048439 0
M  V30 24 C -1.603234 -0.758762 -0.286902 0
M  V30 25 C -0.340435 -0.826167 0.239230 0
M  V30 26 H 2.326376 -4.639043 -0.518999 0
M  V30 27 H 5.212892 -0.827816 1.985569 0
M  V30 28 H 4.404539 1.195900 3.374909 0
M  V30 29 H 2.679255 2.874849 3.464259 0
M  V30 30 H 0.628241 3.702081 2.280388 0
M  V30 31 H -1.457065 2.078567 1.222953 0
M  V30 32 H -3.884157 1.786010 -0.003234 0
M  V30 33 H -5.239318 0.332288 -1.345046 0
M  V30 34 H -4.357064 -1.981165 -3.231687 0
M  V30 35 H -2.134792 -2.462573 -1.390532 0
M  V30 END ATOM
M  V30 BEGIN BOND
M  V30 1 2 1 2
M  V30 2 1 2 3
M  V30 3 1 3 4
M  V30 4 2 4 5
M  V30 5 1 4 6
M  V30 6 2 6 7
M  V30 7 1 7 8
M  V30 8 2 8 9
M  V30 9 1 9 10
M  V30 10 1 9 11
M  V30 11 2 11 12
M  V30 12 1 12 13
M  V30 13 1 13 14
M  V30 14 2 13 15
M  V30 15 1 15 16
M  V30 16 1 16 17
M  V30 17 1 17 18
M  V30 18 2 18 19
M  V30 19 1 19 20
M  V30 20 2 20 21
M  V30 21 1 21 22
M  V30 22 1 21 23
M  V30 23 2 23 24
M  V30 24 1 24 25
M  V30 25 1 7 2
M  V30 26 1 15 8
M  V30 27 2 25 16
M  V30 28 1 25 6
M  V30 29 1 24 18
M  V30 30 1 3 26
M  V30 31 1 10 27
M  V30 32 1 11 28
M  V30 33 1 12 29
M  V30 34 1 14 30
M  V30 35 1 17 31
M  V30 36 1 19 32
M  V30 37 1 20 33
M  V30 38 1 22 34
M  V30 39 1 23 35
M  V30 END BOND
M  V30 END CTAB
M  END
>  <Dataset>  (455) 
ChEMBL_Kinases

>  <Ligand_Instance>  (455) 
nan

>  <PDB_ID>  (455) 
nan

>  <Standardized_SMILES>  (455) 
O=C1NC(=O)c2c1c1c(O)ccc(O)c1c1[nH]c3ccc(O)cc3c21

>  <Name>  (455) 
nan

>  <Pocket>  (455) 
nan

>  <ATP_Site>  (455) 
nan

>  <Peripheral>  (455) 
nan

>  <Num_H_Atoms_ProtBoundConf>  (455) 
nan

>  <Num_Resolved_Atoms>  (455) 
nan

>  <Num_Not_Resolved_Atoms>  (455) 
nan

$$$$
CHEMBL4869497
     RDKit          3D

  0  0  0  0  0  0  0  0  0  0999 V3000
M  V30 BEGIN CTAB
M  V30 COUNTS 52 58 0 0 0
M  V30 BEGIN ATOM
M  V30 1 C -2.949697 -0.022294 -1.145995 0
M  V30 2 C -1.603614 0.245465 -1.273470 0
M  V30 3 C -0.674024 -0.674974 -0.834841 0
M  V30 4 C 0.782534 -0.583716 -0.878219 0
M  V30 5 N 1.622240 -1.563462 -1.267862 0
M  V30 6 N 2.853657 -1.111596 -1.172194 0
M  V30 7 C 2.872997 0.162096 -0.723331 0
M  V30 8 C 3.888194 1.051918 -0.461752 0
M  V30 9 C 3.623136 2.341989 0.007656 0
M  V30 10 C 2.294221 2.692845 0.200570 0
M  V30 11 C 1.816395 3.965167 0.674763 0
M  V30 12 N 1.184202 4.945387 0.013310 0
M  V30 13 N 0.940702 5.926944 0.865698 0
M  V30 14 C 1.422440 5.560696 2.067539 0
M  V30 15 N 1.971786 4.334321 1.955641 0
M  V30 16 C 2.560214 3.725043 3.126901 0
M  V30 17 C 1.658830 2.907720 4.040386 0
M  V30 18 C 2.814526 2.294316 3.249203 0
M  V30 19 C 1.262552 1.783606 -0.067009 0
M  V30 20 C 1.539608 0.508723 -0.531677 0
M  V30 21 C -1.151273 -1.860428 -0.270051 0
M  V30 22 C -2.519185 -2.121544 -0.145743 0
M  V30 23 N -2.957468 -3.359749 0.444177 0
M  V30 24 C -3.884554 -3.522997 1.406485 0
M  V30 25 N -4.016725 -4.849273 1.695173 0
M  V30 26 C -3.153623 -5.510703 0.893851 0
M  V30 27 C -2.874827 -6.968626 0.779669 0
M  V30 28 C -1.441358 -7.363120 0.394934 0
M  V30 29 C -2.571920 -7.493105 -0.591851 0
M  V30 30 C -2.494194 -4.579726 0.114628 0
M  V30 31 C -3.431830 -1.187342 -0.590927 0
M  V30 32 H -3.595034 0.760857 -1.519180 0
M  V30 33 H -1.169321 1.137790 -1.698600 0
M  V30 34 H 3.690360 -1.688752 -1.419480 0
M  V30 35 H 4.933664 0.794394 -0.606992 0
M  V30 36 H 4.362922 3.094097 0.234894 0
M  V30 37 H 1.326527 6.227848 2.917507 0
M  V30 38 H 3.245932 4.392850 3.727646 0
M  V30 39 H 1.798286 2.939767 5.134612 0
M  V30 40 H 0.619838 2.685824 3.734959 0
M  V30 41 H 3.715907 1.953136 3.829635 0
M  V30 42 H 2.478147 1.530455 2.553703 0
M  V30 43 H 0.216223 1.997383 0.062825 0
M  V30 44 H -0.496748 -2.637090 0.100050 0
M  V30 45 H -4.456220 -2.723677 1.895227 0
M  V30 46 H -3.431063 -7.674007 1.427507 0
M  V30 47 H -0.707575 -6.552142 0.232726 0
M  V30 48 H -1.005132 -8.279722 0.850201 0
M  V30 49 H -2.817180 -8.559517 -0.834207 0
M  V30 50 H -2.516060 -6.851100 -1.471330 0
M  V30 51 H -1.734449 -4.751014 -0.638512 0
M  V30 52 H -4.478623 -1.367505 -0.505166 0
M  V30 END ATOM
M  V30 BEGIN BOND
M  V30 1 2 1 2
M  V30 2 1 2 3
M  V30 3 1 3 4
M  V30 4 2 4 5
M  V30 5 1 5 6
M  V30 6 1 6 7
M  V30 7 2 7 8
M  V30 8 1 8 9
M  V30 9 2 9 10
M  V30 10 1 10 11
M  V30 11 2 11 12
M  V30 12 1 12 13
M  V30 13 2 13 14
M  V30 14 1 14 15
M  V30 15 1 15 16
M  V30 16 1 16 17
M  V30 17 1 17 18
M  V30 18 1 10 19
M  V30 19 2 19 20
M  V30 20 2 3 21
M  V30 21 1 21 22
M  V30 22 1 22 23
M  V30 23 1 23 24
M  V30 24 2 24 25
M  V30 25 1 25 26
M  V30 26 1 26 27
M  V30 27 1 27 28
M  V30 28 1 28 29
M  V30 29 2 26 30
M  V30 30 2 22 31
M  V30 31 1 31 1
M  V30 32 1 20 4
M  V30 33 1 30 23
M  V30 34 1 20 7
M  V30 35 1 29 27
M  V30 36 1 15 11
M  V30 37 1 18 16
M  V30 38 1 1 32
M  V30 39 1 2 33
M  V30 40 1 6 34
M  V30 41 1 8 35
M  V30 42 1 9 36
M  V30 43 1 14 37
M  V30 44 1 16 38
M  V30 45 1 17 39
M  V30 46 1 17 40
M  V30 47 1 18 41
M  V30 48 1 18 42
M  V30 49 1 19 43
M  V30 50 1 21 44
M  V30 51 1 24 45
M  V30 52 1 27 46
M  V30 53 1 28 47
M  V30 54 1 28 48
M  V30 55 1 29 49
M  V30 56 1 29 50
M  V30 57 1 30 51
M  V30 58 1 31 52
M  V30 END BOND
M  V30 END CTAB
M  END
>  <Dataset>  (456) 
ChEMBL_Kinases

>  <Ligand_Instance>  (456) 
nan

>  <PDB_ID>  (456) 
nan

>  <Standardized_SMILES>  (456) 
c1cc(-c2n[nH]c3ccc(-c4nncn4C4CC4)cc23)cc(-n2cnc(C3CC3)c2)c1

>  <Name>  (456) 
nan

>  <Pocket>  (456) 
nan

>  <ATP_Site>  (456) 
nan

>  <Peripheral>  (456) 
nan

>  <Num_H_Atoms_ProtBoundConf>  (456) 
nan

>  <Num_Resolved_Atoms>  (456) 
nan

>  <Num_Not_Resolved_Atoms>  (456) 
nan

$$$$
CHEMBL3970129
     RDKit          3D

  0  0  0  0  0  0  0  0  0  0999 V3000
M  V30 BEGIN CTAB
M  V30 COUNTS 46 49 0 0 0
M  V30 BEGIN ATOM
M  V30 1 N 4.246235 5.429231 -3.387831 0
M  V30 2 C 3.732264 5.837721 -2.124829 0
M  V30 3 O 3.946372 7.018518 -1.734617 0
M  V30 4 C 2.971279 4.915623 -1.290496 0
M  V30 5 C 2.491099 5.349657 -0.075403 0
M  V30 6 C 1.762113 4.477406 0.731356 0
M  V30 7 C 1.508385 3.177617 0.336870 0
M  V30 8 N 0.853890 2.108669 0.867428 0
M  V30 9 C 0.951384 1.091560 -0.009051 0
M  V30 10 C 0.387977 -0.244140 0.166051 0
M  V30 11 C -0.317814 -0.554147 1.309680 0
M  V30 12 C -0.824923 -1.835526 1.413539 0
M  V30 13 C -0.664604 -2.825331 0.434846 0
M  V30 14 S -1.402288 -4.363017 0.824575 0
M  V30 15 O -1.335244 -4.600730 2.289989 0
M  V30 16 O -0.636816 -5.478966 0.132521 0
M  V30 17 N -3.051697 -4.452993 0.329310 0
M  V30 18 C -3.660551 -4.370430 -0.948141 0
M  V30 19 C -3.380971 -3.423524 -1.908011 0
M  V30 20 C -3.975006 -3.345944 -3.144634 0
M  V30 21 C -4.925557 -4.284602 -3.456826 0
M  V30 22 N -5.551256 -4.216976 -4.737158 0 CHG=1 VAL=4
M  V30 23 O -6.425595 -5.058528 -5.058221 0
M  V30 24 O -5.232033 -3.245707 -5.661359 0 CHG=-1 VAL=1
M  V30 25 C -5.268600 -5.268212 -2.558136 0
M  V30 26 C -4.638183 -5.293045 -1.336025 0
M  V30 27 C 0.048524 -2.475504 -0.695833 0
M  V30 28 C 0.562280 -1.199254 -0.815928 0
M  V30 29 N 1.656103 1.520208 -1.069952 0
M  V30 30 C 2.022783 2.807375 -0.900618 0
M  V30 31 C 2.751781 3.631720 -1.739866 0
M  V30 32 H 5.070272 4.859725 -3.732412 0
M  V30 33 H 3.774115 5.700346 -4.275232 0
M  V30 34 H 2.672184 6.376026 0.273095 0
M  V30 35 H 1.380073 4.814544 1.692594 0
M  V30 36 H 0.386745 2.140074 1.784586 0
M  V30 37 H -0.453718 0.184787 2.071409 0
M  V30 38 H -1.370536 -2.016441 2.337460 0
M  V30 39 H -3.817235 -4.593572 1.055422 0
M  V30 40 H -2.645039 -2.679225 -1.687470 0
M  V30 41 H -3.698729 -2.569061 -3.844339 0
M  V30 42 H -6.019470 -5.985655 -2.842304 0
M  V30 43 H -4.947905 -6.098273 -0.654512 0
M  V30 44 H 0.132556 -3.283425 -1.404827 0
M  V30 45 H 1.113820 -0.989424 -1.731584 0
M  V30 46 H 3.113158 3.252888 -2.689667 0
M  V30 END ATOM
M  V30 BEGIN BOND
M  V30 1 1 1 2
M  V30 2 2 2 3
M  V30 3 1 2 4
M  V30 4 2 4 5
M  V30 5 1 5 6
M  V30 6 2 6 7
M  V30 7 1 7 8
M  V30 8 1 8 9
M  V30 9 1 9 10
M  V30 10 2 10 11
M  V30 11 1 11 12
M  V30 12 2 12 13
M  V30 13 1 13 14
M  V30 14 2 14 15
M  V30 15 2 14 16
M  V30 16 1 14 17
M  V30 17 1 17 18
M  V30 18 2 18 19
M  V30 19 1 19 20
M  V30 20 2 20 21
M  V30 21 1 21 22
M  V30 22 2 22 23
M  V30 23 1 22 24
M  V30 24 1 21 25
M  V30 25 2 25 26
M  V30 26 1 13 27
M  V30 27 2 27 28
M  V30 28 2 9 29
M  V30 29 1 29 30
M  V30 30 2 30 31
M  V30 31 1 31 4
M  V30 32 1 30 7
M  V30 33 1 28 10
M  V30 34 1 26 18
M  V30 35 1 1 32
M  V30 36 1 1 33
M  V30 37 1 5 34
M  V30 38 1 6 35
M  V30 39 1 8 36
M  V30 40 1 11 37
M  V30 41 1 12 38
M  V30 42 1 17 39
M  V30 43 1 19 40
M  V30 44 1 20 41
M  V30 45 1 25 42
M  V30 46 1 26 43
M  V30 47 1 27 44
M  V30 48 1 28 45
M  V30 49 1 31 46
M  V30 END BOND
M  V30 END CTAB
M  END
>  <Dataset>  (457) 
ChEMBL_Kinases

>  <Ligand_Instance>  (457) 
nan

>  <PDB_ID>  (457) 
nan

>  <Standardized_SMILES>  (457) 
NC(=O)c1ccc2[nH]c(-c3ccc(S(=O)(=O)Nc4ccc([N+](=O)[O-])cc4)cc3)nc2c1

>  <Name>  (457) 
nan

>  <Pocket>  (457) 
nan

>  <ATP_Site>  (457) 
nan

>  <Peripheral>  (457) 
nan

>  <Num_H_Atoms_ProtBoundConf>  (457) 
nan

>  <Num_Resolved_Atoms>  (457) 
nan

>  <Num_Not_Resolved_Atoms>  (457) 
nan

$$$$
CHEMBL4869527
     RDKit          3D

  0  0  0  0  0  0  0  0  0  0999 V3000
M  V30 BEGIN CTAB
M  V30 COUNTS 78 82 0 0 0
M  V30 BEGIN ATOM
M  V30 1 C 4.875116 -4.696502 4.066341 0
M  V30 2 C 4.155446 -3.387759 4.275171 0
M  V30 3 C 4.178345 -2.537039 3.056614 0
M  V30 4 O 4.750578 -2.885260 2.004149 0
M  V30 5 N 3.500535 -1.295703 3.172909 0
M  V30 6 C 3.431415 -0.340946 2.051493 0 CFG=1
M  V30 7 C 1.987617 -0.271280 1.706814 0
M  V30 8 C 1.427214 1.121097 1.568184 0
M  V30 9 C 2.513882 1.910359 0.861312 0 CFG=1
M  V30 10 N 2.006536 3.019137 0.111245 0
M  V30 11 C 2.173661 4.325543 0.372362 0
M  V30 12 O 2.834857 4.626306 1.385506 0
M  V30 13 C 1.677474 5.360741 -0.383368 0
M  V30 14 C 1.927139 6.773006 0.006448 0
M  V30 15 C 0.944201 5.020781 -1.507629 0
M  V30 16 C 0.751086 3.672559 -1.808139 0
M  V30 17 C 0.003832 3.383399 -2.954582 0
M  V30 18 N -0.209170 2.096347 -3.284490 0
M  V30 19 C 0.315062 1.152559 -2.482835 0
M  V30 20 N 0.193498 -0.262541 -2.690135 0
M  V30 21 C -0.958470 -1.067816 -2.372623 0
M  V30 22 C -2.022714 -0.298658 -1.888907 0
M  V30 23 C -3.231968 -0.855541 -1.543248 0
M  V30 24 C -3.382956 -2.229397 -1.685320 0
M  V30 25 N -4.592470 -2.948226 -1.385417 0
M  V30 26 C -4.791905 -4.379749 -1.282645 0
M  V30 27 C -5.858604 -4.622396 -0.238239 0
M  V30 28 N -5.864038 -3.622829 0.794523 0
M  V30 29 C -4.657207 -3.606815 1.555467 0
M  V30 30 C -6.304279 -2.361725 0.287662 0
M  V30 31 C -5.856021 -2.245141 -1.148241 0
M  V30 32 C -2.324160 -3.009825 -2.167118 0
M  V30 33 C -1.118539 -2.439139 -2.510181 0
M  V30 34 O 0.017470 -3.015381 -2.991555 0
M  V30 35 C 0.228892 -4.384760 -3.257395 0
M  V30 36 N 1.047573 1.409323 -1.360158 0
M  V30 37 C 1.283315 2.690716 -0.996472 0
M  V30 38 C 3.555575 2.184835 1.863784 0
M  V30 39 C 4.120012 0.918571 2.405894 0
M  V30 40 H 5.733303 -4.608090 3.375700 0
M  V30 41 H 5.289067 -4.984563 5.062399 0
M  V30 42 H 4.176772 -5.535652 3.804302 0
M  V30 43 H 4.555889 -2.825269 5.162266 0
M  V30 44 H 3.095601 -3.643354 4.525639 0
M  V30 45 H 2.991362 -0.923409 4.020824 0
M  V30 46 H 4.005949 -0.865699 1.229101 0
M  V30 47 H 1.847328 -0.732178 0.680960 0
M  V30 48 H 1.320662 -0.876474 2.352802 0
M  V30 49 H 1.294366 1.564688 2.580599 0
M  V30 50 H 0.474079 1.113832 1.007455 0
M  V30 51 H 2.970698 1.213150 0.093714 0
M  V30 52 H 2.138576 6.866445 1.090618 0
M  V30 53 H 2.739811 7.174585 -0.643447 0
M  V30 54 H 1.027898 7.366838 -0.223209 0
M  V30 55 H 0.560719 5.852827 -2.091137 0
M  V30 56 H -0.384711 4.198810 -3.547105 0
M  V30 57 H 1.072212 -0.601805 -3.105483 0
M  V30 58 H -1.976711 0.789459 -1.751043 0
M  V30 59 H -4.048037 -0.280139 -1.172422 0
M  V30 60 H -5.144688 -4.727653 -2.291778 0
M  V30 61 H -3.860451 -4.920160 -1.004620 0
M  V30 62 H -5.648605 -5.608119 0.228811 0
M  V30 63 H -6.884322 -4.603584 -0.692658 0
M  V30 64 H -4.044593 -2.725729 1.271193 0
M  V30 65 H -4.933334 -3.570132 2.631228 0
M  V30 66 H -4.062759 -4.507318 1.296930 0
M  V30 67 H -5.872463 -1.515676 0.869968 0
M  V30 68 H -7.415433 -2.299990 0.368028 0
M  V30 69 H -6.649255 -2.727174 -1.789739 0
M  V30 70 H -5.817518 -1.186509 -1.467970 0
M  V30 71 H -2.339801 -4.077397 -2.312758 0
M  V30 72 H -0.262486 -5.003151 -2.490478 0
M  V30 73 H 1.317637 -4.618516 -3.322388 0
M  V30 74 H -0.293458 -4.636417 -4.218581 0
M  V30 75 H 4.329617 2.841478 1.407860 0
M  V30 76 H 3.094080 2.739535 2.729220 0
M  V30 77 H 5.181316 0.853799 2.017423 0
M  V30 78 H 4.228706 0.977392 3.532513 0
M  V30 END ATOM
M  V30 BEGIN BOND
M  V30 1 1 1 2
M  V30 2 1 2 3
M  V30 3 2 3 4
M  V30 4 1 3 5
M  V30 5 1 5 6
M  V30 6 1 6 7
M  V30 7 1 7 8
M  V30 8 1 8 9
M  V30 9 1 9 10
M  V30 10 1 10 11
M  V30 11 2 11 12
M  V30 12 1 11 13
M  V30 13 1 13 14
M  V30 14 2 13 15
M  V30 15 1 15 16
M  V30 16 2 16 17
M  V30 17 1 17 18
M  V30 18 2 18 19
M  V30 19 1 19 20
M  V30 20 1 20 21
M  V30 21 2 21 22
M  V30 22 1 22 23
M  V30 23 2 23 24
M  V30 24 1 24 25
M  V30 25 1 25 26
M  V30 26 1 26 27
M  V30 27 1 27 28
M  V30 28 1 28 29
M  V30 29 1 28 30
M  V30 30 1 30 31
M  V30 31 1 24 32
M  V30 32 2 32 33
M  V30 33 1 33 34
M  V30 34 1 34 35
M  V30 35 1 19 36
M  V30 36 2 36 37
M  V30 37 1 9 38
M  V30 38 1 38 39
M  V30 39 1 39 6
M  V30 40 1 37 10
M  V30 41 1 37 16
M  V30 42 1 33 21
M  V30 43 1 31 25
M  V30 44 1 1 40
M  V30 45 1 1 41
M  V30 46 1 1 42
M  V30 47 1 2 43
M  V30 48 1 2 44
M  V30 49 1 5 45
M  V30 50 1 6 46 CFG=3
M  V30 51 1 7 47
M  V30 52 1 7 48
M  V30 53 1 8 49
M  V30 54 1 8 50
M  V30 55 1 9 51 CFG=3
M  V30 56 1 14 52
M  V30 57 1 14 53
M  V30 58 1 14 54
M  V30 59 1 15 55
M  V30 60 1 17 56
M  V30 61 1 20 57
M  V30 62 1 22 58
M  V30 63 1 23 59
M  V30 64 1 26 60
M  V30 65 1 26 61
M  V30 66 1 27 62
M  V30 67 1 27 63
M  V30 68 1 29 64
M  V30 69 1 29 65
M  V30 70 1 29 66
M  V30 71 1 30 67
M  V30 72 1 30 68
M  V30 73 1 31 69
M  V30 74 1 31 70
M  V30 75 1 32 71
M  V30 76 1 35 72
M  V30 77 1 35 73
M  V30 78 1 35 74
M  V30 79 1 38 75
M  V30 80 1 38 76
M  V30 81 1 39 77
M  V30 82 1 39 78
M  V30 END BOND
M  V30 END CTAB
M  END
>  <Dataset>  (458) 
ChEMBL_Kinases

>  <Ligand_Instance>  (458) 
nan

>  <PDB_ID>  (458) 
nan

>  <Standardized_SMILES>  (458) 
CCC(=O)N[C@H]1CC[C@@H](n2c(=O)c(C)cc3cnc(Nc4ccc(N5CCN(C)CC5)cc4OC)nc32)CC1

>  <Name>  (458) 
nan

>  <Pocket>  (458) 
nan

>  <ATP_Site>  (458) 
nan

>  <Peripheral>  (458) 
nan

>  <Num_H_Atoms_ProtBoundConf>  (458) 
nan

>  <Num_Resolved_Atoms>  (458) 
nan

>  <Num_Not_Resolved_Atoms>  (458) 
nan

$$$$
CHEMBL3701805
     RDKit          3D

  0  0  0  0  0  0  0  0  0  0999 V3000
M  V30 BEGIN CTAB
M  V30 COUNTS 91 95 0 0 0
M  V30 BEGIN ATOM
M  V30 1 C 2.399422 -3.259034 2.990940 0
M  V30 2 C 1.937329 -2.832673 1.585565 0
M  V30 3 C 0.597769 -3.486706 1.412188 0
M  V30 4 C 2.905256 -3.485337 0.642305 0
M  V30 5 O 1.964671 -1.459076 1.588292 0
M  V30 6 C 1.647323 -0.570078 0.576510 0
M  V30 7 O 1.855169 -1.563240 1.264266 0
M  V30 8 N 1.763905 0.779107 0.999930 0
M  V30 9 C 2.098442 1.231321 2.362636 0
M  V30 10 C 0.757503 1.591106 3.044442 0
M  V30 11 C -0.219311 1.860495 1.887251 0
M  V30 12 C -1.613182 2.075058 2.293565 0
M  V30 13 N -2.469331 2.367877 1.131342 0
M  V30 14 S -4.120836 2.554728 1.697864 0
M  V30 15 O -5.021793 2.894829 0.581135 0
M  V30 16 O -4.129584 3.620918 2.719738 0
M  V30 17 C -4.596697 0.994471 2.401263 0
M  V30 18 C -4.374259 0.560865 3.688158 0
M  V30 19 C -4.760514 -0.721765 4.035732 0
M  V30 20 C -5.346014 -1.497315 3.083581 0
M  V30 21 C -5.607669 -1.135024 1.772449 0
M  V30 22 S -6.314291 -2.234183 0.602413 0
M  V30 23 O -6.195620 -3.604559 1.179285 0
M  V30 24 O -7.768960 -1.893410 0.535301 0
M  V30 25 N -5.582451 -2.021545 -0.899131 0
M  V30 26 C -4.290193 -2.141291 -1.409912 0
M  V30 27 C -3.336738 -3.111457 -1.203211 0
M  V30 28 C -2.077751 -3.027673 -1.811394 0
M  V30 29 C -1.742020 -1.977782 -2.638214 0
M  V30 30 N -0.448350 -1.864947 -3.261896 0
M  V30 31 C -0.361194 -1.003546 -4.441826 0
M  V30 32 C 1.032481 -0.983654 -5.010067 0
M  V30 33 N 2.022626 -1.125468 -3.977348 0
M  V30 34 C 2.818778 0.010160 -3.796467 0
M  V30 35 O 2.461537 0.928833 -4.612234 0
M  V30 36 C 3.915423 0.535037 -3.011662 0
M  V30 37 C 5.141912 -0.144830 -2.969130 0
M  V30 38 C 6.128583 0.412483 -2.197494 0
M  V30 39 C 5.959336 1.578260 -1.488134 0
M  V30 40 C 4.767959 2.262115 -1.515011 0
M  V30 41 C 3.784202 1.695853 -2.291554 0
M  V30 42 C 1.939208 -2.427734 -3.390975 0
M  V30 43 C 0.639815 -2.597027 -2.662188 0
M  V30 44 C -2.662706 -0.956738 -2.891783 0
M  V30 45 C -3.874598 -1.104453 -2.262121 0
M  V30 46 C -5.208265 0.145819 1.470861 0
M  V30 47 C 0.424583 2.813672 0.952378 0
M  V30 48 C 1.557520 2.025980 0.250200 0
M  V30 49 H 2.408632 -4.336647 3.114064 0
M  V30 50 H 3.373678 -2.743504 3.142213 0
M  V30 51 H 1.691865 -2.732741 3.670356 0
M  V30 52 H 0.074978 -3.277663 0.481624 0
M  V30 53 H -0.040428 -3.364722 2.336872 0
M  V30 54 H 0.818361 -4.596406 1.381601 0
M  V30 55 H 3.841633 -2.941064 0.476697 0
M  V30 56 H 2.366215 -3.683612 -0.305601 0
M  V30 57 H 3.121038 -4.515897 1.058402 0
M  V30 58 H 2.759105 2.083341 2.405257 0
M  V30 59 H 2.572175 0.406439 2.907728 0
M  V30 60 H 0.903487 2.515763 3.609295 0
M  V30 61 H 0.380421 0.740782 3.637493 0
M  V30 62 H -0.188056 0.844083 1.340715 0
M  V30 63 H -1.665403 3.001240 2.930513 0
M  V30 64 H -2.003773 1.201418 2.838332 0
M  V30 65 H -2.218530 3.301008 0.729399 0
M  V30 66 H -3.901461 1.293084 4.323929 0
M  V30 67 H -4.568107 -1.030955 5.052999 0
M  V30 68 H -5.617847 -2.497972 3.441386 0
M  V30 69 H -6.273880 -1.726219 -1.664040 0
M  V30 70 H -3.644685 -3.904177 -0.554208 0
M  V30 71 H -1.390523 -3.825200 -1.600037 0
M  V30 72 H -1.048306 -1.388692 -5.196090 0
M  V30 73 H -0.582772 0.046115 -4.117975 0
M  V30 74 H 1.138442 -0.060018 -5.627794 0
M  V30 75 H 1.125789 -1.863247 -5.697621 0
M  V30 76 H 5.277394 -1.055782 -3.523809 0
M  V30 77 H 7.095317 -0.068394 -2.131391 0
M  V30 78 H 6.761632 1.982493 -0.889586 0
M  V30 79 H 4.663483 3.175446 -0.948892 0
M  V30 80 H 2.833786 2.208015 -2.344230 0
M  V30 81 H 1.971031 -3.212107 -4.198276 0
M  V30 82 H 2.788503 -2.648980 -2.706849 0
M  V30 83 H 0.746411 -2.235476 -1.607793 0
M  V30 84 H 0.325824 -3.668772 -2.606928 0
M  V30 85 H -2.488287 -0.106340 -3.517437 0
M  V30 86 H -4.589835 -0.287997 -2.469804 0
M  V30 87 H -5.408911 0.439121 0.445648 0
M  V30 88 H -0.300750 3.170822 0.209129 0
M  V30 89 H 0.828887 3.680573 1.491710 0
M  V30 90 H 1.161941 1.761001 -0.743944 0
M  V30 91 H 2.456023 2.638391 0.185321 0
M  V30 END ATOM
M  V30 BEGIN BOND
M  V30 1 1 1 2
M  V30 2 1 2 3
M  V30 3 1 2 4
M  V30 4 1 2 5
M  V30 5 1 5 6
M  V30 6 2 6 7
M  V30 7 1 6 8
M  V30 8 1 8 9
M  V30 9 1 9 10
M  V30 10 1 10 11
M  V30 11 1 11 12
M  V30 12 1 12 13
M  V30 13 1 13 14
M  V30 14 2 14 15
M  V30 15 2 14 16
M  V30 16 1 14 17
M  V30 17 2 17 18
M  V30 18 1 18 19
M  V30 19 2 19 20
M  V30 20 1 20 21
M  V30 21 1 21 22
M  V30 22 2 22 23
M  V30 23 2 22 24
M  V30 24 1 22 25
M  V30 25 1 25 26
M  V30 26 2 26 27
M  V30 27 1 27 28
M  V30 28 2 28 29
M  V30 29 1 29 30
M  V30 30 1 30 31
M  V30 31 1 31 32
M  V30 32 1 32 33
M  V30 33 1 33 34
M  V30 34 2 34 35
M  V30 35 1 34 36
M  V30 36 2 36 37
M  V30 37 1 37 38
M  V30 38 2 38 39
M  V30 39 1 39 40
M  V30 40 2 40 41
M  V30 41 1 33 42
M  V30 42 1 42 43
M  V30 43 1 29 44
M  V30 44 2 44 45
M  V30 45 2 21 46
M  V30 46 1 11 47
M  V30 47 1 47 48
M  V30 48 1 48 8
M  V30 49 1 46 17
M  V30 50 1 45 26
M  V30 51 1 43 30
M  V30 52 1 41 36
M  V30 53 1 1 49
M  V30 54 1 1 50
M  V30 55 1 1 51
M  V30 56 1 3 52
M  V30 57 1 3 53
M  V30 58 1 3 54
M  V30 59 1 4 55
M  V30 60 1 4 56
M  V30 61 1 4 57
M  V30 62 1 9 58
M  V30 63 1 9 59
M  V30 64 1 10 60
M  V30 65 1 10 61
M  V30 66 1 11 62
M  V30 67 1 12 63
M  V30 68 1 12 64
M  V30 69 1 13 65
M  V30 70 1 18 66
M  V30 71 1 19 67
M  V30 72 1 20 68
M  V30 73 1 25 69
M  V30 74 1 27 70
M  V30 75 1 28 71
M  V30 76 1 31 72
M  V30 77 1 31 73
M  V30 78 1 32 74
M  V30 79 1 32 75
M  V30 80 1 37 76
M  V30 81 1 38 77
M  V30 82 1 39 78
M  V30 83 1 40 79
M  V30 84 1 41 80
M  V30 85 1 42 81
M  V30 86 1 42 82
M  V30 87 1 43 83
M  V30 88 1 43 84
M  V30 89 1 44 85
M  V30 90 1 45 86
M  V30 91 1 46 87
M  V30 92 1 47 88
M  V30 93 1 47 89
M  V30 94 1 48 90
M  V30 95 1 48 91
M  V30 END BOND
M  V30 END CTAB
M  END
>  <Dataset>  (459) 
ChEMBL_Kinases

>  <Ligand_Instance>  (459) 
nan

>  <PDB_ID>  (459) 
nan

>  <Standardized_SMILES>  (459) 
CC(C)(C)OC(=O)N1CCC(CNS(=O)(=O)c2cccc(S(=O)(=O)Nc3ccc(N4CCN(C(=O)c5ccccc5)CC4)cc3)c2)CC1

>  <Name>  (459) 
nan

>  <Pocket>  (459) 
nan

>  <ATP_Site>  (459) 
nan

>  <Peripheral>  (459) 
nan

>  <Num_H_Atoms_ProtBoundConf>  (459) 
nan

>  <Num_Resolved_Atoms>  (459) 
nan

>  <Num_Not_Resolved_Atoms>  (459) 
nan

$$$$
CHEMBL4869558
     RDKit          3D

  0  0  0  0  0  0  0  0  0  0999 V3000
M  V30 BEGIN CTAB
M  V30 COUNTS 50 52 0 0 0
M  V30 BEGIN ATOM
M  V30 1 C 1.510283 -5.236419 -1.175567 0
M  V30 2 O 0.104924 -5.208391 -1.000323 0
M  V30 3 C -0.437204 -4.109722 -0.359611 0
M  V30 4 C 0.303871 -3.046579 0.115861 0
M  V30 5 C -0.264188 -1.959188 0.753591 0
M  V30 6 N 0.549460 -0.884325 1.226937 0
M  V30 7 C 0.759827 0.163546 0.288709 0
M  V30 8 O 0.169740 -0.060614 -0.819587 0
M  V30 9 C 1.569074 1.347140 0.601732 0 CFG=1
M  V30 10 N 1.620868 2.243712 -0.508727 0
M  V30 11 C 2.838228 3.031989 -0.382286 0
M  V30 12 C 3.362767 3.098372 1.024414 0
M  V30 13 C 2.296353 3.118144 2.068735 0
M  V30 14 C 1.215792 2.067157 1.850361 0 CFG=1
M  V30 15 C -0.084304 2.767364 1.862415 0
M  V30 16 C -0.277526 3.444059 3.210356 0
M  V30 17 C -1.289714 1.940204 1.597406 0
M  V30 18 C -1.642310 -1.904238 0.939903 0
M  V30 19 C -2.390922 -2.964386 0.466868 0
M  V30 20 C -1.801888 -4.039550 -0.166815 0
M  V30 21 C -2.637360 -5.134815 -0.648435 0
M  V30 22 C -4.010010 -5.244897 -0.549714 0
M  V30 23 N -4.375396 -6.408476 -1.120995 0
M  V30 24 C -3.245336 -6.992239 -1.557549 0
M  V30 25 O -2.224339 -6.216981 -1.265694 0
M  V30 26 H 1.864242 -6.279132 -1.412322 0
M  V30 27 H 1.849837 -4.555658 -1.992194 0
M  V30 28 H 2.051092 -4.969892 -0.243087 0
M  V30 29 H 1.378513 -3.057779 -0.012746 0
M  V30 30 H 1.003117 -0.787850 2.183476 0
M  V30 31 H 2.621060 0.966187 0.745322 0
M  V30 32 H 1.630162 1.754063 -1.432006 0
M  V30 33 H 3.621146 2.491799 -0.973651 0
M  V30 34 H 2.734541 4.021271 -0.858043 0
M  V30 35 H 3.911191 4.070000 1.117488 0
M  V30 36 H 4.080051 2.308129 1.274332 0
M  V30 37 H 2.811141 2.920310 3.050453 0
M  V30 38 H 1.885009 4.144680 2.158701 0
M  V30 39 H 1.244615 1.338552 2.688406 0
M  V30 40 H -0.090043 3.609377 1.115194 0
M  V30 41 H -0.915514 2.780176 3.849600 0
M  V30 42 H -0.774940 4.426000 3.126443 0
M  V30 43 H 0.696196 3.505206 3.744782 0
M  V30 44 H -1.477928 1.721472 0.529530 0
M  V30 45 H -2.175629 2.535885 1.924923 0
M  V30 46 H -1.308692 1.021761 2.233921 0
M  V30 47 H -2.142695 -1.080909 1.430778 0
M  V30 48 H -3.478774 -2.928112 0.610195 0
M  V30 49 H -4.634782 -4.474066 -0.072292 0
M  V30 50 H -3.102083 -7.933777 -2.069921 0
M  V30 END ATOM
M  V30 BEGIN BOND
M  V30 1 1 1 2
M  V30 2 1 2 3
M  V30 3 2 3 4
M  V30 4 1 4 5
M  V30 5 1 5 6
M  V30 6 1 6 7
M  V30 7 2 7 8
M  V30 8 1 7 9
M  V30 9 1 9 10
M  V30 10 1 10 11
M  V30 11 1 11 12
M  V30 12 1 12 13
M  V30 13 1 13 14
M  V30 14 1 14 15
M  V30 15 1 15 16
M  V30 16 1 15 17
M  V30 17 2 5 18
M  V30 18 1 18 19
M  V30 19 2 19 20
M  V30 20 1 20 21
M  V30 21 2 21 22
M  V30 22 1 22 23
M  V30 23 2 23 24
M  V30 24 1 24 25
M  V30 25 1 20 3
M  V30 26 1 25 21
M  V30 27 1 14 9
M  V30 28 1 1 26
M  V30 29 1 1 27
M  V30 30 1 1 28
M  V30 31 1 4 29
M  V30 32 1 6 30
M  V30 33 1 9 31 CFG=1
M  V30 34 1 10 32
M  V30 35 1 11 33
M  V30 36 1 11 34
M  V30 37 1 12 35
M  V30 38 1 12 36
M  V30 39 1 13 37
M  V30 40 1 13 38
M  V30 41 1 14 39 CFG=1
M  V30 42 1 15 40
M  V30 43 1 16 41
M  V30 44 1 16 42
M  V30 45 1 16 43
M  V30 46 1 17 44
M  V30 47 1 17 45
M  V30 48 1 17 46
M  V30 49 1 18 47
M  V30 50 1 19 48
M  V30 51 1 22 49
M  V30 52 1 24 50
M  V30 END BOND
M  V30 END CTAB
M  END
>  <Dataset>  (460) 
ChEMBL_Kinases

>  <Ligand_Instance>  (460) 
nan

>  <PDB_ID>  (460) 
nan

>  <Standardized_SMILES>  (460) 
COc1cc(NC(=O)[C@H]2NCCC[C@H]2C(C)C)ccc1-c1cnco1

>  <Name>  (460) 
nan

>  <Pocket>  (460) 
nan

>  <ATP_Site>  (460) 
nan

>  <Peripheral>  (460) 
nan

>  <Num_H_Atoms_ProtBoundConf>  (460) 
nan

>  <Num_Resolved_Atoms>  (460) 
nan

>  <Num_Not_Resolved_Atoms>  (460) 
nan

$$$$
CHEMBL4869592
     RDKit          3D

  0  0  0  0  0  0  0  0  0  0999 V3000
M  V30 BEGIN CTAB
M  V30 COUNTS 36 39 0 0 0
M  V30 BEGIN ATOM
M  V30 1 C 2.788419 -6.758923 0.605191 0
M  V30 2 O 1.812342 -6.008858 -0.095059 0
M  V30 3 C 1.638676 -4.649820 0.020851 0
M  V30 4 C 0.613221 -4.137497 -0.768916 0
M  V30 5 C 0.338814 -2.780639 -0.740897 0
M  V30 6 C 1.080588 -1.943598 0.067367 0
M  V30 7 C 2.103019 -2.440699 0.857494 0
M  V30 8 C 2.370439 -3.798157 0.823292 0
M  V30 9 N 2.657995 -1.420874 1.539458 0
M  V30 10 C 2.052900 -0.256721 1.242569 0
M  V30 11 C 2.222666 1.066116 1.649570 0
M  V30 12 N 1.421376 2.051026 1.147176 0
M  V30 13 C 0.454972 1.727881 0.244723 0
M  V30 14 N -0.432141 2.689495 -0.336760 0
M  V30 15 C -1.604524 2.832812 0.450254 0
M  V30 16 O -1.698300 2.128757 1.500293 0
M  V30 17 C -2.713305 3.753958 0.110798 0
M  V30 18 C -4.085635 3.518506 0.595893 0
M  V30 19 C -3.228387 4.559520 1.299106 0
M  V30 20 C 0.229457 0.442495 -0.203332 0
M  V30 21 C 1.052459 -0.563812 0.313716 0
M  V30 22 H 3.807794 -6.648576 0.226628 0
M  V30 23 H 2.802999 -6.501215 1.697413 0
M  V30 24 H 2.463885 -7.817881 0.534363 0
M  V30 25 H -0.012145 -4.729363 -1.427993 0
M  V30 26 H -0.447031 -2.285056 -1.325924 0
M  V30 27 H 3.154861 -4.255648 1.414549 0
M  V30 28 H 3.449940 -1.519591 2.207639 0
M  V30 29 H 2.991962 1.277188 2.358897 0
M  V30 30 H -0.412342 3.300000 -1.195660 0
M  V30 31 H -2.568704 4.331453 -0.807210 0
M  V30 32 H -4.912513 3.973304 -0.007182 0
M  V30 33 H -4.341901 2.638124 1.211411 0
M  V30 34 H -3.467508 5.627730 1.176684 0
M  V30 35 H -2.854749 4.307021 2.313571 0
M  V30 36 H -0.515933 0.164669 -0.904990 0
M  V30 END ATOM
M  V30 BEGIN BOND
M  V30 1 1 1 2
M  V30 2 1 2 3
M  V30 3 2 3 4
M  V30 4 1 4 5
M  V30 5 2 5 6
M  V30 6 1 6 7
M  V30 7 2 7 8
M  V30 8 1 7 9
M  V30 9 1 9 10
M  V30 10 2 10 11
M  V30 11 1 11 12
M  V30 12 2 12 13
M  V30 13 1 13 14
M  V30 14 1 14 15
M  V30 15 2 15 16
M  V30 16 1 15 17
M  V30 17 1 17 18
M  V30 18 1 18 19
M  V30 19 1 13 20
M  V30 20 2 20 21
M  V30 21 1 8 3
M  V30 22 1 21 10
M  V30 23 1 21 6
M  V30 24 1 19 17
M  V30 25 1 1 22
M  V30 26 1 1 23
M  V30 27 1 1 24
M  V30 28 1 4 25
M  V30 29 1 5 26
M  V30 30 1 8 27
M  V30 31 1 9 28
M  V30 32 1 11 29
M  V30 33 1 14 30
M  V30 34 1 17 31
M  V30 35 1 18 32
M  V30 36 1 18 33
M  V30 37 1 19 34
M  V30 38 1 19 35
M  V30 39 1 20 36
M  V30 END BOND
M  V30 END CTAB
M  END
>  <Dataset>  (461) 
ChEMBL_Kinases

>  <Ligand_Instance>  (461) 
nan

>  <PDB_ID>  (461) 
nan

>  <Standardized_SMILES>  (461) 
COc1ccc2c(c1)[nH]c1cnc(NC(=O)C3CC3)cc12

>  <Name>  (461) 
nan

>  <Pocket>  (461) 
nan

>  <ATP_Site>  (461) 
nan

>  <Peripheral>  (461) 
nan

>  <Num_H_Atoms_ProtBoundConf>  (461) 
nan

>  <Num_Resolved_Atoms>  (461) 
nan

>  <Num_Not_Resolved_Atoms>  (461) 
nan

$$$$
CHEMBL4869607
     RDKit          3D

  0  0  0  0  0  0  0  0  0  0999 V3000
M  V30 BEGIN CTAB
M  V30 COUNTS 38 41 0 0 0
M  V30 BEGIN ATOM
M  V30 1 O 5.233625 -3.571914 -0.416402 0
M  V30 2 C 4.380292 -4.197714 0.278820 0
M  V30 3 O 4.742697 -5.441272 0.796423 0
M  V30 4 C 3.050252 -3.644354 0.539103 0
M  V30 5 C 2.143510 -4.361899 1.306201 0
M  V30 6 C 0.893548 -3.825891 1.542194 0
M  V30 7 C 0.528753 -2.604238 1.037322 0
M  V30 8 C 1.477985 -1.948409 0.285643 0
M  V30 9 C 2.743682 -2.410580 0.003273 0
M  V30 10 C 1.118143 -0.718346 -0.225428 0
M  V30 11 C -0.132195 -0.120567 -0.022251 0
M  V30 12 N -0.397669 1.152718 -0.598232 0
M  V30 13 C -0.718866 2.436705 -0.076267 0
M  V30 14 C -1.030187 3.438211 -0.962851 0
M  V30 15 C -1.327544 4.669641 -0.430852 0
M  V30 16 C -1.333094 4.960619 0.923418 0
M  V30 17 Cl -1.719973 6.543645 1.519782 0
M  V30 18 C -1.020500 3.952105 1.798890 0
M  V30 19 C -0.721696 2.715056 1.266229 0
M  V30 20 C -1.003666 -0.857943 0.739866 0
M  V30 21 C -2.254367 -0.331694 0.974430 0
M  V30 22 C -3.160718 -1.042800 1.732074 0
M  V30 23 N -2.836247 -2.256081 2.250126 0
M  V30 24 C -1.618271 -2.789766 2.032508 0
M  V30 25 C -0.710480 -2.085190 1.277646 0
M  V30 26 H 5.718190 -5.640508 1.063607 0
M  V30 27 H 2.476915 -5.328327 1.686776 0
M  V30 28 H 0.280665 -4.468203 2.145463 0
M  V30 29 H 3.427862 -1.819581 -0.602239 0
M  V30 30 H 1.828847 -0.164382 -0.822027 0
M  V30 31 H -0.313048 0.997807 -1.625749 0
M  V30 32 H -1.045325 3.280779 -2.039931 0
M  V30 33 H -1.575100 5.465247 -1.139764 0
M  V30 34 H -0.996475 4.076523 2.879152 0
M  V30 35 H -0.470585 1.903200 1.960945 0
M  V30 36 H -2.555394 0.625962 0.577599 0
M  V30 37 H -4.162182 -0.660667 1.941261 0
M  V30 38 H -1.466665 -3.749024 2.485423 0
M  V30 END ATOM
M  V30 BEGIN BOND
M  V30 1 2 1 2
M  V30 2 1 2 3
M  V30 3 1 2 4
M  V30 4 2 4 5
M  V30 5 1 5 6
M  V30 6 2 6 7
M  V30 7 1 7 8
M  V30 8 2 8 9
M  V30 9 1 8 10
M  V30 10 2 10 11
M  V30 11 1 11 12
M  V30 12 1 12 13
M  V30 13 2 13 14
M  V30 14 1 14 15
M  V30 15 2 15 16
M  V30 16 1 16 17
M  V30 17 1 16 18
M  V30 18 2 18 19
M  V30 19 1 11 20
M  V30 20 2 20 21
M  V30 21 1 21 22
M  V30 22 2 22 23
M  V30 23 1 23 24
M  V30 24 2 24 25
M  V30 25 1 9 4
M  V30 26 1 19 13
M  V30 27 1 25 20
M  V30 28 1 25 7
M  V30 29 1 3 26
M  V30 30 1 5 27
M  V30 31 1 6 28
M  V30 32 1 9 29
M  V30 33 1 10 30
M  V30 34 1 12 31
M  V30 35 1 14 32
M  V30 36 1 15 33
M  V30 37 1 18 34
M  V30 38 1 19 35
M  V30 39 1 21 36
M  V30 40 1 22 37
M  V30 41 1 24 38
M  V30 END BOND
M  V30 END CTAB
M  END
>  <Dataset>  (462) 
ChEMBL_Kinases

>  <Ligand_Instance>  (462) 
nan

>  <PDB_ID>  (462) 
nan

>  <Standardized_SMILES>  (462) 
O=C(O)c1ccc2c(c1)cc(Nc1ccc(Cl)cc1)c1ccncc12

>  <Name>  (462) 
nan

>  <Pocket>  (462) 
nan

>  <ATP_Site>  (462) 
nan

>  <Peripheral>  (462) 
nan

>  <Num_H_Atoms_ProtBoundConf>  (462) 
nan

>  <Num_Resolved_Atoms>  (462) 
nan

>  <Num_Not_Resolved_Atoms>  (462) 
nan

$$$$
CHEMBL3970061
     RDKit          3D

  0  0  0  0  0  0  0  0  0  0999 V3000
M  V30 BEGIN CTAB
M  V30 COUNTS 60 61 0 0 0
M  V30 BEGIN ATOM
M  V30 1 C -2.935466 -2.059660 1.457730 0
M  V30 2 C -3.593231 -2.753758 0.284599 0 CFG=2
M  V30 3 C -3.119862 -4.053405 -0.068024 0
M  V30 4 C -1.939196 -4.664633 0.168944 0
M  V30 5 C -0.905032 -3.985433 0.881826 0
M  V30 6 O 0.001609 -4.855472 1.016113 0
M  V30 7 C 0.108984 -3.248785 1.604490 0 CFG=1
M  V30 8 O 0.676565 -4.251061 2.496489 0
M  V30 9 C 1.301268 -2.746296 0.916545 0 CFG=1
M  V30 10 O 1.898543 -3.923788 0.330209 0
M  V30 11 C 1.368901 -1.760387 -0.130645 0
M  V30 12 C 0.815621 -0.408115 0.050810 0
M  V30 13 C 0.094170 0.068678 -0.946740 0
M  V30 14 C -0.680407 1.220879 -1.401739 0
M  V30 15 C 0.120916 2.250958 -1.870332 0
M  V30 16 C -0.297367 3.496470 -2.359960 0
M  V30 17 N 0.555759 4.503567 -2.816510 0
M  V30 18 C 1.981702 4.515711 -2.864736 0
M  V30 19 C 2.680090 4.527550 -1.545230 0
M  V30 20 O 2.305410 5.684085 -0.823602 0
M  V30 21 C 4.181949 4.658100 -1.802918 0
M  V30 22 O 4.918163 4.737234 -0.645541 0
M  V30 23 C -1.666983 3.615165 -2.334234 0
M  V30 24 C -2.517627 2.630254 -1.883476 0
M  V30 25 O -3.877156 2.885979 -1.915326 0
M  V30 26 C -2.038139 1.430189 -1.415832 0
M  V30 27 C -3.042526 0.461291 -0.993848 0
M  V30 28 O -4.043046 0.956697 -0.382993 0
M  V30 29 O -2.979133 -0.927515 -1.211267 0
M  V30 30 C -4.023822 -1.773745 -0.758516 0 CFG=1
M  V30 31 C -4.785287 -2.406622 -1.889216 0
M  V30 32 H -2.699218 -2.757081 2.259880 0
M  V30 33 H -3.650284 -1.319405 1.907617 0
M  V30 34 H -2.103858 -1.462904 1.062189 0
M  V30 35 H -4.620144 -3.017942 0.786668 0
M  V30 36 H -3.827259 -4.644958 -0.629555 0
M  V30 37 H -1.874984 -5.690170 -0.233092 0
M  V30 38 H -0.238281 -2.498014 2.323601 0
M  V30 39 H 1.066565 -3.825835 3.276684 0
M  V30 40 H 2.045284 -2.473712 1.718745 0
M  V30 41 H 2.817562 -3.719523 0.049578 0
M  V30 42 H 1.095112 -2.172531 -1.164317 0
M  V30 43 H 2.489715 -1.572407 -0.303838 0
M  V30 44 H 1.017029 0.124121 0.968575 0
M  V30 45 H -0.120172 -0.382545 -1.901294 0
M  V30 46 H 1.179654 2.021711 -1.863288 0
M  V30 47 H 0.070127 5.366806 -3.170117 0
M  V30 48 H 2.295691 3.595687 -3.440581 0
M  V30 49 H 2.351638 5.371596 -3.461761 0
M  V30 50 H 2.493699 3.694897 -0.877911 0
M  V30 51 H 1.316023 5.701928 -0.779992 0
M  V30 52 H 4.521923 3.789394 -2.432813 0
M  V30 53 H 4.348064 5.580386 -2.388130 0
M  V30 54 H 5.454090 3.928053 -0.448586 0
M  V30 55 H -2.092425 4.556797 -2.696769 0
M  V30 56 H -4.451926 2.642622 -2.711727 0
M  V30 57 H -4.757822 -1.046191 -0.289194 0
M  V30 58 H -5.308405 -1.624319 -2.479776 0
M  V30 59 H -4.174423 -3.000714 -2.573021 0
M  V30 60 H -5.619853 -2.981540 -1.408850 0
M  V30 END ATOM
M  V30 BEGIN BOND
M  V30 1 1 1 2
M  V30 2 1 2 3
M  V30 3 2 3 4
M  V30 4 1 4 5
M  V30 5 2 5 6
M  V30 6 1 5 7
M  V30 7 1 7 8
M  V30 8 1 7 9
M  V30 9 1 9 10
M  V30 10 1 9 11
M  V30 11 1 11 12
M  V30 12 2 12 13
M  V30 13 1 13 14
M  V30 14 2 14 15
M  V30 15 1 15 16
M  V30 16 1 16 17
M  V30 17 1 17 18
M  V30 18 1 18 19
M  V30 19 1 19 20
M  V30 20 1 19 21
M  V30 21 1 21 22
M  V30 22 2 16 23
M  V30 23 1 23 24
M  V30 24 1 24 25
M  V30 25 2 24 26
M  V30 26 1 26 27
M  V30 27 2 27 28
M  V30 28 1 27 29
M  V30 29 1 29 30
M  V30 30 1 30 31
M  V30 31 1 30 2
M  V30 32 1 26 14
M  V30 33 1 1 32
M  V30 34 1 1 33
M  V30 35 1 1 34
M  V30 36 1 2 35 CFG=1
M  V30 37 1 3 36
M  V30 38 1 4 37
M  V30 39 1 7 38 CFG=1
M  V30 40 1 8 39
M  V30 41 1 9 40 CFG=1
M  V30 42 1 10 41
M  V30 43 1 11 42
M  V30 44 1 11 43
M  V30 45 1 12 44
M  V30 46 1 13 45
M  V30 47 1 15 46
M  V30 48 1 17 47
M  V30 49 1 18 48
M  V30 50 1 18 49
M  V30 51 1 19 50
M  V30 52 1 20 51
M  V30 53 1 21 52
M  V30 54 1 21 53
M  V30 55 1 22 54
M  V30 56 1 23 55
M  V30 57 1 25 56
M  V30 58 1 30 57 CFG=1
M  V30 59 1 31 58
M  V30 60 1 31 59
M  V30 61 1 31 60
M  V30 END BOND
M  V30 END CTAB
M  END
>  <Dataset>  (463) 
ChEMBL_Kinases

>  <Ligand_Instance>  (463) 
nan

>  <PDB_ID>  (463) 
nan

>  <Standardized_SMILES>  (463) 
C[C@@H]1/C=C\C(=O)[C@@H](O)[C@@H](O)C/C=C/c2cc(NCC(O)CO)cc(O)c2C(=O)O[C@H]1C

>  <Name>  (463) 
nan

>  <Pocket>  (463) 
nan

>  <ATP_Site>  (463) 
nan

>  <Peripheral>  (463) 
nan

>  <Num_H_Atoms_ProtBoundConf>  (463) 
nan

>  <Num_Resolved_Atoms>  (463) 
nan

>  <Num_Not_Resolved_Atoms>  (463) 
nan

$$$$
CHEMBL3969996
     RDKit          3D

  0  0  0  0  0  0  0  0  0  0999 V3000
M  V30 BEGIN CTAB
M  V30 COUNTS 32 34 0 0 0
M  V30 BEGIN ATOM
M  V30 1 O 2.819128 2.134867 3.391992 0
M  V30 2 C 2.526011 1.188353 2.573703 0
M  V30 3 N 3.373970 0.273377 1.904871 0
M  V30 4 C 2.687117 -0.641874 1.061885 0
M  V30 5 N 3.049420 -1.241632 -0.016930 0
M  V30 6 C 2.191463 -2.128156 -0.718676 0
M  V30 7 C 0.877334 -1.772937 -0.914236 0
M  V30 8 C -0.056514 -2.530096 -1.588065 0
M  V30 9 C 0.440254 -3.742339 -2.086248 0
M  V30 10 C 1.752020 -4.120029 -1.904217 0
M  V30 11 C 2.665883 -3.334144 -1.220533 0
M  V30 12 S 1.086703 -0.759152 1.924226 0
M  V30 13 C 1.102821 1.031584 2.285623 0
M  V30 14 C 0.028228 1.798467 2.199656 0
M  V30 15 C -1.326900 1.315244 1.882634 0
M  V30 16 C -1.741697 0.207938 2.635123 0
M  V30 17 C -2.981721 -0.316596 2.427502 0
M  V30 18 C -3.819002 0.236278 1.487837 0
M  V30 19 F -5.026848 -0.334087 1.348323 0
M  V30 20 C -3.414936 1.337514 0.734384 0
M  V30 21 C -2.150091 1.878383 0.939167 0
M  V30 22 H 4.434927 0.275454 2.020012 0
M  V30 23 H 0.475645 -0.818657 -0.532314 0
M  V30 24 H -1.077539 -2.207014 -1.715862 0
M  V30 25 H -0.251269 -4.374513 -2.624338 0
M  V30 26 H 2.168567 -5.041071 -2.270055 0
M  V30 27 H 3.690045 -3.555235 -1.042057 0
M  V30 28 H 0.367491 2.823788 2.404966 0
M  V30 29 H -1.070690 -0.214485 3.377303 0
M  V30 30 H -3.219744 -1.176410 3.057349 0
M  V30 31 H -4.099435 1.732670 0.013749 0
M  V30 32 H -1.802754 2.730211 0.370601 0
M  V30 END ATOM
M  V30 BEGIN BOND
M  V30 1 2 1 2
M  V30 2 1 2 3
M  V30 3 1 3 4
M  V30 4 2 4 5
M  V30 5 1 5 6
M  V30 6 2 6 7
M  V30 7 1 7 8
M  V30 8 2 8 9
M  V30 9 1 9 10
M  V30 10 2 10 11
M  V30 11 1 4 12
M  V30 12 1 12 13
M  V30 13 2 13 14
M  V30 14 1 14 15
M  V30 15 2 15 16
M  V30 16 1 16 17
M  V30 17 2 17 18
M  V30 18 1 18 19
M  V30 19 1 18 20
M  V30 20 2 20 21
M  V30 21 1 13 2
M  V30 22 1 21 15
M  V30 23 1 11 6
M  V30 24 1 3 22
M  V30 25 1 7 23
M  V30 26 1 8 24
M  V30 27 1 9 25
M  V30 28 1 10 26
M  V30 29 1 11 27
M  V30 30 1 14 28
M  V30 31 1 16 29
M  V30 32 1 17 30
M  V30 33 1 20 31
M  V30 34 1 21 32
M  V30 END BOND
M  V30 END CTAB
M  END
>  <Dataset>  (464) 
ChEMBL_Kinases

>  <Ligand_Instance>  (464) 
nan

>  <PDB_ID>  (464) 
nan

>  <Standardized_SMILES>  (464) 
O=C1N/C(=N/c2ccccc2)S/C1=C\c1ccc(F)cc1

>  <Name>  (464) 
nan

>  <Pocket>  (464) 
nan

>  <ATP_Site>  (464) 
nan

>  <Peripheral>  (464) 
nan

>  <Num_H_Atoms_ProtBoundConf>  (464) 
nan

>  <Num_Resolved_Atoms>  (464) 
nan

>  <Num_Not_Resolved_Atoms>  (464) 
nan

$$$$
CHEMBL3969873
     RDKit          3D

  0  0  0  0  0  0  0  0  0  0999 V3000
M  V30 BEGIN CTAB
M  V30 COUNTS 66 69 0 0 0
M  V30 BEGIN ATOM
M  V30 1 C 4.499222 -3.210370 -1.424530 0
M  V30 2 O 4.591788 -2.478922 -2.591757 0
M  V30 3 C 5.063130 -1.189771 -2.421043 0
M  V30 4 C 4.157427 -0.433957 -1.511179 0
M  V30 5 C 4.477983 -0.516227 -0.174935 0
M  V30 6 C 3.660384 0.172302 0.693618 0
M  V30 7 C 2.578865 0.904340 0.245585 0
M  V30 8 C 1.762378 1.616842 1.234924 0
M  V30 9 C 2.251404 0.991320 -1.090799 0
M  V30 10 N 1.158771 1.702580 -1.645989 0
M  V30 11 C 1.043561 1.805003 -3.097204 0
M  V30 12 C 0.082966 2.370466 -1.037476 0
M  V30 13 N -0.874432 1.819587 -0.279398 0
M  V30 14 C -1.895173 2.480848 0.280242 0
M  V30 15 N -2.907544 1.901832 1.081814 0
M  V30 16 C -3.079435 0.545300 1.441213 0
M  V30 17 C -2.323733 -0.516778 0.999962 0
M  V30 18 C -2.507204 -1.829045 1.372215 0
M  V30 19 N -1.698049 -2.889724 0.875704 0
M  V30 20 C -0.704614 -2.819251 -0.144889 0
M  V30 21 C 0.662121 -3.202890 0.376437 0
M  V30 22 O 0.572360 -4.193126 1.353886 0
M  V30 23 C -0.564803 -4.981567 1.179560 0
M  V30 24 C -1.832460 -4.216795 1.415163 0
M  V30 25 C -3.522482 -2.109457 2.253626 0
M  V30 26 C -4.315665 -1.091887 2.733117 0
M  V30 27 S -5.614778 -1.440865 3.861417 0
M  V30 28 C -5.057838 -1.338678 5.536248 0
M  V30 29 O -6.702534 -0.433056 3.615516 0
M  V30 30 O -6.142882 -2.808990 3.537205 0
M  V30 31 C -4.075042 0.177691 2.320953 0
M  V30 32 N -1.919161 3.797884 0.034065 0
M  V30 33 C -1.018353 4.453737 -0.706717 0
M  V30 34 C 0.016857 3.734634 -1.264882 0
M  V30 35 F 0.908213 4.432784 -2.008083 0
M  V30 36 C 3.075948 0.300218 -1.937443 0
M  V30 37 H 4.106222 -4.229503 -1.707204 0
M  V30 38 H 3.749084 -2.808446 -0.717008 0
M  V30 39 H 5.486168 -3.382300 -0.955575 0
M  V30 40 H 5.024103 -0.722621 -3.446974 0
M  V30 41 H 6.100111 -1.153090 -2.037625 0
M  V30 42 H 5.304215 -1.066003 0.245411 0
M  V30 43 H 3.868871 0.142507 1.768862 0
M  V30 44 H 0.921270 0.991850 1.656295 0
M  V30 45 H 1.468818 2.639879 0.970505 0
M  V30 46 H 2.396403 1.779367 2.167702 0
M  V30 47 H 2.081174 1.990459 -3.510190 0
M  V30 48 H 0.447028 2.638180 -3.459365 0
M  V30 49 H 0.635278 0.892154 -3.562307 0
M  V30 50 H -3.635162 2.572394 1.464410 0
M  V30 51 H -1.518876 -0.332960 0.308348 0
M  V30 52 H -0.995226 -3.601053 -0.910149 0
M  V30 53 H -0.679696 -1.880680 -0.695406 0
M  V30 54 H 1.283210 -3.617139 -0.445745 0
M  V30 55 H 1.100695 -2.304344 0.854774 0
M  V30 56 H -0.600749 -5.492239 0.212115 0
M  V30 57 H -0.495304 -5.788102 1.968975 0
M  V30 58 H -2.689085 -4.710467 0.889150 0
M  V30 59 H -2.039074 -4.184082 2.524455 0
M  V30 60 H -3.761113 -3.111181 2.617026 0
M  V30 61 H -5.854323 -0.865269 6.155846 0
M  V30 62 H -4.952001 -2.372439 5.923809 0
M  V30 63 H -4.076697 -0.838321 5.640184 0
M  V30 64 H -4.734974 0.948655 2.733781 0
M  V30 65 H -1.168413 5.537667 -0.819944 0
M  V30 66 H 2.977630 0.246813 -3.023064 0
M  V30 END ATOM
M  V30 BEGIN BOND
M  V30 1 1 1 2
M  V30 2 1 2 3
M  V30 3 1 3 4
M  V30 4 2 4 5
M  V30 5 1 5 6
M  V30 6 2 6 7
M  V30 7 1 7 8
M  V30 8 1 7 9
M  V30 9 1 9 10
M  V30 10 1 10 11
M  V30 11 1 10 12
M  V30 12 2 12 13
M  V30 13 1 13 14
M  V30 14 1 14 15
M  V30 15 1 15 16
M  V30 16 2 16 17
M  V30 17 1 17 18
M  V30 18 1 18 19
M  V30 19 1 19 20
M  V30 20 1 20 21
M  V30 21 1 21 22
M  V30 22 1 22 23
M  V30 23 1 23 24
M  V30 24 2 18 25
M  V30 25 1 25 26
M  V30 26 1 26 27
M  V30 27 1 27 28
M  V30 28 2 27 29
M  V30 29 2 27 30
M  V30 30 2 26 31
M  V30 31 2 14 32
M  V30 32 1 32 33
M  V30 33 2 33 34
M  V30 34 1 34 35
M  V30 35 2 9 36
M  V30 36 1 36 4
M  V30 37 1 34 12
M  V30 38 1 31 16
M  V30 39 1 24 19
M  V30 40 1 1 37
M  V30 41 1 1 38
M  V30 42 1 1 39
M  V30 43 1 3 40
M  V30 44 1 3 41
M  V30 45 1 5 42
M  V30 46 1 6 43
M  V30 47 1 8 44
M  V30 48 1 8 45
M  V30 49 1 8 46
M  V30 50 1 11 47
M  V30 51 1 11 48
M  V30 52 1 11 49
M  V30 53 1 15 50
M  V30 54 1 17 51
M  V30 55 1 20 52
M  V30 56 1 20 53
M  V30 57 1 21 54
M  V30 58 1 21 55
M  V30 59 1 23 56
M  V30 60 1 23 57
M  V30 61 1 24 58
M  V30 62 1 24 59
M  V30 63 1 25 60
M  V30 64 1 28 61
M  V30 65 1 28 62
M  V30 66 1 28 63
M  V30 67 1 31 64
M  V30 68 1 33 65
M  V30 69 1 36 66
M  V30 END BOND
M  V30 END CTAB
M  END
>  <Dataset>  (465) 
ChEMBL_Kinases

>  <Ligand_Instance>  (465) 
nan

>  <PDB_ID>  (465) 
nan

>  <Standardized_SMILES>  (465) 
COCc1ccc(C)c(N(C)c2nc(Nc3cc(N4CCOCC4)cc(S(C)(=O)=O)c3)ncc2F)c1

>  <Name>  (465) 
nan

>  <Pocket>  (465) 
nan

>  <ATP_Site>  (465) 
nan

>  <Peripheral>  (465) 
nan

>  <Num_H_Atoms_ProtBoundConf>  (465) 
nan

>  <Num_Resolved_Atoms>  (465) 
nan

>  <Num_Not_Resolved_Atoms>  (465) 
nan

$$$$
CHEMBL3970354
     RDKit          3D

  0  0  0  0  0  0  0  0  0  0999 V3000
M  V30 BEGIN CTAB
M  V30 COUNTS 68 69 0 0 0
M  V30 BEGIN ATOM
M  V30 1 C 0.581930 3.180273 1.194649 0
M  V30 2 C 1.868686 3.139884 1.970433 0 CFG=2
M  V30 3 C 2.956809 3.974868 1.551327 0
M  V30 4 C 3.324370 4.307917 0.295422 0
M  V30 5 C 2.638455 3.824510 -0.867652 0
M  V30 6 O 3.103303 4.340499 -1.916943 0
M  V30 7 C 1.849015 3.238575 -1.925438 0 CFG=1
M  V30 8 O 1.727118 3.985787 -3.100637 0
M  V30 9 C 2.572294 1.949428 -2.456753 0 CFG=1
M  V30 10 O 2.847616 1.219838 -1.274273 0
M  V30 11 C 1.510323 1.121979 -3.142189 0
M  V30 12 C 0.614973 0.451052 -2.132540 0
M  V30 13 C -0.272674 -0.065732 -1.295457 0
M  V30 14 C -0.152792 -1.076638 -0.219012 0
M  V30 15 C -0.648628 -2.275982 -0.748682 0
M  V30 16 C -0.689633 -3.477855 -0.075961 0
M  V30 17 N -1.210547 -4.671607 -0.622623 0
M  V30 18 C -1.870878 -5.152938 -1.812171 0
M  V30 19 C -3.325972 -4.849114 -1.892931 0
M  V30 20 N -3.684998 -3.477850 -1.951280 0
M  V30 21 C -3.369059 -2.884572 -3.230938 0
M  V30 22 C -3.699053 -1.412875 -3.266254 0
M  V30 23 O -3.378411 -0.869927 -4.534585 0
M  V30 24 C -5.165063 -1.225235 -3.009801 0
M  V30 25 O -5.923029 -1.882048 -3.980742 0
M  V30 26 C -0.217329 -3.543127 1.214947 0
M  V30 27 C 0.266119 -2.359839 1.726934 0
M  V30 28 O 0.752398 -2.381067 3.031082 0
M  V30 29 C 0.306919 -1.164038 1.057116 0
M  V30 30 C 0.860417 -0.047133 1.786821 0
M  V30 31 O 0.064750 0.102932 2.784410 0
M  V30 32 O 1.950706 0.832443 1.684013 0
M  V30 33 C 2.113155 1.846766 2.700791 0 CFG=1
M  V30 34 C 3.411947 1.764889 3.403917 0
M  V30 35 H 0.606082 4.065969 0.552005 0
M  V30 36 H 0.370143 2.221784 0.673750 0
M  V30 37 H -0.337378 3.320789 1.834527 0
M  V30 38 H 1.509944 3.796010 2.923328 0
M  V30 39 H 3.619854 4.427383 2.290022 0
M  V30 40 H 4.178995 4.971370 0.182206 0
M  V30 41 H 0.896518 2.857871 -1.561006 0
M  V30 42 H 0.775402 3.930802 -3.359270 0
M  V30 43 H 3.409978 2.166781 -3.075703 0
M  V30 44 H 3.241297 1.801170 -0.567370 0
M  V30 45 H 1.936242 0.433848 -3.872751 0
M  V30 46 H 0.862687 1.863012 -3.718552 0
M  V30 47 H 1.489410 -0.132695 -1.750067 0
M  V30 48 H -1.337014 0.229920 -1.325613 0
M  V30 49 H -1.042875 -2.355300 -1.749227 0
M  V30 50 H -1.135862 -5.551314 -0.021030 0
M  V30 51 H -1.405125 -4.611223 -2.715859 0
M  V30 52 H -1.663834 -6.209666 -2.049213 0
M  V30 53 H -3.811004 -5.342416 -1.016483 0
M  V30 54 H -3.735735 -5.327184 -2.835910 0
M  V30 55 H -4.686843 -3.355054 -1.726686 0
M  V30 56 H -2.348122 -3.034836 -3.580876 0
M  V30 57 H -4.015072 -3.362684 -4.027785 0
M  V30 58 H -3.108692 -0.837049 -2.540525 0
M  V30 59 H -4.201839 -0.902741 -5.065178 0
M  V30 60 H -5.420158 -1.506094 -1.983825 0
M  V30 61 H -5.378378 -0.123916 -3.093560 0
M  V30 62 H -6.761962 -1.369476 -4.096173 0
M  V30 63 H -0.204306 -4.432216 1.824574 0
M  V30 64 H 1.372763 -3.176287 3.243160 0
M  V30 65 H 1.302770 1.643592 3.431589 0
M  V30 66 H 3.919358 0.782266 3.169870 0
M  V30 67 H 3.278910 1.701332 4.525751 0
M  V30 68 H 4.089679 2.627047 3.271730 0
M  V30 END ATOM
M  V30 BEGIN BOND
M  V30 1 1 1 2
M  V30 2 1 2 3
M  V30 3 2 3 4
M  V30 4 1 4 5
M  V30 5 2 5 6
M  V30 6 1 5 7
M  V30 7 1 7 8
M  V30 8 1 7 9
M  V30 9 1 9 10
M  V30 10 1 9 11
M  V30 11 1 11 12
M  V30 12 2 12 13
M  V30 13 1 13 14
M  V30 14 2 14 15
M  V30 15 1 15 16
M  V30 16 1 16 17
M  V30 17 1 17 18
M  V30 18 1 18 19
M  V30 19 1 19 20
M  V30 20 1 20 21
M  V30 21 1 21 22
M  V30 22 1 22 23
M  V30 23 1 22 24
M  V30 24 1 24 25
M  V30 25 2 16 26
M  V30 26 1 26 27
M  V30 27 1 27 28
M  V30 28 2 27 29
M  V30 29 1 29 30
M  V30 30 2 30 31
M  V30 31 1 30 32
M  V30 32 1 32 33
M  V30 33 1 33 34
M  V30 34 1 33 2
M  V30 35 1 29 14
M  V30 36 1 1 35
M  V30 37 1 1 36
M  V30 38 1 1 37
M  V30 39 1 2 38 CFG=1
M  V30 40 1 3 39
M  V30 41 1 4 40
M  V30 42 1 7 41 CFG=1
M  V30 43 1 8 42
M  V30 44 1 9 43 CFG=3
M  V30 45 1 10 44
M  V30 46 1 11 45
M  V30 47 1 11 46
M  V30 48 1 12 47
M  V30 49 1 13 48
M  V30 50 1 15 49
M  V30 51 1 17 50
M  V30 52 1 18 51
M  V30 53 1 18 52
M  V30 54 1 19 53
M  V30 55 1 19 54
M  V30 56 1 20 55
M  V30 57 1 21 56
M  V30 58 1 21 57
M  V30 59 1 22 58
M  V30 60 1 23 59
M  V30 61 1 24 60
M  V30 62 1 24 61
M  V30 63 1 25 62
M  V30 64 1 26 63
M  V30 65 1 28 64
M  V30 66 1 33 65 CFG=1
M  V30 67 1 34 66
M  V30 68 1 34 67
M  V30 69 1 34 68
M  V30 END BOND
M  V30 END CTAB
M  END
>  <Dataset>  (466) 
ChEMBL_Kinases

>  <Ligand_Instance>  (466) 
nan

>  <PDB_ID>  (466) 
nan

>  <Standardized_SMILES>  (466) 
C[C@@H]1/C=C\C(=O)[C@@H](O)[C@@H](O)C/C=C/c2cc(NCCNCC(O)CO)cc(O)c2C(=O)O[C@H]1C

>  <Name>  (466) 
nan

>  <Pocket>  (466) 
nan

>  <ATP_Site>  (466) 
nan

>  <Peripheral>  (466) 
nan

>  <Num_H_Atoms_ProtBoundConf>  (466) 
nan

>  <Num_Resolved_Atoms>  (466) 
nan

>  <Num_Not_Resolved_Atoms>  (466) 
nan

$$$$
CHEMBL4060062
     RDKit          3D

  0  0  0  0  0  0  0  0  0  0999 V3000
M  V30 BEGIN CTAB
M  V30 COUNTS 42 45 0 0 0
M  V30 BEGIN ATOM
M  V30 1 O 2.288001 -6.384721 0.427088 0
M  V30 2 C 2.612658 -5.343469 1.104657 0
M  V30 3 N 2.762451 -5.183405 2.500051 0
M  V30 4 C 3.131427 -3.904855 2.925405 0
M  V30 5 S 3.865885 -3.534172 4.360725 0
M  V30 6 S 2.607374 -2.850374 1.547069 0
M  V30 7 C 2.858995 -4.168347 0.313911 0
M  V30 8 C 3.192364 -3.813672 -0.895102 0
M  V30 9 C 3.357203 -2.435600 -1.375759 0
M  V30 10 C 4.394206 -1.919969 -2.216085 0
M  V30 11 S 3.894705 -0.121447 -2.387506 0
M  V30 12 C 2.388312 -0.425306 -1.293405 0
M  V30 13 C 1.473834 0.765584 -1.026187 0
M  V30 14 C 1.746854 2.012213 -1.531690 0
M  V30 15 C 0.775733 2.963038 -1.203033 0
M  V30 16 C -0.325999 2.626870 -0.445415 0
M  V30 17 C -0.537357 1.350181 0.030240 0
M  V30 18 N -1.708996 1.089943 0.788999 0
M  V30 19 C -2.639677 2.035710 1.317075 0
M  V30 20 C -2.937892 1.841566 2.761661 0
M  V30 21 C -2.133861 0.752352 3.427746 0
M  V30 22 C -2.167143 -0.529402 2.603930 0
M  V30 23 C -2.187446 -0.243936 1.138482 0
M  V30 24 C 0.387114 0.395267 -0.267583 0
M  V30 25 N 2.493051 -1.503055 -1.058680 0
M  V30 26 H 2.587570 -6.049581 3.098130 0
M  V30 27 H 3.340859 -4.703617 -1.527252 0
M  V30 28 H 5.188994 -2.677587 -2.529102 0
M  V30 29 H 2.639934 2.166853 -2.113627 0
M  V30 30 H 0.959497 3.976639 -1.589109 0
M  V30 31 H -0.980137 3.483233 -0.281705 0
M  V30 32 H -2.415606 3.103313 1.077552 0
M  V30 33 H -3.607698 1.843795 0.753208 0
M  V30 34 H -4.017591 1.563961 2.920373 0
M  V30 35 H -2.777713 2.761562 3.371319 0
M  V30 36 H -2.593469 0.499386 4.402741 0
M  V30 37 H -1.100594 1.044022 3.643429 0
M  V30 38 H -3.069324 -1.114787 2.859711 0
M  V30 39 H -1.255830 -1.114370 2.914219 0
M  V30 40 H -1.626447 -1.055993 0.629700 0
M  V30 41 H -3.243628 -0.379287 0.757083 0
M  V30 42 H 0.244277 -0.611078 0.098451 0
M  V30 END ATOM
M  V30 BEGIN BOND
M  V30 1 2 1 2
M  V30 2 1 2 3
M  V30 3 1 3 4
M  V30 4 2 4 5
M  V30 5 1 4 6
M  V30 6 1 6 7
M  V30 7 2 7 8
M  V30 8 1 8 9
M  V30 9 2 9 10
M  V30 10 1 10 11
M  V30 11 1 11 12
M  V30 12 1 12 13
M  V30 13 2 13 14
M  V30 14 1 14 15
M  V30 15 2 15 16
M  V30 16 1 16 17
M  V30 17 1 17 18
M  V30 18 1 18 19
M  V30 19 1 19 20
M  V30 20 1 20 21
M  V30 21 1 21 22
M  V30 22 1 22 23
M  V30 23 2 17 24
M  V30 24 2 12 25
M  V30 25 1 7 2
M  V30 26 1 25 9
M  V30 27 1 24 13
M  V30 28 1 23 18
M  V30 29 1 3 26
M  V30 30 1 8 27
M  V30 31 1 10 28
M  V30 32 1 14 29
M  V30 33 1 15 30
M  V30 34 1 16 31
M  V30 35 1 19 32
M  V30 36 1 19 33
M  V30 37 1 20 34
M  V30 38 1 20 35
M  V30 39 1 21 36
M  V30 40 1 21 37
M  V30 41 1 22 38
M  V30 42 1 22 39
M  V30 43 1 23 40
M  V30 44 1 23 41
M  V30 45 1 24 42
M  V30 END BOND
M  V30 END CTAB
M  END
>  <Dataset>  (467) 
ChEMBL_Kinases

>  <Ligand_Instance>  (467) 
nan

>  <PDB_ID>  (467) 
nan

>  <Standardized_SMILES>  (467) 
O=C1NC(=S)S/C1=C\c1csc(-c2cccc(N3CCCCC3)c2)n1

>  <Name>  (467) 
nan

>  <Pocket>  (467) 
nan

>  <ATP_Site>  (467) 
nan

>  <Peripheral>  (467) 
nan

>  <Num_H_Atoms_ProtBoundConf>  (467) 
nan

>  <Num_Resolved_Atoms>  (467) 
nan

>  <Num_Not_Resolved_Atoms>  (467) 
nan

$$$$
CHEMBL4060057
     RDKit          3D

  0  0  0  0  0  0  0  0  0  0999 V3000
M  V30 BEGIN CTAB
M  V30 COUNTS 56 59 0 0 0
M  V30 BEGIN ATOM
M  V30 1 C 6.321738 -0.669270 2.435272 0
M  V30 2 N 6.466347 -0.985374 1.019256 0
M  V30 3 C 5.799206 -1.979464 0.243172 0
M  V30 4 C 4.616377 -1.702951 -0.402963 0
M  V30 5 C 3.920150 -2.614923 -1.167350 0
M  V30 6 C 2.628115 -2.332434 -1.858507 0
M  V30 7 C 1.578113 -1.714710 -1.018421 0
M  V30 8 O 0.537273 -1.455363 -1.713238 0
M  V30 9 N 1.533275 -1.385122 0.336360 0
M  V30 10 C 0.528300 -0.795368 1.114098 0
M  V30 11 C -0.713978 -0.384848 0.692175 0
M  V30 12 C -1.693209 0.194322 1.468410 0
M  V30 13 C -2.976226 0.587244 0.898624 0
M  V30 14 O -3.190286 0.393827 -0.317842 0
M  V30 15 N -3.988708 1.180693 1.676187 0
M  V30 16 C -5.159000 1.476358 0.884961 0
M  V30 17 C -5.395088 2.665236 0.205819 0
M  V30 18 C -6.574474 2.789048 -0.511328 0
M  V30 19 C -7.502026 1.760960 -0.557544 0
M  V30 20 Cl -8.992432 1.971284 -1.488643 0
M  V30 21 C -7.268182 0.567043 0.122665 0
M  V30 22 C -8.282367 -0.537545 0.063059 0
M  V30 23 F -8.441184 -0.912019 -1.276787 0
M  V30 24 F -7.718723 -1.619220 0.712091 0
M  V30 25 F -9.490023 -0.147502 0.610286 0
M  V30 26 C -6.080719 0.446629 0.842782 0
M  V30 27 C -1.391057 0.377592 2.799341 0
M  V30 28 C -0.164785 -0.010044 3.292179 0
M  V30 29 C 0.764131 -0.583052 2.453476 0
M  V30 30 C 2.088730 -0.988033 3.045703 0
M  V30 31 C 2.217925 -3.360559 -2.866217 0
M  V30 32 C 2.695544 -2.019758 -3.315928 0
M  V30 33 N 4.479783 -3.836704 -1.252618 0
M  V30 34 C 5.624592 -4.142135 -0.641134 0
M  V30 35 N 6.301346 -3.231575 0.111215 0
M  V30 36 H 5.439435 -1.187388 2.863985 0
M  V30 37 H 7.216259 -1.118438 2.948228 0
M  V30 38 H 6.233686 0.425747 2.613002 0
M  V30 39 H 7.164440 -0.399150 0.478471 0
M  V30 40 H 4.253665 -0.711843 -0.293430 0
M  V30 41 H 2.427867 -1.659100 0.796958 0
M  V30 42 H -0.984278 -0.512505 -0.340802 0
M  V30 43 H -3.875931 1.369826 2.695038 0
M  V30 44 H -4.627747 3.405534 0.294762 0
M  V30 45 H -6.726419 3.742911 -1.035257 0
M  V30 46 H -5.941655 -0.495212 1.353948 0
M  V30 47 H -2.094361 0.823391 3.486363 0
M  V30 48 H 0.092952 0.124524 4.333106 0
M  V30 49 H 2.087446 -0.838350 4.124025 0
M  V30 50 H 2.205099 -2.092516 2.879217 0
M  V30 51 H 2.905320 -0.512727 2.484333 0
M  V30 52 H 2.877898 -4.215590 -3.115997 0
M  V30 53 H 1.138685 -3.601419 -2.957801 0
M  V30 54 H 3.718086 -1.898671 -3.726376 0
M  V30 55 H 1.895909 -1.364806 -3.739749 0
M  V30 56 H 6.138668 -5.092343 -0.657790 0
M  V30 END ATOM
M  V30 BEGIN BOND
M  V30 1 1 1 2
M  V30 2 1 2 3
M  V30 3 2 3 4
M  V30 4 1 4 5
M  V30 5 1 5 6
M  V30 6 1 6 7
M  V30 7 2 7 8
M  V30 8 1 7 9
M  V30 9 1 9 10
M  V30 10 2 10 11
M  V30 11 1 11 12
M  V30 12 1 12 13
M  V30 13 2 13 14
M  V30 14 1 13 15
M  V30 15 1 15 16
M  V30 16 2 16 17
M  V30 17 1 17 18
M  V30 18 2 18 19
M  V30 19 1 19 20
M  V30 20 1 19 21
M  V30 21 1 21 22
M  V30 22 1 22 23
M  V30 23 1 22 24
M  V30 24 1 22 25
M  V30 25 2 21 26
M  V30 26 2 12 27
M  V30 27 1 27 28
M  V30 28 2 28 29
M  V30 29 1 29 30
M  V30 30 1 6 31
M  V30 31 1 31 32
M  V30 32 2 5 33
M  V30 33 1 33 34
M  V30 34 2 34 35
M  V30 35 1 35 3
M  V30 36 1 32 6
M  V30 37 1 29 10
M  V30 38 1 26 16
M  V30 39 1 1 36
M  V30 40 1 1 37
M  V30 41 1 1 38
M  V30 42 1 2 39
M  V30 43 1 4 40
M  V30 44 1 9 41
M  V30 45 1 11 42
M  V30 46 1 15 43
M  V30 47 1 17 44
M  V30 48 1 18 45
M  V30 49 1 26 46
M  V30 50 1 27 47
M  V30 51 1 28 48
M  V30 52 1 30 49
M  V30 53 1 30 50
M  V30 54 1 30 51
M  V30 55 1 31 52
M  V30 56 1 31 53
M  V30 57 1 32 54
M  V30 58 1 32 55
M  V30 59 1 34 56
M  V30 END BOND
M  V30 END CTAB
M  END
>  <Dataset>  (468) 
ChEMBL_Kinases

>  <Ligand_Instance>  (468) 
nan

>  <PDB_ID>  (468) 
nan

>  <Standardized_SMILES>  (468) 
CNc1cc(C2(C(=O)Nc3cc(C(=O)Nc4ccc(Cl)c(C(F)(F)F)c4)ccc3C)CC2)ncn1

>  <Name>  (468) 
nan

>  <Pocket>  (468) 
nan

>  <ATP_Site>  (468) 
nan

>  <Peripheral>  (468) 
nan

>  <Num_H_Atoms_ProtBoundConf>  (468) 
nan

>  <Num_Resolved_Atoms>  (468) 
nan

>  <Num_Not_Resolved_Atoms>  (468) 
nan

$$$$
CHEMBL4060050
     RDKit          3D

  0  0  0  0  0  0  0  0  0  0999 V3000
M  V30 BEGIN CTAB
M  V30 COUNTS 51 54 0 0 0
M  V30 BEGIN ATOM
M  V30 1 C 0.402315 -7.422837 2.779269 0
M  V30 2 O 1.514013 -6.650155 2.608723 0
M  V30 3 C 1.290761 -5.599595 1.714497 0
M  V30 4 C 2.618722 -4.854906 1.550217 0
M  V30 5 N 2.373718 -3.772912 0.613212 0
M  V30 6 C 1.949961 -2.574869 1.254764 0
M  V30 7 O 2.083568 -2.362724 2.488332 0
M  V30 8 C 1.320930 -1.494457 0.507860 0
M  V30 9 C 0.779424 -0.212237 0.679058 0
M  V30 10 C 0.336312 0.258021 -0.585410 0
M  V30 11 C -0.206531 1.546535 -0.347323 0
M  V30 12 C -0.473954 1.932506 -1.717617 0
M  V30 13 C -1.001904 3.131435 -2.255380 0
M  V30 14 N -1.328687 4.111877 -1.350986 0
M  V30 15 C -1.091680 3.781213 -0.041118 0
M  V30 16 N -1.398478 4.651187 1.017075 0
M  V30 17 C -2.548970 4.538002 1.826096 0
M  V30 18 C -3.606051 3.659038 1.893510 0
M  V30 19 C -4.544380 3.908170 2.847871 0
M  V30 20 N -4.059884 5.031306 3.445525 0
M  V30 21 N -2.918940 5.377852 2.851538 0
M  V30 22 C -2.145352 6.551805 3.225751 0
M  V30 23 N -0.613792 2.644179 0.136891 0
M  V30 24 N 0.591041 -0.679782 -1.478611 0
M  V30 25 C 1.162542 -1.693540 -0.840587 0
M  V30 26 C 1.580844 -2.896246 -1.559159 0
M  V30 27 C 2.511206 -3.763087 -0.810468 0 CFG=2
M  V30 28 C 2.361649 -5.173264 -1.397353 0
M  V30 29 H 0.591303 -8.281459 3.491720 0
M  V30 30 H -0.473162 -6.885606 3.245530 0
M  V30 31 H 0.127073 -7.907862 1.819211 0
M  V30 32 H 0.612068 -4.807203 2.130848 0
M  V30 33 H 0.878194 -5.898390 0.746870 0
M  V30 34 H 2.906369 -4.479355 2.550784 0
M  V30 35 H 3.402052 -5.508988 1.144360 0
M  V30 36 H 0.830159 0.101699 1.744173 0
M  V30 37 H -0.339308 1.405250 -2.709243 0
M  V30 38 H -1.223536 3.473477 -3.271286 0
M  V30 39 H -0.749717 5.463909 1.239335 0
M  V30 40 H -3.705133 2.809659 1.230747 0
M  V30 41 H -5.442829 3.383244 3.095349 0
M  V30 42 H -2.543040 6.969387 4.170889 0
M  V30 43 H -1.081127 6.269936 3.325574 0
M  V30 44 H -2.277993 7.286431 2.386070 0
M  V30 45 H 0.317640 -0.465612 -2.453944 0
M  V30 46 H 0.681318 -3.484165 -1.902046 0
M  V30 47 H 2.090712 -2.620952 -2.532605 0
M  V30 48 H 3.573508 -3.459013 -1.048187 0
M  V30 49 H 2.906821 -5.138261 -2.376831 0
M  V30 50 H 2.917037 -5.886570 -0.780184 0
M  V30 51 H 1.310890 -5.438780 -1.578651 0
M  V30 END ATOM
M  V30 BEGIN BOND
M  V30 1 1 1 2
M  V30 2 1 2 3
M  V30 3 1 3 4
M  V30 4 1 4 5
M  V30 5 1 5 6
M  V30 6 2 6 7
M  V30 7 1 6 8
M  V30 8 1 8 9
M  V30 9 2 9 10
M  V30 10 1 10 11
M  V30 11 2 11 12
M  V30 12 1 12 13
M  V30 13 2 13 14
M  V30 14 1 14 15
M  V30 15 1 15 16
M  V30 16 1 16 17
M  V30 17 2 17 18
M  V30 18 1 18 19
M  V30 19 2 19 20
M  V30 20 1 20 21
M  V30 21 1 21 22
M  V30 22 2 15 23
M  V30 23 1 10 24
M  V30 24 1 24 25
M  V30 25 1 25 26
M  V30 26 1 26 27
M  V30 27 1 27 28
M  V30 28 1 27 5
M  V30 29 2 25 8
M  V30 30 1 23 11
M  V30 31 1 21 17
M  V30 32 1 1 29
M  V30 33 1 1 30
M  V30 34 1 1 31
M  V30 35 1 3 32
M  V30 36 1 3 33
M  V30 37 1 4 34
M  V30 38 1 4 35
M  V30 39 1 9 36
M  V30 40 1 12 37
M  V30 41 1 13 38
M  V30 42 1 16 39
M  V30 43 1 18 40
M  V30 44 1 19 41
M  V30 45 1 22 42
M  V30 46 1 22 43
M  V30 47 1 22 44
M  V30 48 1 24 45
M  V30 49 1 26 46
M  V30 50 1 26 47
M  V30 51 1 27 48 CFG=1
M  V30 52 1 28 49
M  V30 53 1 28 50
M  V30 54 1 28 51
M  V30 END BOND
M  V30 END CTAB
M  END
>  <Dataset>  (469) 
ChEMBL_Kinases

>  <Ligand_Instance>  (469) 
nan

>  <PDB_ID>  (469) 
nan

>  <Standardized_SMILES>  (469) 
COCCN1C(=O)c2cc(-c3ccnc(Nc4ccnn4C)n3)[nH]c2C[C@@H]1C

>  <Name>  (469) 
nan

>  <Pocket>  (469) 
nan

>  <ATP_Site>  (469) 
nan

>  <Peripheral>  (469) 
nan

>  <Num_H_Atoms_ProtBoundConf>  (469) 
nan

>  <Num_Resolved_Atoms>  (469) 
nan

>  <Num_Not_Resolved_Atoms>  (469) 
nan

$$$$
CHEMBL4060044
     RDKit          3D

  0  0  0  0  0  0  0  0  0  0999 V3000
M  V30 BEGIN CTAB
M  V30 COUNTS 36 39 0 0 0
M  V30 BEGIN ATOM
M  V30 1 C 1.775297 -5.614972 0.046693 0
M  V30 2 C 0.885886 -4.612595 -0.348190 0
M  V30 3 C 1.040002 -3.333211 0.091086 0
M  V30 4 C 2.054519 -2.968242 0.926481 0
M  V30 5 C 2.291895 -1.721438 1.418320 0
M  V30 6 C 1.740627 -0.392228 1.354168 0
M  V30 7 C 0.654716 0.076714 0.679543 0
M  V30 8 C 0.186261 1.363321 0.665176 0
M  V30 9 N -0.952006 1.772301 -0.063521 0
M  V30 10 C -1.819295 0.988346 -0.910864 0
M  V30 11 C -3.140430 0.828016 -0.153148 0
M  V30 12 O -3.399432 1.949285 0.629639 0
M  V30 13 C -2.918533 3.120306 0.044098 0
M  V30 14 C -1.385402 3.132003 -0.018591 0
M  V30 15 N 0.872990 2.259890 1.396248 0
M  V30 16 C 1.968014 1.861363 2.095507 0
M  V30 17 N 2.353588 0.578083 2.050097 0
M  V30 18 N 3.406146 -1.946294 2.176104 0
M  V30 19 N 3.763847 -3.208742 2.115634 0
M  V30 20 C 2.951225 -3.926096 1.338069 0
M  V30 21 C 2.796997 -5.223473 0.894110 0
M  V30 22 H 1.761425 -6.665515 -0.231568 0
M  V30 23 H 0.098233 -4.957216 -1.012415 0
M  V30 24 H 0.302676 -2.670457 -0.279212 0
M  V30 25 H 0.081983 -0.578855 0.093742 0
M  V30 26 H -2.011383 1.511446 -1.886069 0
M  V30 27 H -1.462556 -0.043428 -1.098735 0
M  V30 28 H -3.125941 -0.077331 0.487253 0
M  V30 29 H -3.941879 0.669814 -0.900804 0
M  V30 30 H -3.340186 3.133074 -0.990464 0
M  V30 31 H -3.296784 3.971412 0.639825 0
M  V30 32 H -0.959190 3.728377 0.808423 0
M  V30 33 H -1.139950 3.630409 -0.992937 0
M  V30 34 H 2.548384 2.545507 2.694565 0
M  V30 35 H 4.042270 -1.370315 2.788477 0
M  V30 36 H 3.529652 -5.936131 1.248242 0
M  V30 END ATOM
M  V30 BEGIN BOND
M  V30 1 1 1 2
M  V30 2 2 2 3
M  V30 3 1 3 4
M  V30 4 2 4 5
M  V30 5 1 5 6
M  V30 6 2 6 7
M  V30 7 1 7 8
M  V30 8 1 8 9
M  V30 9 1 9 10
M  V30 10 1 10 11
M  V30 11 1 11 12
M  V30 12 1 12 13
M  V30 13 1 13 14
M  V30 14 2 8 15
M  V30 15 1 15 16
M  V30 16 2 16 17
M  V30 17 1 5 18
M  V30 18 1 18 19
M  V30 19 2 19 20
M  V30 20 1 20 21
M  V30 21 2 21 1
M  V30 22 1 20 4
M  V30 23 1 17 6
M  V30 24 1 14 9
M  V30 25 1 1 22
M  V30 26 1 2 23
M  V30 27 1 3 24
M  V30 28 1 7 25
M  V30 29 1 10 26
M  V30 30 1 10 27
M  V30 31 1 11 28
M  V30 32 1 11 29
M  V30 33 1 13 30
M  V30 34 1 13 31
M  V30 35 1 14 32
M  V30 36 1 14 33
M  V30 37 1 16 34
M  V30 38 1 18 35
M  V30 39 1 21 36
M  V30 END BOND
M  V30 END CTAB
M  END
>  <Dataset>  (470) 
ChEMBL_Kinases

>  <Ligand_Instance>  (470) 
nan

>  <PDB_ID>  (470) 
nan

>  <Standardized_SMILES>  (470) 
c1ccc2c(-c3cc(N4CCOCC4)ncn3)[nH]nc2c1

>  <Name>  (470) 
nan

>  <Pocket>  (470) 
nan

>  <ATP_Site>  (470) 
nan

>  <Peripheral>  (470) 
nan

>  <Num_H_Atoms_ProtBoundConf>  (470) 
nan

>  <Num_Resolved_Atoms>  (470) 
nan

>  <Num_Not_Resolved_Atoms>  (470) 
nan

$$$$
CHEMBL4863646
     RDKit          3D

  0  0  0  0  0  0  0  0  0  0999 V3000
M  V30 BEGIN CTAB
M  V30 COUNTS 37 39 0 0 0
M  V30 BEGIN ATOM
M  V30 1 O 0.584427 -1.725328 4.950760 0
M  V30 2 N 1.142076 -2.741468 4.484460 0 CHG=1 VAL=4
M  V30 3 O 1.300603 -3.830626 5.308724 0 CHG=-1 VAL=1
M  V30 4 C 1.598010 -2.757425 3.129156 0
M  V30 5 C 2.210332 -3.912557 2.664661 0
M  V30 6 C 2.648336 -3.923110 1.356959 0
M  V30 7 C 2.482962 -2.824819 0.542170 0
M  V30 8 N 2.946857 -2.935874 -0.724347 0
M  V30 9 C 2.821593 -1.891483 -1.595838 0
M  V30 10 C 2.209170 -0.758030 -1.104310 0
M  V30 11 C 1.710096 -0.561106 0.164214 0
M  V30 12 N 1.112232 0.617202 0.613191 0
M  V30 13 C 0.868746 1.821849 -0.142769 0
M  V30 14 C -0.165265 1.702928 -1.209993 0
M  V30 15 C -1.496133 1.314567 -0.643880 0
M  V30 16 C -2.465880 2.198882 -0.210559 0
M  V30 17 C -3.658644 1.723233 0.294549 0
M  V30 18 C -3.910197 0.368715 0.378719 0
M  V30 19 C -2.981098 -0.568693 -0.038046 0
M  V30 20 C -1.795583 -0.041841 -0.539119 0
M  V30 21 C 1.880038 -1.662495 0.969795 0
M  V30 22 C 1.453367 -1.681455 2.278562 0
M  V30 23 H 2.373853 -4.809937 3.244816 0
M  V30 24 H 3.137330 -4.828217 0.965230 0
M  V30 25 H 3.195767 -1.995645 -2.600003 0
M  V30 26 H 2.157788 0.023662 -1.847551 0
M  V30 27 H 0.780812 0.705867 1.589731 0
M  V30 28 H 1.813065 2.160531 -0.660855 0
M  V30 29 H 0.570444 2.672238 0.502721 0
M  V30 30 H -0.319036 2.749808 -1.606625 0
M  V30 31 H 0.052799 1.009309 -2.033043 0
M  V30 32 H -2.236750 3.253200 -0.290421 0
M  V30 33 H -4.400925 2.439956 0.626936 0
M  V30 34 H -4.857662 -0.017627 0.779798 0
M  V30 35 H -3.105089 -1.645269 -0.003845 0
M  V30 36 H -1.035503 -0.753654 -0.879086 0
M  V30 37 H 0.974710 -0.851716 2.728107 0
M  V30 END ATOM
M  V30 BEGIN BOND
M  V30 1 2 1 2
M  V30 2 1 2 3
M  V30 3 1 2 4
M  V30 4 2 4 5
M  V30 5 1 5 6
M  V30 6 2 6 7
M  V30 7 1 7 8
M  V30 8 2 8 9
M  V30 9 1 9 10
M  V30 10 2 10 11
M  V30 11 1 11 12
M  V30 12 1 12 13
M  V30 13 1 13 14
M  V30 14 1 14 15
M  V30 15 2 15 16
M  V30 16 1 16 17
M  V30 17 2 17 18
M  V30 18 1 18 19
M  V30 19 2 19 20
M  V30 20 1 11 21
M  V30 21 2 21 22
M  V30 22 1 22 4
M  V30 23 1 21 7
M  V30 24 1 20 15
M  V30 25 1 5 23
M  V30 26 1 6 24
M  V30 27 1 9 25
M  V30 28 1 10 26
M  V30 29 1 12 27
M  V30 30 1 13 28
M  V30 31 1 13 29
M  V30 32 1 14 30
M  V30 33 1 14 31
M  V30 34 1 16 32
M  V30 35 1 17 33
M  V30 36 1 18 34
M  V30 37 1 19 35
M  V30 38 1 20 36
M  V30 39 1 22 37
M  V30 END BOND
M  V30 END CTAB
M  END
>  <Dataset>  (471) 
ChEMBL_Kinases

>  <Ligand_Instance>  (471) 
nan

>  <PDB_ID>  (471) 
nan

>  <Standardized_SMILES>  (471) 
O=[N+]([O-])c1ccc2nccc(NCCc3ccccc3)c2c1

>  <Name>  (471) 
nan

>  <Pocket>  (471) 
nan

>  <ATP_Site>  (471) 
nan

>  <Peripheral>  (471) 
nan

>  <Num_H_Atoms_ProtBoundConf>  (471) 
nan

>  <Num_Resolved_Atoms>  (471) 
nan

>  <Num_Not_Resolved_Atoms>  (471) 
nan

$$$$
CHEMBL4863657
     RDKit          3D

  0  0  0  0  0  0  0  0  0  0999 V3000
M  V30 BEGIN CTAB
M  V30 COUNTS 73 78 0 0 0
M  V30 BEGIN ATOM
M  V30 1 C 2.034036 -0.456625 3.535687 0
M  V30 2 C 3.030238 -1.570368 3.492816 0
M  V30 3 C 2.758033 -2.608732 2.436031 0 CFG=1
M  V30 4 O 3.701859 -3.634006 2.410164 0
M  V30 5 C 1.416419 -3.302874 2.682777 0
M  V30 6 C 1.249808 -3.990247 1.318751 0
M  V30 7 C 1.649120 -2.874473 0.394066 0
M  V30 8 C 1.283694 -2.574313 -0.898630 0
M  V30 9 C 1.837852 -1.444987 -1.455664 0
M  V30 10 C 2.735478 -0.618841 -0.764395 0
M  V30 11 N 3.104027 0.475848 -1.606903 0
M  V30 12 C 2.161017 1.477444 -1.659847 0
M  V30 13 N 0.937655 1.710052 -1.095487 0
M  V30 14 C 0.183421 2.796163 -1.309685 0
M  V30 15 N -0.937329 2.516257 -0.478327 0
M  V30 16 C -2.095587 1.706292 -0.612773 0
M  V30 17 C -1.807192 0.542176 0.126438 0
M  V30 18 C -2.713439 -0.516819 0.244547 0
M  V30 19 C -3.952898 -0.417353 -0.394437 0
M  V30 20 N -4.900914 -1.471068 -0.319610 0
M  V30 21 C -6.347508 -1.389051 -0.573774 0
M  V30 22 C -7.063793 -1.813182 0.692285 0
M  V30 23 N -6.202578 -2.319498 1.716515 0
M  V30 24 C -5.588817 -1.297504 2.538310 0
M  V30 25 C -5.241956 -3.299061 1.274830 0
M  V30 26 C -4.561221 -2.839678 0.015823 0
M  V30 27 C -4.213099 0.730138 -1.110618 0
M  V30 28 C -3.324837 1.775915 -1.230625 0
M  V30 29 N 0.614612 3.761595 -2.133378 0
M  V30 30 C 1.828944 3.610616 -2.739926 0
M  V30 31 C 2.599129 2.492223 -2.514986 0
M  V30 32 C 3.822145 2.033843 -2.943685 0
M  V30 33 O 4.588610 2.629191 -3.734738 0
M  V30 34 N 4.103261 0.840651 -2.396064 0
M  V30 35 C 5.216536 -0.053510 -2.502348 0
M  V30 36 C 6.179278 0.325883 -1.417506 0
M  V30 37 C 6.412832 1.138825 -0.417339 0
M  V30 38 F 7.475055 1.231088 0.445996 0
M  V30 39 F 5.335744 1.936997 -0.380814 0
M  V30 40 N 3.066748 -0.950374 0.498039 0
M  V30 41 C 2.543540 -2.056190 1.086989 0
M  V30 42 H 2.524843 0.365083 4.135550 0
M  V30 43 H 1.136298 -0.757529 4.109632 0
M  V30 44 H 1.796967 -0.033014 2.539530 0
M  V30 45 H 2.941502 -2.109198 4.474316 0
M  V30 46 H 4.051483 -1.185441 3.447611 0
M  V30 47 H 3.887044 -3.936871 1.482590 0
M  V30 48 H 0.589565 -2.558539 2.742655 0
M  V30 49 H 1.440183 -4.012923 3.510591 0
M  V30 50 H 2.005171 -4.789312 1.250317 0
M  V30 51 H 0.209603 -4.318729 1.157774 0
M  V30 52 H 0.590324 -3.236865 -1.395433 0
M  V30 53 H 1.477464 -1.300518 -2.489513 0
M  V30 54 H -0.745872 3.086911 0.371211 0
M  V30 55 H -0.909520 0.263277 0.694491 0
M  V30 56 H -2.563330 -1.430467 0.791092 0
M  V30 57 H -6.604025 -0.349139 -0.836756 0
M  V30 58 H -6.637422 -2.085875 -1.385287 0
M  V30 59 H -7.798406 -2.608931 0.452894 0
M  V30 60 H -7.587320 -0.925426 1.134868 0
M  V30 61 H -4.500738 -1.573845 2.639887 0
M  V30 62 H -5.972689 -1.321735 3.578931 0
M  V30 63 H -5.700113 -0.307053 2.099354 0
M  V30 64 H -4.527130 -3.441970 2.115871 0
M  V30 65 H -5.747584 -4.265892 1.112270 0
M  V30 66 H -3.474726 -3.042145 0.025439 0
M  V30 67 H -4.958356 -3.473439 -0.831381 0
M  V30 68 H -5.130996 0.892086 -1.628676 0
M  V30 69 H -3.379532 2.704439 -1.735158 0
M  V30 70 H 2.176822 4.381408 -3.401017 0
M  V30 71 H 4.958804 -1.115971 -2.459496 0
M  V30 72 H 5.751498 0.103103 -3.465909 0
M  V30 73 H 7.023000 -0.353547 -1.493623 0
M  V30 END ATOM
M  V30 BEGIN BOND
M  V30 1 1 1 2
M  V30 2 1 2 3
M  V30 3 1 3 4 CFG=3
M  V30 4 1 3 5
M  V30 5 1 5 6
M  V30 6 1 6 7
M  V30 7 2 7 8
M  V30 8 1 8 9
M  V30 9 2 9 10
M  V30 10 1 10 11
M  V30 11 1 11 12
M  V30 12 2 12 13
M  V30 13 1 13 14
M  V30 14 1 14 15
M  V30 15 1 15 16
M  V30 16 2 16 17
M  V30 17 1 17 18
M  V30 18 2 18 19
M  V30 19 1 19 20
M  V30 20 1 20 21
M  V30 21 1 21 22
M  V30 22 1 22 23
M  V30 23 1 23 24
M  V30 24 1 23 25
M  V30 25 1 25 26
M  V30 26 1 19 27
M  V30 27 2 27 28
M  V30 28 2 14 29
M  V30 29 1 29 30
M  V30 30 2 30 31
M  V30 31 1 31 32
M  V30 32 2 32 33
M  V30 33 1 32 34
M  V30 34 1 34 35
M  V30 35 1 35 36
M  V30 36 2 36 37 CFG=2
M  V30 37 1 37 38
M  V30 38 1 37 39
M  V30 39 1 10 40
M  V30 40 2 40 41
M  V30 41 1 41 3
M  V30 42 1 41 7
M  V30 43 1 34 11
M  V30 44 1 31 12
M  V30 45 1 28 16
M  V30 46 1 26 20
M  V30 47 1 1 42
M  V30 48 1 1 43
M  V30 49 1 1 44
M  V30 50 1 2 45
M  V30 51 1 2 46
M  V30 52 1 4 47
M  V30 53 1 5 48
M  V30 54 1 5 49
M  V30 55 1 6 50
M  V30 56 1 6 51
M  V30 57 1 8 52
M  V30 58 1 9 53
M  V30 59 1 15 54
M  V30 60 1 17 55
M  V30 61 1 18 56
M  V30 62 1 21 57
M  V30 63 1 21 58
M  V30 64 1 22 59
M  V30 65 1 22 60
M  V30 66 1 24 61
M  V30 67 1 24 62
M  V30 68 1 24 63
M  V30 69 1 25 64
M  V30 70 1 25 65
M  V30 71 1 26 66
M  V30 72 1 26 67
M  V30 73 1 27 68
M  V30 74 1 28 69
M  V30 75 1 30 70
M  V30 76 1 35 71
M  V30 77 1 35 72
M  V30 78 1 36 73
M  V30 END BOND
M  V30 END CTAB
M  END
>  <Dataset>  (472) 
ChEMBL_Kinases

>  <Ligand_Instance>  (472) 
nan

>  <PDB_ID>  (472) 
nan

>  <Standardized_SMILES>  (472) 
CC[C@@]1(O)CCc2ccc(-n3c4nc(Nc5ccc(N6CCN(C)CC6)cc5)ncc4c(=O)n3CC=C(F)F)nc21

>  <Name>  (472) 
nan

>  <Pocket>  (472) 
nan

>  <ATP_Site>  (472) 
nan

>  <Peripheral>  (472) 
nan

>  <Num_H_Atoms_ProtBoundConf>  (472) 
nan

>  <Num_Resolved_Atoms>  (472) 
nan

>  <Num_Not_Resolved_Atoms>  (472) 
nan

$$$$
CHEMBL4863698
     RDKit          3D

  0  0  0  0  0  0  0  0  0  0999 V3000
M  V30 BEGIN CTAB
M  V30 COUNTS 54 56 0 0 0
M  V30 BEGIN ATOM
M  V30 1 C 7.142077 -3.389016 3.524444 0
M  V30 2 C 7.028856 -2.346747 2.439991 0
M  V30 3 N 5.660465 -1.943553 2.197635 0
M  V30 4 C 4.944870 -1.370507 3.282737 0
M  V30 5 O 5.588520 -1.271063 4.363428 0
M  V30 6 C 3.571779 -0.899898 3.261020 0
M  V30 7 C 2.849770 -1.001605 2.090416 0
M  V30 8 C 1.542894 -0.561977 2.044849 0
M  V30 9 C 0.613032 -0.578891 0.922032 0
M  V30 10 C -0.117371 0.570370 0.689120 0
M  V30 11 C -1.043144 0.755869 -0.317360 0
M  V30 12 C -1.236533 -0.342431 -1.163760 0
M  V30 13 N -2.185814 -0.245769 -2.247384 0
M  V30 14 C -3.511989 -0.647185 -1.900157 0
M  V30 15 O -3.478408 -0.994038 -0.670363 0
M  V30 16 C -4.525140 -0.567389 -2.975447 0 CFG=2
M  V30 17 O -4.006719 -0.106257 -4.184014 0
M  V30 18 C -5.678184 0.258383 -2.533605 0
M  V30 19 C -6.544470 0.497563 -3.604132 0
M  V30 20 C -7.702846 1.247098 -3.455085 0
M  V30 21 F -8.570092 1.508325 -4.447224 0
M  V30 22 C -7.986876 1.759395 -2.210173 0
M  V30 23 C -7.139042 1.529439 -1.147052 0
M  V30 24 F -7.302236 1.977571 0.134765 0
M  V30 25 C -5.988506 0.784345 -1.297466 0
M  V30 26 C -0.530601 -1.513370 -0.972294 0
M  V30 27 C 0.381889 -1.628911 0.057409 0
M  V30 28 C 1.153772 -2.868568 0.292533 0
M  V30 29 C 1.029147 -0.026416 3.232393 0
M  V30 30 N 1.771171 0.052649 4.350696 0
M  V30 31 C 3.063012 -0.376512 4.413916 0
M  V30 32 N 3.805447 -0.270293 5.623029 0
M  V30 33 H 6.249902 -4.051056 3.499288 0
M  V30 34 H 8.009025 -4.030946 3.281606 0
M  V30 35 H 7.285069 -2.950616 4.518991 0
M  V30 36 H 7.704102 -1.486532 2.662895 0
M  V30 37 H 7.391402 -2.805913 1.489040 0
M  V30 38 H 5.144491 -2.033749 1.295585 0
M  V30 39 H 3.212049 -1.404830 1.164109 0
M  V30 40 H 0.016655 1.434666 1.333526 0
M  V30 41 H -1.578238 1.679678 -0.442278 0
M  V30 42 H -1.839319 0.101118 -3.177777 0
M  V30 43 H -4.861801 -1.623941 -3.189967 0
M  V30 44 H -4.410553 0.728500 -4.501139 0
M  V30 45 H -6.427003 0.144214 -4.638720 0
M  V30 46 H -8.856312 2.365437 -1.938231 0
M  V30 47 H -5.242645 0.528961 -0.557976 0
M  V30 48 H -0.668440 -2.362541 -1.612837 0
M  V30 49 H 2.088278 -2.918552 -0.314628 0
M  V30 50 H 1.445535 -3.014917 1.342401 0
M  V30 51 H 0.493500 -3.727008 -0.013009 0
M  V30 52 H 0.004143 0.357473 3.326462 0
M  V30 53 H 4.173083 0.691391 5.864094 0
M  V30 54 H 3.959304 -1.134906 6.222371 0
M  V30 END ATOM
M  V30 BEGIN BOND
M  V30 1 1 1 2
M  V30 2 1 2 3
M  V30 3 1 3 4
M  V30 4 2 4 5
M  V30 5 1 4 6
M  V30 6 2 6 7
M  V30 7 1 7 8
M  V30 8 1 8 9
M  V30 9 2 9 10
M  V30 10 1 10 11
M  V30 11 2 11 12
M  V30 12 1 12 13
M  V30 13 1 13 14
M  V30 14 2 14 15
M  V30 15 1 14 16
M  V30 16 1 16 17
M  V30 17 1 16 18
M  V30 18 2 18 19
M  V30 19 1 19 20
M  V30 20 1 20 21
M  V30 21 2 20 22
M  V30 22 1 22 23
M  V30 23 1 23 24
M  V30 24 2 23 25
M  V30 25 1 12 26
M  V30 26 2 26 27
M  V30 27 1 27 28
M  V30 28 2 8 29
M  V30 29 1 29 30
M  V30 30 2 30 31
M  V30 31 1 31 32
M  V30 32 1 31 6
M  V30 33 1 27 9
M  V30 34 1 25 18
M  V30 35 1 1 33
M  V30 36 1 1 34
M  V30 37 1 1 35
M  V30 38 1 2 36
M  V30 39 1 2 37
M  V30 40 1 3 38
M  V30 41 1 7 39
M  V30 42 1 10 40
M  V30 43 1 11 41
M  V30 44 1 13 42
M  V30 45 1 16 43 CFG=3
M  V30 46 1 17 44
M  V30 47 1 19 45
M  V30 48 1 22 46
M  V30 49 1 25 47
M  V30 50 1 26 48
M  V30 51 1 28 49
M  V30 52 1 28 50
M  V30 53 1 28 51
M  V30 54 1 29 52
M  V30 55 1 32 53
M  V30 56 1 32 54
M  V30 END BOND
M  V30 END CTAB
M  END
>  <Dataset>  (473) 
ChEMBL_Kinases

>  <Ligand_Instance>  (473) 
nan

>  <PDB_ID>  (473) 
nan

>  <Standardized_SMILES>  (473) 
CCNC(=O)c1cc(-c2ccc(NC(=O)[C@H](O)c3cc(F)cc(F)c3)cc2C)cnc1N

>  <Name>  (473) 
nan

>  <Pocket>  (473) 
nan

>  <ATP_Site>  (473) 
nan

>  <Peripheral>  (473) 
nan

>  <Num_H_Atoms_ProtBoundConf>  (473) 
nan

>  <Num_Resolved_Atoms>  (473) 
nan

>  <Num_Not_Resolved_Atoms>  (473) 
nan

$$$$
CHEMBL97661
     RDKit          3D

  0  0  0  0  0  0  0  0  0  0999 V3000
M  V30 BEGIN CTAB
M  V30 COUNTS 63 63 0 0 0
M  V30 BEGIN ATOM
M  V30 1 C 3.109136 -3.377128 4.854250 0
M  V30 2 C 2.381480 -4.231153 3.865333 0
M  V30 3 C 1.722389 -3.521420 2.740667 0
M  V30 4 C 2.572427 -2.741389 1.810555 0
M  V30 5 C 3.352454 -1.630147 2.362198 0
M  V30 6 C 3.155915 -0.357287 1.931900 0
M  V30 7 C 2.220348 0.247245 0.907142 0
M  V30 8 C 3.060390 0.910504 -0.126936 0
M  V30 9 C 2.310873 1.580092 -1.244697 0
M  V30 10 C 1.489981 0.567662 -1.977570 0
M  V30 11 C 0.711276 1.091463 -3.114695 0
M  V30 12 C -0.299062 2.131862 -2.892368 0
M  V30 13 C -1.458925 1.855630 -2.021317 0
M  V30 14 C -1.223081 1.493712 -0.635186 0
M  V30 15 C -1.706441 0.335958 -0.184366 0
M  V30 16 C -2.477690 -0.611964 -1.027200 0
M  V30 17 C -2.942955 -1.691315 -0.062686 0
M  V30 18 C -2.160505 -2.964185 -0.339656 0
M  V30 19 O -0.791417 -2.722646 -0.266836 0
M  V30 20 C -4.415946 -1.904031 -0.183058 0
M  V30 21 O -5.117922 -0.722402 0.052807 0
M  V30 22 C -5.193721 -0.002408 1.202629 0
M  V30 23 C -6.044235 1.218010 1.048583 0
M  V30 24 O -4.653432 -0.260503 2.284967 0
M  V30 25 O -2.600559 -1.266614 1.213521 0
M  V30 26 C -1.625006 -0.256818 1.142924 0
M  V30 27 O -0.816570 0.096426 2.037507 0
M  V30 28 H 4.208561 -3.419532 4.653226 0
M  V30 29 H 2.910566 -3.793979 5.880320 0
M  V30 30 H 2.731035 -2.345937 4.860869 0
M  V30 31 H 1.591685 -4.804316 4.410940 0
M  V30 32 H 3.109739 -5.014961 3.505294 0
M  V30 33 H 1.223909 -4.321103 2.106194 0
M  V30 34 H 0.929395 -2.840714 3.145732 0
M  V30 35 H 1.972830 -2.439160 0.917199 0
M  V30 36 H 3.324502 -3.486794 1.385219 0
M  V30 37 H 4.130239 -1.664199 3.106609 0
M  V30 38 H 3.757920 0.471329 2.354145 0
M  V30 39 H 1.522441 -0.515143 0.536368 0
M  V30 40 H 1.677008 1.066638 1.462014 0
M  V30 41 H 3.689782 1.663081 0.397142 0
M  V30 42 H 3.797157 0.176103 -0.567672 0
M  V30 43 H 1.731092 2.446649 -0.880103 0
M  V30 44 H 3.041915 1.994775 -1.966233 0
M  V30 45 H 0.885922 -0.084315 -1.323077 0
M  V30 46 H 2.250567 -0.151896 -2.419578 0
M  V30 47 H 1.446087 1.507953 -3.868783 0
M  V30 48 H 0.281248 0.206767 -3.663001 0
M  V30 49 H 0.222253 3.092565 -2.643909 0
M  V30 50 H -0.740610 2.361862 -3.915320 0
M  V30 51 H -2.059343 2.821276 -1.989567 0
M  V30 52 H -2.201426 1.150690 -2.508017 0
M  V30 53 H -0.676066 2.110443 0.056816 0
M  V30 54 H -1.942706 -1.005880 -1.889034 0
M  V30 55 H -3.391095 -0.082812 -1.402202 0
M  V30 56 H -2.394706 -3.751371 0.382302 0
M  V30 57 H -2.368990 -3.346268 -1.360024 0
M  V30 58 H -0.593307 -1.821973 -0.597535 0
M  V30 59 H -4.714040 -2.341935 -1.158319 0
M  V30 60 H -4.760724 -2.635706 0.615439 0
M  V30 61 H -7.001042 0.960272 0.540465 0
M  V30 62 H -5.575036 1.993115 0.429172 0
M  V30 63 H -6.231428 1.644752 2.048789 0
M  V30 END ATOM
M  V30 BEGIN BOND
M  V30 1 1 1 2
M  V30 2 1 2 3
M  V30 3 1 3 4
M  V30 4 1 4 5
M  V30 5 2 5 6
M  V30 6 1 6 7
M  V30 7 1 7 8
M  V30 8 1 8 9
M  V30 9 1 9 10
M  V30 10 1 10 11
M  V30 11 1 11 12
M  V30 12 1 12 13
M  V30 13 1 13 14
M  V30 14 2 14 15
M  V30 15 1 15 16
M  V30 16 1 16 17
M  V30 17 1 17 18
M  V30 18 1 18 19
M  V30 19 1 17 20
M  V30 20 1 20 21
M  V30 21 1 21 22
M  V30 22 1 22 23
M  V30 23 2 22 24
M  V30 24 1 17 25
M  V30 25 1 25 26
M  V30 26 2 26 27
M  V30 27 1 26 15
M  V30 28 1 1 28
M  V30 29 1 1 29
M  V30 30 1 1 30
M  V30 31 1 2 31
M  V30 32 1 2 32
M  V30 33 1 3 33
M  V30 34 1 3 34
M  V30 35 1 4 35
M  V30 36 1 4 36
M  V30 37 1 5 37
M  V30 38 1 6 38
M  V30 39 1 7 39
M  V30 40 1 7 40
M  V30 41 1 8 41
M  V30 42 1 8 42
M  V30 43 1 9 43
M  V30 44 1 9 44
M  V30 45 1 10 45
M  V30 46 1 10 46
M  V30 47 1 11 47
M  V30 48 1 11 48
M  V30 49 1 12 49
M  V30 50 1 12 50
M  V30 51 1 13 51
M  V30 52 1 13 52
M  V30 53 1 14 53
M  V30 54 1 16 54
M  V30 55 1 16 55
M  V30 56 1 18 56
M  V30 57 1 18 57
M  V30 58 1 19 58
M  V30 59 1 20 59
M  V30 60 1 20 60
M  V30 61 1 23 61
M  V30 62 1 23 62
M  V30 63 1 23 63
M  V30 END BOND
M  V30 END CTAB
M  END
>  <Dataset>  (474) 
ChEMBL_Kinases

>  <Ligand_Instance>  (474) 
nan

>  <PDB_ID>  (474) 
nan

>  <Standardized_SMILES>  (474) 
CCCC/C=C\CCCCCCC/C=C1\CC(CO)(COC(C)=O)OC1=O

>  <Name>  (474) 
nan

>  <Pocket>  (474) 
nan

>  <ATP_Site>  (474) 
nan

>  <Peripheral>  (474) 
nan

>  <Num_H_Atoms_ProtBoundConf>  (474) 
nan

>  <Num_Resolved_Atoms>  (474) 
nan

>  <Num_Not_Resolved_Atoms>  (474) 
nan

$$$$
CHEMBL97579
     RDKit          3D

  0  0  0  0  0  0  0  0  0  0999 V3000
M  V30 BEGIN CTAB
M  V30 COUNTS 48 51 0 0 0
M  V30 BEGIN ATOM
M  V30 1 C 2.072158 -0.713926 -4.253273 0
M  V30 2 O 1.730666 -0.449200 -2.905602 0
M  V30 3 C 0.815306 -1.296090 -2.296060 0
M  V30 4 O 0.313168 -2.261410 -2.927757 0
M  V30 5 C 0.440600 -1.052930 -0.908563 0
M  V30 6 C 0.978139 -0.000795 -0.196218 0
M  V30 7 C 0.672356 0.302447 1.140201 0
M  V30 8 C 1.362708 1.457085 1.690403 0
M  V30 9 C 1.253115 2.591323 0.866875 0
M  V30 10 C 1.820302 3.815242 1.148182 0
M  V30 11 C 2.547032 3.960839 2.306871 0
M  V30 12 C 3.189444 5.238404 2.686924 0
M  V30 13 C 2.665943 2.859727 3.127278 0
M  V30 14 C 2.086681 1.648582 2.817849 0
M  V30 15 C -0.235703 -0.537897 1.746592 0
M  V30 16 C -0.772823 -1.582388 1.044180 0
M  V30 17 C -0.464674 -1.865569 -0.257491 0
M  V30 18 N -1.740810 -2.441407 1.637094 0
M  V30 19 C -2.314467 -3.549682 0.911299 0
M  V30 20 C -3.463251 -3.219040 0.212366 0
M  V30 21 Cl -4.195153 -1.623885 0.176702 0
M  V30 22 C -4.110545 -4.192902 -0.524708 0
M  V30 23 C -3.587386 -5.472153 -0.540350 0
M  V30 24 C -2.426970 -5.801216 0.167115 0
M  V30 25 C -1.788218 -4.809987 0.903404 0
M  V30 26 Cl -0.338078 -5.115311 1.818828 0
M  V30 27 C -2.187721 -2.246633 2.974079 0
M  V30 28 O -3.033433 -2.954142 3.574226 0
M  V30 29 N -1.604266 -1.157040 3.638766 0
M  V30 30 C -0.555176 -0.249458 3.142175 0
M  V30 31 H 2.992245 -1.305074 -4.376125 0
M  V30 32 H 2.242951 0.263371 -4.754207 0
M  V30 33 H 1.236340 -1.252519 -4.785562 0
M  V30 34 H 1.691563 0.616687 -0.755192 0
M  V30 35 H 0.698095 2.599571 -0.085076 0
M  V30 36 H 1.735235 4.671348 0.522619 0
M  V30 37 H 2.517588 6.110673 2.451189 0
M  V30 38 H 4.200102 5.374467 2.213384 0
M  V30 39 H 3.367400 5.298156 3.776563 0
M  V30 40 H 3.221312 2.870866 4.068846 0
M  V30 41 H 2.180765 0.798189 3.439550 0
M  V30 42 H -0.879249 -2.684585 -0.821490 0
M  V30 43 H -5.015717 -3.981504 -1.089952 0
M  V30 44 H -4.098422 -6.239687 -1.121872 0
M  V30 45 H -2.006878 -6.809556 0.160150 0
M  V30 46 H -1.932551 -0.933106 4.611880 0
M  V30 47 H 0.342000 -0.604760 3.737657 0
M  V30 48 H -0.877698 0.759662 3.380977 0
M  V30 END ATOM
M  V30 BEGIN BOND
M  V30 1 1 1 2
M  V30 2 1 2 3
M  V30 3 2 3 4
M  V30 4 1 3 5
M  V30 5 2 5 6
M  V30 6 1 6 7
M  V30 7 1 7 8
M  V30 8 2 8 9
M  V30 9 1 9 10
M  V30 10 2 10 11
M  V30 11 1 11 12
M  V30 12 1 11 13
M  V30 13 2 13 14
M  V30 14 2 7 15
M  V30 15 1 15 16
M  V30 16 2 16 17
M  V30 17 1 16 18
M  V30 18 1 18 19
M  V30 19 2 19 20
M  V30 20 1 20 21
M  V30 21 1 20 22
M  V30 22 2 22 23
M  V30 23 1 23 24
M  V30 24 2 24 25
M  V30 25 1 25 26
M  V30 26 1 18 27
M  V30 27 2 27 28
M  V30 28 1 27 29
M  V30 29 1 29 30
M  V30 30 1 17 5
M  V30 31 1 25 19
M  V30 32 1 14 8
M  V30 33 1 30 15
M  V30 34 1 1 31
M  V30 35 1 1 32
M  V30 36 1 1 33
M  V30 37 1 6 34
M  V30 38 1 9 35
M  V30 39 1 10 36
M  V30 40 1 12 37
M  V30 41 1 12 38
M  V30 42 1 12 39
M  V30 43 1 13 40
M  V30 44 1 14 41
M  V30 45 1 17 42
M  V30 46 1 22 43
M  V30 47 1 23 44
M  V30 48 1 24 45
M  V30 49 1 29 46
M  V30 50 1 30 47
M  V30 51 1 30 48
M  V30 END BOND
M  V30 END CTAB
M  END
>  <Dataset>  (475) 
ChEMBL_Kinases

>  <Ligand_Instance>  (475) 
nan

>  <PDB_ID>  (475) 
nan

>  <Standardized_SMILES>  (475) 
COC(=O)c1cc(-c2ccc(C)cc2)c2c(c1)N(c1c(Cl)cccc1Cl)C(=O)NC2

>  <Name>  (475) 
nan

>  <Pocket>  (475) 
nan

>  <ATP_Site>  (475) 
nan

>  <Peripheral>  (475) 
nan

>  <Num_H_Atoms_ProtBoundConf>  (475) 
nan

>  <Num_Resolved_Atoms>  (475) 
nan

>  <Num_Not_Resolved_Atoms>  (475) 
nan

$$$$
CHEMBL4863850
     RDKit          3D

  0  0  0  0  0  0  0  0  0  0999 V3000
M  V30 BEGIN CTAB
M  V30 COUNTS 42 43 0 0 0
M  V30 BEGIN ATOM
M  V30 1 C 2.179933 -3.487911 2.524787 0
M  V30 2 N 0.782229 -3.601771 2.141954 0
M  V30 3 C 0.053452 -3.203724 0.987376 0
M  V30 4 N 0.823288 -2.587776 0.052895 0
M  V30 5 C 0.222531 -2.165255 -1.079673 0
M  V30 6 N 0.768520 -1.500440 -2.224743 0
M  V30 7 C 0.992180 -0.074163 -2.257403 0
M  V30 8 C 1.400053 0.646805 -3.356483 0
M  V30 9 N 1.593532 1.987103 -3.252155 0
M  V30 10 C 1.369423 2.572288 -2.033904 0
M  V30 11 C 1.621897 4.006753 -2.094688 0
M  V30 12 N 1.806558 5.151666 -2.132312 0
M  V30 13 C 0.955058 1.915900 -0.867319 0
M  V30 14 O 0.826598 2.784914 0.166743 0
M  V30 15 C 0.455571 2.491330 1.459239 0
M  V30 16 C 1.360949 1.587644 2.221201 0
M  V30 17 C 0.889735 1.313511 3.638492 0
M  V30 18 N -0.405895 0.685577 3.695318 0
M  V30 19 C 0.782246 0.566900 -1.059658 0
M  V30 20 N -1.102103 -2.368138 -1.238715 0
M  V30 21 C -1.852297 -2.977324 -0.310696 0
M  V30 22 C -1.304662 -3.439049 0.880086 0
M  V30 23 C -2.042187 -4.119468 1.960842 0
M  V30 24 F -3.368782 -4.204263 1.551718 0
M  V30 25 F -2.046905 -3.328595 3.085335 0
M  V30 26 F -1.593966 -5.389772 2.206221 0
M  V30 27 H 2.802211 -2.968104 1.765117 0
M  V30 28 H 2.637230 -4.462011 2.745901 0
M  V30 29 H 2.258704 -2.860991 3.462560 0
M  V30 30 H 0.279097 -4.074678 2.906202 0
M  V30 31 H 1.056010 -1.969183 -3.135373 0
M  V30 32 H 1.547550 0.079855 -4.272855 0
M  V30 33 H -0.587751 2.090877 1.520687 0
M  V30 34 H 0.399183 3.475331 2.013229 0
M  V30 35 H 2.353549 2.105087 2.329298 0
M  V30 36 H 1.566302 0.643557 1.720920 0
M  V30 37 H 0.776754 2.312913 4.148863 0
M  V30 38 H 1.629179 0.683248 4.144310 0
M  V30 39 H -1.152678 1.269032 3.295686 0
M  V30 40 H -0.387175 -0.287704 3.352714 0
M  V30 41 H 0.450223 0.048218 -0.183107 0
M  V30 42 H -2.930453 -3.140734 -0.446898 0
M  V30 END ATOM
M  V30 BEGIN BOND
M  V30 1 1 1 2
M  V30 2 1 2 3
M  V30 3 2 3 4
M  V30 4 1 4 5
M  V30 5 1 5 6
M  V30 6 1 6 7
M  V30 7 2 7 8
M  V30 8 1 8 9
M  V30 9 2 9 10
M  V30 10 1 10 11
M  V30 11 3 11 12
M  V30 12 1 10 13
M  V30 13 1 13 14
M  V30 14 1 14 15
M  V30 15 1 15 16
M  V30 16 1 16 17
M  V30 17 1 17 18
M  V30 18 2 13 19
M  V30 19 2 5 20
M  V30 20 1 20 21
M  V30 21 2 21 22
M  V30 22 1 22 23
M  V30 23 1 23 24
M  V30 24 1 23 25
M  V30 25 1 23 26
M  V30 26 1 22 3
M  V30 27 1 19 7
M  V30 28 1 1 27
M  V30 29 1 1 28
M  V30 30 1 1 29
M  V30 31 1 2 30
M  V30 32 1 6 31
M  V30 33 1 8 32
M  V30 34 1 15 33
M  V30 35 1 15 34
M  V30 36 1 16 35
M  V30 37 1 16 36
M  V30 38 1 17 37
M  V30 39 1 17 38
M  V30 40 1 18 39
M  V30 41 1 18 40
M  V30 42 1 19 41
M  V30 43 1 21 42
M  V30 END BOND
M  V30 END CTAB
M  END
>  <Dataset>  (476) 
ChEMBL_Kinases

>  <Ligand_Instance>  (476) 
nan

>  <PDB_ID>  (476) 
nan

>  <Standardized_SMILES>  (476) 
CNc1nc(Nc2cnc(C#N)c(OCCCN)c2)ncc1C(F)(F)F

>  <Name>  (476) 
nan

>  <Pocket>  (476) 
nan

>  <ATP_Site>  (476) 
nan

>  <Peripheral>  (476) 
nan

>  <Num_H_Atoms_ProtBoundConf>  (476) 
nan

>  <Num_Resolved_Atoms>  (476) 
nan

>  <Num_Not_Resolved_Atoms>  (476) 
nan

$$$$
CHEMBL3986299
     RDKit          3D

  0  0  0  0  0  0  0  0  0  0999 V3000
M  V30 BEGIN CTAB
M  V30 COUNTS 74 78 0 0 0
M  V30 BEGIN ATOM
M  V30 1 C 3.048604 -0.441587 6.881229 0
M  V30 2 C 4.279829 -0.455874 6.002012 0
M  V30 3 N 3.879995 -0.492765 4.626043 0
M  V30 4 C 3.667824 -1.599735 3.890960 0
M  V30 5 N 3.306370 -1.201101 2.645910 0
M  V30 6 C 3.288491 0.142852 2.588529 0
M  V30 7 C 2.933588 0.848497 1.362484 0
M  V30 8 O 2.653865 0.165312 0.344307 0
M  V30 9 N 2.880331 2.254635 1.233671 0
M  V30 10 C 2.494544 2.564334 -0.124124 0
M  V30 11 N 3.262545 2.769776 -1.226671 0
M  V30 12 N 2.469125 3.018980 -2.255384 0
M  V30 13 C 1.194795 2.977045 -1.831005 0
M  V30 14 C 1.168695 2.691409 -0.483911 0
M  V30 15 C -0.291287 2.681350 -0.176835 0
M  V30 16 N -0.869191 2.121526 -1.402132 0
M  V30 17 C -1.698458 1.084417 -1.912083 0
M  V30 18 O -2.020825 0.862641 -3.108238 0
M  V30 19 N -2.352769 0.060985 -1.185007 0
M  V30 20 C -3.135858 -0.881589 -1.959142 0
M  V30 21 C -2.413818 -2.236563 -1.808819 0
M  V30 22 N -2.429532 -2.594614 -0.438159 0
M  V30 23 C -2.939614 -3.885060 -0.161969 0
M  V30 24 C -2.135574 -5.054033 -0.584218 0
M  V30 25 C -1.849300 -5.182057 -2.050140 0
M  V30 26 C -1.168875 -6.558635 -2.190941 0
M  V30 27 O 0.097385 -6.520876 -1.669635 0
M  V30 28 C 0.317783 -5.444866 -0.848363 0
M  V30 29 C -0.802269 -5.154195 0.126859 0
M  V30 30 C -2.939316 -1.633268 0.478802 0
M  V30 31 C -2.397375 -0.239963 0.241897 0 CFG=2
M  V30 32 C -3.375664 0.732230 0.863246 0
M  V30 33 C -0.254422 3.112236 -2.225662 0
M  V30 34 C -0.378411 2.785244 -3.700094 0
M  V30 35 C -0.693206 4.511381 -1.956192 0
M  V30 36 C 3.650512 0.597031 3.838045 0
M  V30 37 H 2.441952 -1.349429 6.702311 0
M  V30 38 H 2.498351 0.511635 6.702712 0
M  V30 39 H 3.390262 -0.480848 7.937280 0
M  V30 40 H 4.819970 -1.398662 6.237417 0
M  V30 41 H 4.964062 0.378127 6.230986 0
M  V30 42 H 3.757289 -2.645277 4.195663 0
M  V30 43 H 3.109099 2.829416 2.069937 0
M  V30 44 H 2.802252 3.216000 -3.234121 0
M  V30 45 H -0.608673 3.731496 -0.031786 0
M  V30 46 H -0.480967 2.048473 0.699832 0
M  V30 47 H -4.148207 -0.918358 -1.502790 0
M  V30 48 H -3.230740 -0.621073 -3.025944 0
M  V30 49 H -1.393260 -2.059184 -2.147190 0
M  V30 50 H -3.018593 -2.923913 -2.432276 0
M  V30 51 H -3.120599 -4.010403 0.949179 0
M  V30 52 H -3.987360 -3.986609 -0.583954 0
M  V30 53 H -2.713706 -5.982450 -0.305674 0
M  V30 54 H -2.778709 -5.281559 -2.641263 0
M  V30 55 H -1.147629 -4.408527 -2.443325 0
M  V30 56 H -1.236302 -6.958613 -3.201906 0
M  V30 57 H -1.753334 -7.260089 -1.526166 0
M  V30 58 H 0.600957 -4.509290 -1.394139 0
M  V30 59 H 1.223906 -5.677944 -0.223403 0
M  V30 60 H -0.553669 -4.209600 0.641685 0
M  V30 61 H -0.796485 -5.971971 0.873709 0
M  V30 62 H -4.045155 -1.561400 0.505759 0
M  V30 63 H -2.614466 -1.899130 1.515192 0
M  V30 64 H -1.434609 -0.128560 0.750187 0
M  V30 65 H -4.397045 0.392271 0.519507 0
M  V30 66 H -3.402399 0.679267 1.966166 0
M  V30 67 H -3.210008 1.773214 0.487767 0
M  V30 68 H -1.419498 2.936649 -3.994481 0
M  V30 69 H 0.318051 3.440594 -4.272675 0
M  V30 70 H -0.000626 1.754362 -3.856357 0
M  V30 71 H -0.747921 5.046200 -2.950279 0
M  V30 72 H -1.704329 4.572397 -1.544276 0
M  V30 73 H 0.085356 5.061401 -1.388336 0
M  V30 74 H 3.720476 1.651082 4.081244 0
M  V30 END ATOM
M  V30 BEGIN BOND
M  V30 1 1 1 2
M  V30 2 1 2 3
M  V30 3 1 3 4
M  V30 4 2 4 5
M  V30 5 1 5 6
M  V30 6 1 6 7
M  V30 7 2 7 8
M  V30 8 1 7 9
M  V30 9 1 9 10
M  V30 10 2 10 11
M  V30 11 1 11 12
M  V30 12 1 12 13
M  V30 13 2 13 14
M  V30 14 1 14 15
M  V30 15 1 15 16
M  V30 16 1 16 17
M  V30 17 2 17 18
M  V30 18 1 17 19
M  V30 19 1 19 20
M  V30 20 1 20 21
M  V30 21 1 21 22
M  V30 22 1 22 23
M  V30 23 1 23 24
M  V30 24 1 24 25
M  V30 25 1 25 26
M  V30 26 1 26 27
M  V30 27 1 27 28
M  V30 28 1 28 29
M  V30 29 1 22 30
M  V30 30 1 30 31
M  V30 31 1 31 32
M  V30 32 1 16 33
M  V30 33 1 33 34
M  V30 34 1 33 35
M  V30 35 2 6 36
M  V30 36 1 36 3
M  V30 37 1 14 10
M  V30 38 1 31 19
M  V30 39 1 33 13
M  V30 40 1 29 24
M  V30 41 1 1 37
M  V30 42 1 1 38
M  V30 43 1 1 39
M  V30 44 1 2 40
M  V30 45 1 2 41
M  V30 46 1 4 42
M  V30 47 1 9 43
M  V30 48 1 12 44
M  V30 49 1 15 45
M  V30 50 1 15 46
M  V30 51 1 20 47
M  V30 52 1 20 48
M  V30 53 1 21 49
M  V30 54 1 21 50
M  V30 55 1 23 51
M  V30 56 1 23 52
M  V30 57 1 24 53
M  V30 58 1 25 54
M  V30 59 1 25 55
M  V30 60 1 26 56
M  V30 61 1 26 57
M  V30 62 1 28 58
M  V30 63 1 28 59
M  V30 64 1 29 60
M  V30 65 1 29 61
M  V30 66 1 30 62
M  V30 67 1 30 63
M  V30 68 1 31 64 CFG=1
M  V30 69 1 32 65
M  V30 70 1 32 66
M  V30 71 1 32 67
M  V30 72 1 34 68
M  V30 73 1 34 69
M  V30 74 1 34 70
M  V30 75 1 35 71
M  V30 76 1 35 72
M  V30 77 1 35 73
M  V30 78 1 36 74
M  V30 END BOND
M  V30 END CTAB
M  END
>  <Dataset>  (477) 
ChEMBL_Kinases

>  <Ligand_Instance>  (477) 
nan

>  <PDB_ID>  (477) 
nan

>  <Standardized_SMILES>  (477) 
CCn1cnc(C(=O)Nc2n[nH]c3c2CN(C(=O)N2CCN(CC4CCOCC4)C[C@@H]2C)C3(C)C)c1

>  <Name>  (477) 
nan

>  <Pocket>  (477) 
nan

>  <ATP_Site>  (477) 
nan

>  <Peripheral>  (477) 
nan

>  <Num_H_Atoms_ProtBoundConf>  (477) 
nan

>  <Num_Resolved_Atoms>  (477) 
nan

>  <Num_Not_Resolved_Atoms>  (477) 
nan

$$$$
CHEMBL4863866
     RDKit          3D

  0  0  0  0  0  0  0  0  0  0999 V3000
M  V30 BEGIN CTAB
M  V30 COUNTS 41 44 0 0 0
M  V30 BEGIN ATOM
M  V30 1 C -0.719112 -2.996115 0.228278 0
M  V30 2 C 0.602276 -3.615857 0.502972 0
M  V30 3 C 0.588537 -4.621319 1.468163 0
M  V30 4 C 1.789320 -5.231026 1.759543 0
M  V30 5 C 2.975316 -4.889082 1.144129 0
M  V30 6 C 2.952865 -3.888029 0.191989 0
M  V30 7 C 1.774083 -3.230463 -0.150460 0
M  V30 8 N 1.716368 -2.199749 -1.124781 0
M  V30 9 C 1.341168 -0.828002 -1.134472 0
M  V30 10 C 1.387081 -0.142324 -2.330408 0
M  V30 11 N 1.016881 1.147418 -2.240910 0
M  V30 12 C 0.622671 1.796235 -1.130427 0
M  V30 13 O 0.303301 3.009275 -1.194018 0
M  V30 14 C 0.577161 1.106004 0.069913 0
M  V30 15 C 0.155577 1.769433 1.300166 0
M  V30 16 C 1.134227 2.384235 2.076523 0
M  V30 17 C 0.852322 3.044104 3.263721 0
M  V30 18 C -0.457105 3.102196 3.709486 0
M  V30 19 C -1.444221 2.495249 2.948612 0
M  V30 20 N -2.775963 2.379652 3.107520 0
M  V30 21 C -3.299261 1.679895 2.066990 0
M  V30 22 C -2.289971 1.319751 1.191799 0
M  V30 23 C -1.142964 1.840866 1.765520 0
M  V30 24 C 0.946504 -0.222930 0.039846 0
M  V30 25 H -0.961434 -2.240882 1.008085 0
M  V30 26 H -0.619406 -2.523011 -0.787958 0
M  V30 27 H -1.472223 -3.815722 0.200181 0
M  V30 28 H -0.324182 -4.917613 1.973482 0
M  V30 29 H 1.775756 -6.021176 2.518708 0
M  V30 30 H 3.881837 -5.407577 1.419748 0
M  V30 31 H 3.869098 -3.592474 -0.313486 0
M  V30 32 H 2.048124 -2.680785 -1.985536 0
M  V30 33 H 1.690637 -0.580658 -3.271389 0
M  V30 34 H 1.041647 1.703336 -3.146782 0
M  V30 35 H 2.172174 2.373778 1.783169 0
M  V30 36 H 1.636590 3.510932 3.842352 0
M  V30 37 H -0.695770 3.616450 4.639806 0
M  V30 38 H -3.278473 2.791026 3.934429 0
M  V30 39 H -4.343438 1.448137 1.953717 0
M  V30 40 H -2.372894 0.754032 0.260217 0
M  V30 41 H 0.897729 -0.723263 0.996648 0
M  V30 END ATOM
M  V30 BEGIN BOND
M  V30 1 1 1 2
M  V30 2 2 2 3
M  V30 3 1 3 4
M  V30 4 2 4 5
M  V30 5 1 5 6
M  V30 6 2 6 7
M  V30 7 1 7 8
M  V30 8 1 8 9
M  V30 9 2 9 10
M  V30 10 1 10 11
M  V30 11 1 11 12
M  V30 12 2 12 13
M  V30 13 1 12 14
M  V30 14 1 14 15
M  V30 15 2 15 16
M  V30 16 1 16 17
M  V30 17 2 17 18
M  V30 18 1 18 19
M  V30 19 1 19 20
M  V30 20 1 20 21
M  V30 21 2 21 22
M  V30 22 1 22 23
M  V30 23 2 14 24
M  V30 24 1 7 2
M  V30 25 1 24 9
M  V30 26 1 23 15
M  V30 27 2 23 19
M  V30 28 1 1 25
M  V30 29 1 1 26
M  V30 30 1 1 27
M  V30 31 1 3 28
M  V30 32 1 4 29
M  V30 33 1 5 30
M  V30 34 1 6 31
M  V30 35 1 8 32
M  V30 36 1 10 33
M  V30 37 1 11 34
M  V30 38 1 16 35
M  V30 39 1 17 36
M  V30 40 1 18 37
M  V30 41 1 20 38
M  V30 42 1 21 39
M  V30 43 1 22 40
M  V30 44 1 24 41
M  V30 END BOND
M  V30 END CTAB
M  END
>  <Dataset>  (478) 
ChEMBL_Kinases

>  <Ligand_Instance>  (478) 
nan

>  <PDB_ID>  (478) 
nan

>  <Standardized_SMILES>  (478) 
Cc1ccccc1Nc1c[nH]c(=O)c(-c2cccc3[nH]ccc23)c1

>  <Name>  (478) 
nan

>  <Pocket>  (478) 
nan

>  <ATP_Site>  (478) 
nan

>  <Peripheral>  (478) 
nan

>  <Num_H_Atoms_ProtBoundConf>  (478) 
nan

>  <Num_Resolved_Atoms>  (478) 
nan

>  <Num_Not_Resolved_Atoms>  (478) 
nan

$$$$
CHEMBL4060012
     RDKit          3D

  0  0  0  0  0  0  0  0  0  0999 V3000
M  V30 BEGIN CTAB
M  V30 COUNTS 43 46 0 0 0
M  V30 BEGIN ATOM
M  V30 1 C -1.265789 -5.617514 2.313890 0
M  V30 2 N -0.057192 -4.930056 1.913188 0
M  V30 3 C -0.300754 -3.877353 0.956220 0
M  V30 4 C 0.655172 -2.730250 1.229844 0
M  V30 5 N 0.316427 -2.177735 2.499544 0
M  V30 6 C 0.006639 -0.814034 2.774845 0
M  V30 7 C 0.047904 0.099184 1.774937 0
M  V30 8 C -0.273269 1.373669 2.164409 0
M  V30 9 C -0.234527 2.438954 1.044361 0
M  V30 10 N 0.011373 2.413288 -0.070765 0
M  V30 11 C 0.004378 3.418919 -0.923266 0
M  V30 12 C 0.332634 3.322000 -2.348948 0
M  V30 13 C 1.270995 2.536247 -2.798973 0
M  V30 14 S 2.295527 1.463679 -1.760479 0
M  V30 15 C 3.617405 1.305984 -2.994673 0
M  V30 16 S 5.166236 0.875218 -2.717520 0
M  V30 17 N 2.990900 1.640849 -4.227534 0
M  V30 18 C 1.751794 2.290564 -4.129658 0
M  V30 19 O 1.088759 2.643878 -5.162052 0
M  V30 20 C -0.344551 4.661904 -0.404009 0
M  V30 21 S -0.654564 4.209852 1.427447 0
M  V30 22 C -0.619152 1.781511 3.435218 0
M  V30 23 C -0.637556 0.776835 4.408617 0
M  V30 24 N -0.323066 -0.471806 4.028144 0
M  V30 25 C 0.305821 -3.168663 3.584422 0
M  V30 26 C 0.731030 -4.489896 3.039114 0
M  V30 27 H -1.267033 -6.685751 2.037108 0
M  V30 28 H -1.441053 -5.438528 3.396842 0
M  V30 29 H -2.120354 -5.124889 1.785440 0
M  V30 30 H -1.323712 -3.491531 1.166898 0
M  V30 31 H -0.281680 -4.223233 -0.085232 0
M  V30 32 H 0.693946 -2.042072 0.384111 0
M  V30 33 H 1.677577 -3.195987 1.318225 0
M  V30 34 H 0.297983 -0.090871 0.764126 0
M  V30 35 H -0.187517 3.899586 -3.109746 0
M  V30 36 H 3.492777 1.381946 -5.117458 0
M  V30 37 H -0.416919 5.632535 -0.919283 0
M  V30 38 H -0.859225 2.791830 3.674463 0
M  V30 39 H -0.901493 1.032108 5.430263 0
M  V30 40 H -0.667676 -3.198587 4.088569 0
M  V30 41 H 1.047077 -2.816397 4.320856 0
M  V30 42 H 1.806301 -4.545825 2.836610 0
M  V30 43 H 0.543392 -5.238940 3.860678 0
M  V30 END ATOM
M  V30 BEGIN BOND
M  V30 1 1 1 2
M  V30 2 1 2 3
M  V30 3 1 3 4
M  V30 4 1 4 5
M  V30 5 1 5 6
M  V30 6 2 6 7
M  V30 7 1 7 8
M  V30 8 1 8 9
M  V30 9 2 9 10
M  V30 10 1 10 11
M  V30 11 1 11 12
M  V30 12 2 12 13
M  V30 13 1 13 14
M  V30 14 1 14 15
M  V30 15 2 15 16
M  V30 16 1 15 17
M  V30 17 1 17 18
M  V30 18 2 18 19
M  V30 19 2 11 20
M  V30 20 1 20 21
M  V30 21 2 8 22
M  V30 22 1 22 23
M  V30 23 2 23 24
M  V30 24 1 5 25
M  V30 25 1 25 26
M  V30 26 1 26 2
M  V30 27 1 24 6
M  V30 28 1 21 9
M  V30 29 1 18 13
M  V30 30 1 1 27
M  V30 31 1 1 28
M  V30 32 1 1 29
M  V30 33 1 3 30
M  V30 34 1 3 31
M  V30 35 1 4 32
M  V30 36 1 4 33
M  V30 37 1 7 34
M  V30 38 1 12 35
M  V30 39 1 17 36
M  V30 40 1 20 37
M  V30 41 1 22 38
M  V30 42 1 23 39
M  V30 43 1 25 40
M  V30 44 1 25 41
M  V30 45 1 26 42
M  V30 46 1 26 43
M  V30 END BOND
M  V30 END CTAB
M  END
>  <Dataset>  (479) 
ChEMBL_Kinases

>  <Ligand_Instance>  (479) 
nan

>  <PDB_ID>  (479) 
nan

>  <Standardized_SMILES>  (479) 
CN1CCN(c2cc(-c3nc(/C=C4\SC(=S)NC4=O)cs3)ccn2)CC1

>  <Name>  (479) 
nan

>  <Pocket>  (479) 
nan

>  <ATP_Site>  (479) 
nan

>  <Peripheral>  (479) 
nan

>  <Num_H_Atoms_ProtBoundConf>  (479) 
nan

>  <Num_Resolved_Atoms>  (479) 
nan

>  <Num_Not_Resolved_Atoms>  (479) 
nan

$$$$
CHEMBL4059939
     RDKit          3D

  0  0  0  0  0  0  0  0  0  0999 V3000
M  V30 BEGIN CTAB
M  V30 COUNTS 52 57 0 0 0
M  V30 BEGIN ATOM
M  V30 1 Cl 1.238152 -4.443365 5.182649 0
M  V30 2 C 1.516122 -3.151135 4.005448 0
M  V30 3 C 2.826759 -2.727084 3.782019 0
M  V30 4 C 3.054860 -1.720628 2.867639 0
M  V30 5 C 2.011182 -1.136846 2.180364 0
M  V30 6 N 2.155637 -0.142687 1.269120 0
M  V30 7 C 1.111580 0.407995 0.616183 0
M  V30 8 N 1.585743 1.412771 -0.264443 0
M  V30 9 C 1.849007 2.782586 0.004452 0
M  V30 10 C 1.628876 3.302201 1.262240 0
M  V30 11 C 1.926504 4.620942 1.403718 0
M  V30 12 C 2.418275 5.451449 0.409051 0
M  V30 13 N 2.783019 6.743227 0.293781 0
M  V30 14 N 3.184733 6.973096 -0.925058 0
M  V30 15 N 3.094878 5.843784 -1.638487 0
M  V30 16 C 2.619714 4.870690 -0.838417 0
M  V30 17 C 2.330684 3.536216 -1.025283 0
M  V30 18 N -0.143407 -0.016966 0.847780 0
M  V30 19 C -0.386311 -1.015090 1.749033 0
M  V30 20 N -1.735772 -1.407344 1.929684 0
M  V30 21 C -2.817045 -0.814355 1.233267 0
M  V30 22 C -2.912008 -1.019902 -0.239016 0
M  V30 23 C -3.062294 -2.427344 -0.669650 0
M  V30 24 C -4.331758 -2.970759 -0.938336 0
M  V30 25 N -4.252847 -4.260236 -1.275107 0
M  V30 26 C -2.962661 -4.631120 -1.249626 0
M  V30 27 C -2.281522 -5.810711 -1.507049 0
M  V30 28 C -0.884422 -5.855177 -1.393334 0
M  V30 29 C -0.204167 -4.713630 -1.024110 0
M  V30 30 C -0.882768 -3.544532 -0.768855 0
M  V30 31 C -2.246049 -3.512908 -0.881652 0
M  V30 32 C 0.713200 -1.542484 2.388043 0
M  V30 33 C 0.497058 -2.545201 3.300765 0
M  V30 34 H 3.694953 -3.144048 4.289420 0
M  V30 35 H 4.030952 -1.302201 2.605307 0
M  V30 36 H 1.715445 0.967658 -1.185568 0
M  V30 37 H 1.252858 2.696897 2.049116 0
M  V30 38 H 1.764307 5.073115 2.394419 0
M  V30 39 H 2.693610 7.325658 1.144508 0
M  V30 40 H 2.494469 3.089864 -2.014813 0
M  V30 41 H -2.003358 -2.153493 2.582740 0
M  V30 42 H -2.699774 0.307936 1.372635 0
M  V30 43 H -3.813335 -1.046463 1.711776 0
M  V30 44 H -3.803031 -0.428476 -0.582266 0
M  V30 45 H -2.037471 -0.553652 -0.759272 0
M  V30 46 H -5.329618 -2.509400 -0.912532 0
M  V30 47 H -4.990739 -4.941274 -1.528470 0
M  V30 48 H -2.835810 -6.716471 -1.801254 0
M  V30 49 H -0.321987 -6.759024 -1.586133 0
M  V30 50 H 0.891843 -4.713051 -0.926483 0
M  V30 51 H -0.312400 -2.685275 -0.498287 0
M  V30 52 H -0.469526 -2.940293 3.542029 0
M  V30 END ATOM
M  V30 BEGIN BOND
M  V30 1 1 1 2
M  V30 2 2 2 3
M  V30 3 1 3 4
M  V30 4 2 4 5
M  V30 5 1 5 6
M  V30 6 2 6 7
M  V30 7 1 7 8
M  V30 8 1 8 9
M  V30 9 2 9 10
M  V30 10 1 10 11
M  V30 11 2 11 12
M  V30 12 1 12 13
M  V30 13 1 13 14
M  V30 14 2 14 15
M  V30 15 1 15 16
M  V30 16 2 16 17
M  V30 17 1 7 18
M  V30 18 2 18 19
M  V30 19 1 19 20
M  V30 20 1 20 21
M  V30 21 1 21 22
M  V30 22 1 22 23
M  V30 23 2 23 24
M  V30 24 1 24 25
M  V30 25 1 25 26
M  V30 26 2 26 27
M  V30 27 1 27 28
M  V30 28 2 28 29
M  V30 29 1 29 30
M  V30 30 2 30 31
M  V30 31 1 19 32
M  V30 32 2 32 33
M  V30 33 1 33 2
M  V30 34 1 32 5
M  V30 35 1 17 9
M  V30 36 1 31 23
M  V30 37 1 16 12
M  V30 38 1 31 26
M  V30 39 1 3 34
M  V30 40 1 4 35
M  V30 41 1 8 36
M  V30 42 1 10 37
M  V30 43 1 11 38
M  V30 44 1 13 39
M  V30 45 1 17 40
M  V30 46 1 20 41
M  V30 47 1 21 42
M  V30 48 1 21 43
M  V30 49 1 22 44
M  V30 50 1 22 45
M  V30 51 1 24 46
M  V30 52 1 25 47
M  V30 53 1 27 48
M  V30 54 1 28 49
M  V30 55 1 29 50
M  V30 56 1 30 51
M  V30 57 1 33 52
M  V30 END BOND
M  V30 END CTAB
M  END
>  <Dataset>  (480) 
ChEMBL_Kinases

>  <Ligand_Instance>  (480) 
nan

>  <PDB_ID>  (480) 
nan

>  <Standardized_SMILES>  (480) 
Clc1ccc2nc(Nc3ccc4[nH]nnc4c3)nc(NCCc3c[nH]c4ccccc34)c2c1

>  <Name>  (480) 
nan

>  <Pocket>  (480) 
nan

>  <ATP_Site>  (480) 
nan

>  <Peripheral>  (480) 
nan

>  <Num_H_Atoms_ProtBoundConf>  (480) 
nan

>  <Num_Resolved_Atoms>  (480) 
nan

>  <Num_Not_Resolved_Atoms>  (480) 
nan

$$$$
CHEMBL4863960
     RDKit          3D

  0  0  0  0  0  0  0  0  0  0999 V3000
M  V30 BEGIN CTAB
M  V30 COUNTS 67 71 0 0 0
M  V30 BEGIN ATOM
M  V30 1 O 1.965343 -0.885539 3.522177 0
M  V30 2 C 2.065343 -2.146358 3.467945 0
M  V30 3 N 3.162217 -2.683415 2.763864 0
M  V30 4 C 3.957769 -1.604551 2.241592 0
M  V30 5 C 5.036082 -0.955962 2.806640 0
M  V30 6 N 5.618114 0.039654 2.117332 0
M  V30 7 C 5.185389 0.421202 0.902292 0
M  V30 8 C 4.109940 -0.198481 0.297351 0
M  V30 9 O 3.669256 0.215385 -0.977289 0
M  V30 10 C 2.578024 -0.437245 -1.552164 0
M  V30 11 C 2.178228 0.083358 -2.913676 0
M  V30 12 C 1.796928 1.546369 -2.864517 0
M  V30 13 C 1.144403 1.865634 -4.187898 0
M  V30 14 N -0.060696 1.127510 -4.371689 0
M  V30 15 C -1.087757 1.346595 -3.407895 0
M  V30 16 C -2.309860 0.607443 -3.762071 0
M  V30 17 C -2.700072 -0.667549 -3.404000 0
M  V30 18 C -3.898595 -1.199962 -3.840797 0
M  V30 19 C -4.765598 -0.517346 -4.641577 0
M  V30 20 C -4.424152 0.756730 -5.026826 0
M  V30 21 C -3.231047 1.271793 -4.585163 0
M  V30 22 C 0.299674 -0.256346 -4.573246 0
M  V30 23 C 1.023898 -0.763008 -3.375726 0
M  V30 24 C 3.494949 -1.224524 0.985182 0
M  V30 25 C 1.063444 -3.016307 4.121405 0
M  V30 26 C 1.148763 -4.392542 4.141328 0
M  V30 27 C 0.136351 -5.049102 4.780455 0
M  V30 28 N -0.887770 -4.440149 5.361332 0
M  V30 29 C -1.016819 -3.121434 5.370468 0
M  V30 30 N -2.150929 -2.569804 6.014834 0
M  V30 31 C -2.542672 -1.217704 6.177899 0
M  V30 32 O -1.815531 -0.313509 5.701793 0
M  V30 33 C -3.766797 -0.760843 6.878714 0
M  V30 34 C -4.463091 0.413144 6.179715 0
M  V30 35 C -3.808310 0.575305 7.510681 0
M  V30 36 C -0.025155 -2.438248 4.742592 0
M  V30 37 H 3.314085 -3.711612 2.673867 0
M  V30 38 H 5.290703 -1.347497 3.777794 0
M  V30 39 H 5.724598 1.247048 0.414100 0
M  V30 40 H 1.696398 -0.310711 -0.871495 0
M  V30 41 H 2.846268 -1.505275 -1.665701 0
M  V30 42 H 2.998925 -0.023298 -3.643400 0
M  V30 43 H 2.741130 2.163711 -2.832170 0
M  V30 44 H 1.186756 1.781094 -1.982049 0
M  V30 45 H 1.869640 1.508280 -4.970347 0
M  V30 46 H 1.036297 2.953649 -4.358635 0
M  V30 47 H -0.705805 0.985751 -2.428256 0
M  V30 48 H -1.313490 2.423081 -3.397490 0
M  V30 49 H -2.016649 -1.191382 -2.777635 0
M  V30 50 H -4.128309 -2.215851 -3.509439 0
M  V30 51 H -5.691341 -0.937812 -4.975464 0
M  V30 52 H -5.083368 1.328117 -5.658888 0
M  V30 53 H -3.008514 2.294811 -4.923396 0
M  V30 54 H -0.585804 -0.908968 -4.718207 0
M  V30 55 H 0.984871 -0.291504 -5.443682 0
M  V30 56 H 1.387340 -1.806258 -3.493854 0
M  V30 57 H 0.305403 -0.781129 -2.509616 0
M  V30 58 H 2.655531 -1.663918 0.444887 0
M  V30 59 H 1.975189 -4.872482 3.672572 0
M  V30 60 H 0.163442 -6.134328 4.820113 0
M  V30 61 H -2.859141 -3.201673 6.466906 0
M  V30 62 H -4.429343 -1.550093 7.312770 0
M  V30 63 H -5.557301 0.375461 6.084455 0
M  V30 64 H -3.971117 0.904572 5.329534 0
M  V30 65 H -2.931168 1.241318 7.569919 0
M  V30 66 H -4.499614 0.695573 8.385889 0
M  V30 67 H -0.064113 -1.359086 4.710640 0
M  V30 END ATOM
M  V30 BEGIN BOND
M  V30 1 2 1 2
M  V30 2 1 2 3
M  V30 3 1 3 4
M  V30 4 2 4 5
M  V30 5 1 5 6
M  V30 6 2 6 7
M  V30 7 1 7 8
M  V30 8 1 8 9
M  V30 9 1 9 10
M  V30 10 1 10 11
M  V30 11 1 11 12
M  V30 12 1 12 13
M  V30 13 1 13 14
M  V30 14 1 14 15
M  V30 15 1 15 16
M  V30 16 2 16 17
M  V30 17 1 17 18
M  V30 18 2 18 19
M  V30 19 1 19 20
M  V30 20 2 20 21
M  V30 21 1 14 22
M  V30 22 1 22 23
M  V30 23 2 8 24
M  V30 24 1 2 25
M  V30 25 2 25 26
M  V30 26 1 26 27
M  V30 27 2 27 28
M  V30 28 1 28 29
M  V30 29 1 29 30
M  V30 30 1 30 31
M  V30 31 2 31 32
M  V30 32 1 31 33
M  V30 33 1 33 34
M  V30 34 1 34 35
M  V30 35 2 29 36
M  V30 36 1 24 4
M  V30 37 1 36 25
M  V30 38 1 23 11
M  V30 39 1 35 33
M  V30 40 1 21 16
M  V30 41 1 3 37
M  V30 42 1 5 38
M  V30 43 1 7 39
M  V30 44 1 10 40
M  V30 45 1 10 41
M  V30 46 1 11 42
M  V30 47 1 12 43
M  V30 48 1 12 44
M  V30 49 1 13 45
M  V30 50 1 13 46
M  V30 51 1 15 47
M  V30 52 1 15 48
M  V30 53 1 17 49
M  V30 54 1 18 50
M  V30 55 1 19 51
M  V30 56 1 20 52
M  V30 57 1 21 53
M  V30 58 1 22 54
M  V30 59 1 22 55
M  V30 60 1 23 56
M  V30 61 1 23 57
M  V30 62 1 24 58
M  V30 63 1 26 59
M  V30 64 1 27 60
M  V30 65 1 30 61
M  V30 66 1 33 62
M  V30 67 1 34 63
M  V30 68 1 34 64
M  V30 69 1 35 65
M  V30 70 1 35 66
M  V30 71 1 36 67
M  V30 END BOND
M  V30 END CTAB
M  END
>  <Dataset>  (481) 
ChEMBL_Kinases

>  <Ligand_Instance>  (481) 
nan

>  <PDB_ID>  (481) 
nan

>  <Standardized_SMILES>  (481) 
O=C(Nc1cncc(OCC2CCN(Cc3ccccc3)CC2)c1)c1ccnc(NC(=O)C2CC2)c1

>  <Name>  (481) 
nan

>  <Pocket>  (481) 
nan

>  <ATP_Site>  (481) 
nan

>  <Peripheral>  (481) 
nan

>  <Num_H_Atoms_ProtBoundConf>  (481) 
nan

>  <Num_Resolved_Atoms>  (481) 
nan

>  <Num_Not_Resolved_Atoms>  (481) 
nan

$$$$
CHEMBL4059912
     RDKit          3D

  0  0  0  0  0  0  0  0  0  0999 V3000
M  V30 BEGIN CTAB
M  V30 COUNTS 48 51 0 0 0
M  V30 BEGIN ATOM
M  V30 1 C 1.577964 -4.739452 0.239222 0
M  V30 2 C 1.819804 -3.772309 1.371399 0 CFG=1
M  V30 3 N 2.819475 -4.237652 2.303016 0
M  V30 4 C 2.651300 -3.421310 3.515785 0
M  V30 5 C 2.939658 -1.975734 3.169576 0
M  V30 6 C 3.235474 -1.804027 1.695074 0
M  V30 7 C 2.186597 -2.418426 0.800790 0 CFG=2
M  V30 8 N 0.993712 -1.645494 0.660150 0
M  V30 9 C 1.004282 -0.312211 0.123451 0
M  V30 10 N 2.167049 0.209437 -0.255101 0
M  V30 11 C 2.396039 1.410753 -0.770309 0
M  V30 12 C 1.278883 2.189136 -0.919838 0
M  V30 13 C 1.250571 3.540250 -1.457434 0
M  V30 14 N 2.514107 4.063325 -1.850517 0
M  V30 15 O 0.311639 4.358244 -1.649125 0
M  V30 16 C 0.013082 1.707908 -0.542476 0
M  V30 17 S -1.614212 2.401116 -0.583450 0
M  V30 18 C -2.448169 0.956001 0.117651 0
M  V30 19 C -3.859316 0.917186 0.338860 0
M  V30 20 C -4.636913 2.008792 0.014903 0
M  V30 21 C -5.990052 1.862257 0.270454 0
M  V30 22 C -6.545273 0.719477 0.808837 0
M  V30 23 C -5.715216 -0.361955 1.121133 0
M  V30 24 C -4.357388 -0.248583 0.878147 0
M  V30 25 C -1.433374 0.069533 0.325377 0
M  V30 26 C -0.151373 0.423604 -0.003391 0
M  V30 27 H 0.979455 -5.621217 0.549403 0
M  V30 28 H 2.527722 -5.004460 -0.263065 0
M  V30 29 H 0.945024 -4.214575 -0.512473 0
M  V30 30 H 0.888730 -3.643093 1.955735 0
M  V30 31 H 2.664480 -5.221748 2.546618 0
M  V30 32 H 3.217607 -3.799004 4.367648 0
M  V30 33 H 1.558858 -3.478653 3.763503 0
M  V30 34 H 2.138595 -1.286058 3.485622 0
M  V30 35 H 3.869196 -1.696117 3.709352 0
M  V30 36 H 3.414422 -0.736868 1.523235 0
M  V30 37 H 4.200749 -2.326564 1.498526 0
M  V30 38 H 2.685047 -2.591618 -0.185602 0
M  V30 39 H 0.047057 -2.031373 0.949522 0
M  V30 40 H 3.331616 1.817208 -1.069587 0
M  V30 41 H 3.046263 4.797889 -1.297302 0
M  V30 42 H 2.969907 4.795319 -1.232896 0
M  V30 43 H -4.233194 2.917465 -0.407640 0
M  V30 44 H -6.618117 2.729512 0.014548 0
M  V30 45 H -7.628296 0.749278 0.954517 0
M  V30 46 H -6.195627 -1.236294 1.541118 0
M  V30 47 H -3.744339 -1.106570 1.132467 0
M  V30 48 H -1.729479 -0.879540 0.749295 0
M  V30 END ATOM
M  V30 BEGIN BOND
M  V30 1 1 1 2
M  V30 2 1 2 3
M  V30 3 1 3 4
M  V30 4 1 4 5
M  V30 5 1 5 6
M  V30 6 1 6 7
M  V30 7 1 7 8
M  V30 8 1 8 9
M  V30 9 2 9 10
M  V30 10 1 10 11
M  V30 11 2 11 12
M  V30 12 1 12 13
M  V30 13 1 13 14
M  V30 14 2 13 15
M  V30 15 1 12 16
M  V30 16 1 16 17
M  V30 17 1 17 18
M  V30 18 1 18 19
M  V30 19 2 19 20
M  V30 20 1 20 21
M  V30 21 2 21 22
M  V30 22 1 22 23
M  V30 23 2 23 24
M  V30 24 2 18 25
M  V30 25 1 25 26
M  V30 26 1 7 2
M  V30 27 1 26 9
M  V30 28 2 26 16
M  V30 29 1 24 19
M  V30 30 1 1 27
M  V30 31 1 1 28
M  V30 32 1 1 29
M  V30 33 1 2 30 CFG=1
M  V30 34 1 3 31
M  V30 35 1 4 32
M  V30 36 1 4 33
M  V30 37 1 5 34
M  V30 38 1 5 35
M  V30 39 1 6 36
M  V30 40 1 6 37
M  V30 41 1 7 38 CFG=3
M  V30 42 1 8 39
M  V30 43 1 11 40
M  V30 44 1 14 41
M  V30 45 1 14 42
M  V30 46 1 20 43
M  V30 47 1 21 44
M  V30 48 1 22 45
M  V30 49 1 23 46
M  V30 50 1 24 47
M  V30 51 1 25 48
M  V30 END BOND
M  V30 END CTAB
M  END
>  <Dataset>  (482) 
ChEMBL_Kinases

>  <Ligand_Instance>  (482) 
nan

>  <PDB_ID>  (482) 
nan

>  <Standardized_SMILES>  (482) 
C[C@H]1NCCC[C@@H]1Nc1ncc(C(N)=O)c2sc(-c3ccccc3)cc12

>  <Name>  (482) 
nan

>  <Pocket>  (482) 
nan

>  <ATP_Site>  (482) 
nan

>  <Peripheral>  (482) 
nan

>  <Num_H_Atoms_ProtBoundConf>  (482) 
nan

>  <Num_Resolved_Atoms>  (482) 
nan

>  <Num_Not_Resolved_Atoms>  (482) 
nan

$$$$
CHEMBL4059904
     RDKit          3D

  0  0  0  0  0  0  0  0  0  0999 V3000
M  V30 BEGIN CTAB
M  V30 COUNTS 47 50 0 0 0
M  V30 BEGIN ATOM
M  V30 1 C -0.269263 -2.697304 4.672686 0
M  V30 2 C -0.055674 -3.332120 3.333461 0
M  V30 3 C -0.323139 -2.732073 2.117125 0
M  V30 4 C -0.009748 -3.601545 1.092627 0
M  V30 5 N -0.132823 -3.382861 -0.308740 0
M  V30 6 C -0.647916 -2.086505 -0.645555 0
M  V30 7 N 0.226129 -1.057132 -0.838972 0
M  V30 8 C -0.266542 0.168409 -1.156019 0
M  V30 9 C 0.736097 1.234906 -1.350817 0
M  V30 10 O 0.729002 1.533126 -2.566649 0
M  V30 11 N 1.564493 1.826800 -0.359202 0
M  V30 12 C 2.429207 2.844160 -0.921138 0
M  V30 13 C 3.407522 3.276852 0.146056 0
M  V30 14 N 2.827355 3.142049 1.444638 0
M  V30 15 C 2.645421 1.734714 1.752331 0 CFG=1
M  V30 16 C 2.534343 1.477808 3.220881 0
M  V30 17 C 1.383632 1.303653 1.002037 0
M  V30 18 N -1.592889 0.386611 -1.282337 0
M  V30 19 C -2.504453 -0.588117 -1.104273 0
M  V30 20 C -3.853981 -0.337138 -1.241475 0
M  V30 21 C -4.700302 -1.416307 -1.036037 0
M  V30 22 C -4.221001 -2.669401 -0.713106 0
M  V30 23 Cl -5.410185 -3.938476 -0.481003 0
M  V30 24 C -2.865155 -2.900039 -0.580477 0
M  V30 25 C -2.013918 -1.835269 -0.782401 0
M  V30 26 N 0.446305 -4.723413 1.706958 0
M  V30 27 N 0.414300 -4.552470 3.023202 0
M  V30 28 H -0.074618 -3.415060 5.475057 0
M  V30 29 H -1.344172 -2.415309 4.727598 0
M  V30 30 H 0.308289 -1.762542 4.784599 0
M  V30 31 H -0.716793 -1.735503 2.024454 0
M  V30 32 H 0.148016 -4.147435 -0.953672 0
M  V30 33 H 2.972871 2.470342 -1.816806 0
M  V30 34 H 1.823178 3.738942 -1.177880 0
M  V30 35 H 4.307799 2.620332 0.092119 0
M  V30 36 H 3.701122 4.355124 0.005686 0
M  V30 37 H 1.903894 3.618227 1.453541 0
M  V30 38 H 3.452997 1.119824 1.342649 0
M  V30 39 H 1.492915 1.400356 3.602318 0
M  V30 40 H 3.059723 0.533884 3.477093 0
M  V30 41 H 3.029285 2.302575 3.765026 0
M  V30 42 H 1.369191 0.214689 0.993338 0
M  V30 43 H 0.497276 1.803820 1.395967 0
M  V30 44 H -4.215815 0.655807 -1.497062 0
M  V30 45 H -5.764197 -1.233785 -1.139576 0
M  V30 46 H -2.541546 -3.904530 -0.321814 0
M  V30 47 H 0.703852 -5.242947 3.745164 0
M  V30 END ATOM
M  V30 BEGIN BOND
M  V30 1 1 1 2
M  V30 2 2 2 3
M  V30 3 1 3 4
M  V30 4 1 4 5
M  V30 5 1 5 6
M  V30 6 2 6 7
M  V30 7 1 7 8
M  V30 8 1 8 9
M  V30 9 2 9 10
M  V30 10 1 9 11
M  V30 11 1 11 12
M  V30 12 1 12 13
M  V30 13 1 13 14
M  V30 14 1 14 15
M  V30 15 1 15 16
M  V30 16 1 15 17
M  V30 17 2 8 18
M  V30 18 1 18 19
M  V30 19 2 19 20
M  V30 20 1 20 21
M  V30 21 2 21 22
M  V30 22 1 22 23
M  V30 23 1 22 24
M  V30 24 2 24 25
M  V30 25 2 4 26
M  V30 26 1 26 27
M  V30 27 1 27 2
M  V30 28 1 25 6
M  V30 29 1 17 11
M  V30 30 1 25 19
M  V30 31 1 1 28
M  V30 32 1 1 29
M  V30 33 1 1 30
M  V30 34 1 3 31
M  V30 35 1 5 32
M  V30 36 1 12 33
M  V30 37 1 12 34
M  V30 38 1 13 35
M  V30 39 1 13 36
M  V30 40 1 14 37
M  V30 41 1 15 38 CFG=3
M  V30 42 1 16 39
M  V30 43 1 16 40
M  V30 44 1 16 41
M  V30 45 1 17 42
M  V30 46 1 17 43
M  V30 47 1 20 44
M  V30 48 1 21 45
M  V30 49 1 24 46
M  V30 50 1 27 47
M  V30 END BOND
M  V30 END CTAB
M  END
>  <Dataset>  (483) 
ChEMBL_Kinases

>  <Ligand_Instance>  (483) 
nan

>  <PDB_ID>  (483) 
nan

>  <Standardized_SMILES>  (483) 
Cc1cc(Nc2nc(C(=O)N3CCN[C@@H](C)C3)nc3ccc(Cl)cc23)n[nH]1

>  <Name>  (483) 
nan

>  <Pocket>  (483) 
nan

>  <ATP_Site>  (483) 
nan

>  <Peripheral>  (483) 
nan

>  <Num_H_Atoms_ProtBoundConf>  (483) 
nan

>  <Num_Resolved_Atoms>  (483) 
nan

>  <Num_Not_Resolved_Atoms>  (483) 
nan

$$$$
CHEMBL4059881
     RDKit          3D

  0  0  0  0  0  0  0  0  0  0999 V3000
M  V30 BEGIN CTAB
M  V30 COUNTS 43 45 0 0 0
M  V30 BEGIN ATOM
M  V30 1 C 2.002576 -5.831948 -0.576160 0
M  V30 2 C 0.731213 -5.060946 -0.640999 0
M  V30 3 C -0.393519 -5.728091 -1.089439 0
M  V30 4 C -1.626484 -5.124585 -1.194129 0
M  V30 5 C -1.749781 -3.800342 -0.838261 0
M  V30 6 C -0.652003 -3.105183 -0.387813 0
M  V30 7 N -0.582839 -1.742389 0.022889 0
M  V30 8 C -0.290514 -0.744623 -0.915668 0
M  V30 9 O -0.138684 -1.333894 -2.025008 0
M  V30 10 C -0.169045 0.706338 -0.723758 0
M  V30 11 C 0.137500 1.344452 -1.936634 0
M  V30 12 C 0.302218 2.696295 -2.021889 0
M  V30 13 Br 0.719113 3.578218 -3.661974 0
M  V30 14 C 0.171659 3.492481 -0.906748 0
M  V30 15 C -0.128614 2.834951 0.262147 0
M  V30 16 C -0.308911 1.486584 0.431256 0
M  V30 17 O -0.600996 0.733926 1.500952 0
M  V30 18 C -0.810596 1.083783 2.816799 0
M  V30 19 C 0.324625 1.720272 3.528045 0
M  V30 20 C 0.662082 3.025959 3.811656 0
M  V30 21 C 1.811583 3.365810 4.484185 0
M  V30 22 C 2.711959 2.422205 4.925149 0
M  V30 23 C 2.426247 1.098822 4.670145 0
M  V30 24 C 1.267441 0.787474 3.994082 0
M  V30 25 C 0.592820 -3.718424 -0.283256 0
M  V30 26 H 1.869494 -6.712088 0.077832 0
M  V30 27 H 2.316645 -6.173669 -1.582482 0
M  V30 28 H 2.836045 -5.199672 -0.200083 0
M  V30 29 H -0.318619 -6.774937 -1.375880 0
M  V30 30 H -2.491607 -5.663974 -1.546658 0
M  V30 31 H -2.648204 -3.240351 -0.879693 0
M  V30 32 H -0.741381 -1.435888 1.007984 0
M  V30 33 H 0.268380 0.842965 -2.888998 0
M  V30 34 H 0.288364 4.567991 -0.901154 0
M  V30 35 H -0.245599 3.426504 1.141566 0
M  V30 36 H -1.693167 1.806505 2.891205 0
M  V30 37 H -1.100928 0.186037 3.446217 0
M  V30 38 H -0.087970 3.711984 3.450498 0
M  V30 39 H 1.939825 4.430442 4.632046 0
M  V30 40 H 3.569029 2.832870 5.437715 0
M  V30 41 H 3.136268 0.382956 5.020146 0
M  V30 42 H 1.157683 -0.291629 3.855716 0
M  V30 43 H 1.511659 -3.262572 0.057246 0
M  V30 END ATOM
M  V30 BEGIN BOND
M  V30 1 1 1 2
M  V30 2 2 2 3
M  V30 3 1 3 4
M  V30 4 2 4 5
M  V30 5 1 5 6
M  V30 6 1 6 7
M  V30 7 1 7 8
M  V30 8 2 8 9
M  V30 9 1 8 10
M  V30 10 2 10 11
M  V30 11 1 11 12
M  V30 12 1 12 13
M  V30 13 2 12 14
M  V30 14 1 14 15
M  V30 15 2 15 16
M  V30 16 1 16 17
M  V30 17 1 17 18
M  V30 18 1 18 19
M  V30 19 2 19 20
M  V30 20 1 20 21
M  V30 21 2 21 22
M  V30 22 1 22 23
M  V30 23 2 23 24
M  V30 24 2 6 25
M  V30 25 1 25 2
M  V30 26 1 16 10
M  V30 27 1 24 19
M  V30 28 1 1 26
M  V30 29 1 1 27
M  V30 30 1 1 28
M  V30 31 1 3 29
M  V30 32 1 4 30
M  V30 33 1 5 31
M  V30 34 1 7 32
M  V30 35 1 11 33
M  V30 36 1 14 34
M  V30 37 1 15 35
M  V30 38 1 18 36
M  V30 39 1 18 37
M  V30 40 1 20 38
M  V30 41 1 21 39
M  V30 42 1 22 40
M  V30 43 1 23 41
M  V30 44 1 24 42
M  V30 45 1 25 43
M  V30 END BOND
M  V30 END CTAB
M  END
>  <Dataset>  (484) 
ChEMBL_Kinases

>  <Ligand_Instance>  (484) 
nan

>  <PDB_ID>  (484) 
nan

>  <Standardized_SMILES>  (484) 
Cc1cccc(NC(=O)c2cc(Br)ccc2OCc2ccccc2)c1

>  <Name>  (484) 
nan

>  <Pocket>  (484) 
nan

>  <ATP_Site>  (484) 
nan

>  <Peripheral>  (484) 
nan

>  <Num_H_Atoms_ProtBoundConf>  (484) 
nan

>  <Num_Resolved_Atoms>  (484) 
nan

>  <Num_Not_Resolved_Atoms>  (484) 
nan

$$$$
CHEMBL4059744
     RDKit          3D

  0  0  0  0  0  0  0  0  0  0999 V3000
M  V30 BEGIN CTAB
M  V30 COUNTS 36 38 0 0 0
M  V30 BEGIN ATOM
M  V30 1 N -1.116916 -2.320976 4.648330 0
M  V30 2 C -0.121514 -2.419394 4.057694 0
M  V30 3 C 1.102670 -2.554057 3.354673 0
M  V30 4 C 2.158001 -3.319608 3.858048 0
M  V30 5 N 3.211190 -3.301890 3.025060 0
M  V30 6 C 2.835076 -2.529025 1.991509 0
M  V30 7 N 3.441470 -2.132481 0.851956 0
M  V30 8 C 2.805946 -1.331710 -0.031543 0
M  V30 9 N 3.594045 -1.012178 -1.178024 0
M  V30 10 N 1.554286 -0.887990 0.164472 0
M  V30 11 C 0.882949 -1.239073 1.275870 0
M  V30 12 N -0.424996 -0.756932 1.449156 0
M  V30 13 C -0.989079 0.089708 0.432937 0 CFG=1
M  V30 14 C -0.244559 1.361431 0.179748 0
M  V30 15 C -1.186339 2.295456 -0.538560 0
M  V30 16 C -2.033139 1.676949 -1.583011 0 CFG=2
M  V30 17 O -3.359542 2.122849 -1.366215 0
M  V30 18 C -2.073008 0.219368 -1.723437 0
M  V30 19 C -1.063873 -0.572999 -0.935706 0
M  V30 20 C 1.551381 -2.056134 2.162117 0
M  V30 21 H 2.196024 -3.887923 4.799870 0
M  V30 22 H 4.126089 -3.786799 3.156069 0
M  V30 23 H 3.447186 -1.622676 -2.027713 0
M  V30 24 H 4.328342 -0.295146 -1.436963 0
M  V30 25 H -1.037184 -0.961117 2.264554 0
M  V30 26 H -2.039360 0.395909 0.685336 0
M  V30 27 H 0.130805 1.864183 1.075526 0
M  V30 28 H 0.596004 1.167878 -0.535212 0
M  V30 29 H -1.779121 2.798377 0.258920 0
M  V30 30 H -0.537202 3.098156 -0.957732 0
M  V30 31 H -1.773701 2.137560 -2.580601 0
M  V30 32 H -3.502674 2.021221 -0.383444 0
M  V30 33 H -3.066657 -0.222249 -1.452393 0
M  V30 34 H -1.932624 -0.101830 -2.789442 0
M  V30 35 H -0.089058 -0.442359 -1.489898 0
M  V30 36 H -1.377252 -1.621370 -0.886967 0
M  V30 END ATOM
M  V30 BEGIN BOND
M  V30 1 3 1 2
M  V30 2 1 2 3
M  V30 3 2 3 4
M  V30 4 1 4 5
M  V30 5 1 5 6
M  V30 6 2 6 7
M  V30 7 1 7 8
M  V30 8 1 8 9
M  V30 9 2 8 10
M  V30 10 1 10 11
M  V30 11 1 11 12
M  V30 12 1 12 13
M  V30 13 1 13 14
M  V30 14 1 14 15
M  V30 15 1 15 16
M  V30 16 1 16 17
M  V30 17 1 16 18
M  V30 18 1 18 19
M  V30 19 2 11 20
M  V30 20 1 20 3
M  V30 21 1 20 6
M  V30 22 1 19 13
M  V30 23 1 4 21
M  V30 24 1 5 22
M  V30 25 1 9 23
M  V30 26 1 9 24
M  V30 27 1 12 25
M  V30 28 1 13 26 CFG=1
M  V30 29 1 14 27
M  V30 30 1 14 28
M  V30 31 1 15 29
M  V30 32 1 15 30
M  V30 33 1 16 31 CFG=3
M  V30 34 1 17 32
M  V30 35 1 18 33
M  V30 36 1 18 34
M  V30 37 1 19 35
M  V30 38 1 19 36
M  V30 END BOND
M  V30 END CTAB
M  END
>  <Dataset>  (485) 
ChEMBL_Kinases

>  <Ligand_Instance>  (485) 
nan

>  <PDB_ID>  (485) 
nan

>  <Standardized_SMILES>  (485) 
N#Cc1c[nH]c2nc(N)nc(N[C@H]3CC[C@H](O)CC3)c12

>  <Name>  (485) 
nan

>  <Pocket>  (485) 
nan

>  <ATP_Site>  (485) 
nan

>  <Peripheral>  (485) 
nan

>  <Num_H_Atoms_ProtBoundConf>  (485) 
nan

>  <Num_Resolved_Atoms>  (485) 
nan

>  <Num_Not_Resolved_Atoms>  (485) 
nan

$$$$
CHEMBL4059737
     RDKit          3D

  0  0  0  0  0  0  0  0  0  0999 V3000
M  V30 BEGIN CTAB
M  V30 COUNTS 70 74 0 0 0
M  V30 BEGIN ATOM
M  V30 1 C 1.783430 -3.358706 0.132744 0
M  V30 2 N 0.599445 -4.056595 0.556271 0
M  V30 3 C -0.343821 -4.718317 -0.165075 0
M  V30 4 C -0.261363 -4.813704 -1.665336 0
M  V30 5 N -0.951582 -3.681976 -2.258613 0
M  V30 6 C -1.038823 -3.512310 -3.653243 0
M  V30 7 C -0.493280 -4.404009 -4.552352 0
M  V30 8 C -0.611314 -4.182473 -5.907726 0
M  V30 9 C -1.281100 -3.057786 -6.405592 0
M  V30 10 C -1.826923 -2.164746 -5.517082 0
M  V30 11 C -2.518777 -1.003697 -6.076603 0
M  V30 12 O -2.613939 -0.921555 -7.308300 0
M  V30 13 N -3.085613 0.031911 -5.297518 0
M  V30 14 C -3.772705 1.189236 -5.778506 0
M  V30 15 C -4.225670 2.083068 -4.658878 0
M  V30 16 C -3.131818 2.793979 -4.160655 0
M  V30 17 F -1.853914 2.732072 -4.574034 0
M  V30 18 C -3.320091 3.690518 -3.110024 0
M  V30 19 C -4.585843 3.857931 -2.582327 0
M  V30 20 C -5.630241 3.150209 -3.090356 0
M  V30 21 C -5.481757 2.247935 -4.136688 0
M  V30 22 F -6.424658 1.493565 -4.724105 0
M  V30 23 C -1.686108 -2.423978 -4.193286 0
M  V30 24 N -1.289128 -5.226398 0.676564 0
M  V30 25 N -0.936814 -4.882403 1.922824 0
M  V30 26 C 0.219278 -4.166962 1.842383 0
M  V30 27 C 0.825115 -3.663289 3.076301 0
M  V30 28 C 1.234001 -4.344740 4.204080 0
M  V30 29 C 1.780653 -3.623681 5.244771 0
M  V30 30 N 1.919131 -2.288168 5.178484 0
M  V30 31 C 1.531022 -1.577445 4.089826 0
M  V30 32 N 1.701039 -0.151522 4.069780 0
M  V30 33 C 2.276285 0.505331 5.202474 0
M  V30 34 C 2.334078 1.992865 4.900009 0
M  V30 35 C 2.931918 2.654356 6.086701 0
M  V30 36 C 2.072739 3.083224 7.086861 0
M  V30 37 C 2.427497 3.714263 8.257257 0
M  V30 38 C 3.786732 3.925444 8.417964 0
M  V30 39 C 4.698176 3.517961 7.449871 0
M  V30 40 C 4.280975 2.888257 6.293870 0
M  V30 41 C 0.983614 -2.274975 3.040752 0
M  V30 42 H 1.567366 -2.316929 -0.203728 0
M  V30 43 H 2.559358 -3.388980 0.917249 0
M  V30 44 H 2.196919 -3.883376 -0.753336 0
M  V30 45 H 0.777790 -4.910279 -1.999225 0
M  V30 46 H -0.879037 -5.707622 -1.947925 0
M  V30 47 H -1.396874 -2.973650 -1.629712 0
M  V30 48 H 0.026965 -5.278215 -4.147313 0
M  V30 49 H -0.181401 -4.884686 -6.613467 0
M  V30 50 H -1.334901 -2.948598 -7.496193 0
M  V30 51 H -2.988468 -0.064240 -4.255888 0
M  V30 52 H -3.250146 1.744403 -6.565482 0
M  V30 53 H -4.727730 0.829348 -6.249276 0
M  V30 54 H -2.517149 4.281458 -2.667788 0
M  V30 55 H -4.734088 4.557743 -1.762719 0
M  V30 56 H -6.630239 3.245974 -2.714227 0
M  V30 57 H -2.112839 -1.727933 -3.484430 0
M  V30 58 H 1.065333 -5.409222 4.123802 0
M  V30 59 H 2.079238 -4.226551 6.098866 0
M  V30 60 H 1.393812 0.359098 3.216423 0
M  V30 61 H 3.238211 0.098459 5.508787 0
M  V30 62 H 1.569212 0.381532 6.056185 0
M  V30 63 H 2.960930 2.191309 3.992349 0
M  V30 64 H 1.333663 2.395312 4.747083 0
M  V30 65 H 0.992416 2.917104 6.962617 0
M  V30 66 H 1.691626 4.013498 8.980695 0
M  V30 67 H 4.152086 4.408349 9.295503 0
M  V30 68 H 5.767295 3.690351 7.588826 0
M  V30 69 H 4.947172 2.550794 5.508698 0
M  V30 70 H 0.695407 -1.631463 2.198642 0
M  V30 END ATOM
M  V30 BEGIN BOND
M  V30 1 1 1 2
M  V30 2 1 2 3
M  V30 3 1 3 4
M  V30 4 1 4 5
M  V30 5 1 5 6
M  V30 6 2 6 7
M  V30 7 1 7 8
M  V30 8 2 8 9
M  V30 9 1 9 10
M  V30 10 1 10 11
M  V30 11 2 11 12
M  V30 12 1 11 13
M  V30 13 1 13 14
M  V30 14 1 14 15
M  V30 15 2 15 16
M  V30 16 1 16 17
M  V30 17 1 16 18
M  V30 18 2 18 19
M  V30 19 1 19 20
M  V30 20 2 20 21
M  V30 21 1 21 22
M  V30 22 2 10 23
M  V30 23 2 3 24
M  V30 24 1 24 25
M  V30 25 2 25 26
M  V30 26 1 26 27
M  V30 27 2 27 28
M  V30 28 1 28 29
M  V30 29 2 29 30
M  V30 30 1 30 31
M  V30 31 1 31 32
M  V30 32 1 32 33
M  V30 33 1 33 34
M  V30 34 1 34 35
M  V30 35 2 35 36
M  V30 36 1 36 37
M  V30 37 2 37 38
M  V30 38 1 38 39
M  V30 39 2 39 40
M  V30 40 2 31 41
M  V30 41 1 26 2
M  V30 42 1 41 27
M  V30 43 1 23 6
M  V30 44 1 40 35
M  V30 45 1 21 15
M  V30 46 1 1 42
M  V30 47 1 1 43
M  V30 48 1 1 44
M  V30 49 1 4 45
M  V30 50 1 4 46
M  V30 51 1 5 47
M  V30 52 1 7 48
M  V30 53 1 8 49
M  V30 54 1 9 50
M  V30 55 1 13 51
M  V30 56 1 14 52
M  V30 57 1 14 53
M  V30 58 1 18 54
M  V30 59 1 19 55
M  V30 60 1 20 56
M  V30 61 1 23 57
M  V30 62 1 28 58
M  V30 63 1 29 59
M  V30 64 1 32 60
M  V30 65 1 33 61
M  V30 66 1 33 62
M  V30 67 1 34 63
M  V30 68 1 34 64
M  V30 69 1 36 65
M  V30 70 1 37 66
M  V30 71 1 38 67
M  V30 72 1 39 68
M  V30 73 1 40 69
M  V30 74 1 41 70
M  V30 END BOND
M  V30 END CTAB
M  END
>  <Dataset>  (486) 
ChEMBL_Kinases

>  <Ligand_Instance>  (486) 
nan

>  <PDB_ID>  (486) 
nan

>  <Standardized_SMILES>  (486) 
Cn1c(CNc2cccc(C(=O)NCc3c(F)cccc3F)c2)nnc1-c1ccnc(NCCc2ccccc2)c1

>  <Name>  (486) 
nan

>  <Pocket>  (486) 
nan

>  <ATP_Site>  (486) 
nan

>  <Peripheral>  (486) 
nan

>  <Num_H_Atoms_ProtBoundConf>  (486) 
nan

>  <Num_Resolved_Atoms>  (486) 
nan

>  <Num_Not_Resolved_Atoms>  (486) 
nan

$$$$
CHEMBL4059727
     RDKit          3D

  0  0  0  0  0  0  0  0  0  0999 V3000
M  V30 BEGIN CTAB
M  V30 COUNTS 58 62 0 0 0
M  V30 BEGIN ATOM
M  V30 1 C 7.932916 -0.994122 4.039314 0
M  V30 2 N 6.712628 -0.665540 3.353549 0
M  V30 3 C 6.866919 -0.298539 1.988238 0
M  V30 4 O 8.045538 -0.309349 1.561309 0
M  V30 5 C 5.778930 0.075146 1.090193 0
M  V30 6 C 6.137237 0.400629 -0.199625 0
M  V30 7 C 5.157463 0.764768 -1.106187 0
M  V30 8 C 3.805234 0.810832 -0.743782 0
M  V30 9 C 3.520966 0.467450 0.580596 0
M  V30 10 C 4.470367 0.095995 1.524827 0
M  V30 11 C 2.197888 0.423428 1.249949 0
M  V30 12 O 2.180063 0.128770 2.474362 0
M  V30 13 C 0.920108 0.697385 0.588799 0
M  V30 14 C -0.109461 0.109488 1.319054 0
M  V30 15 C -1.382734 0.286494 0.810436 0
M  V30 16 C -1.598894 1.002468 -0.347244 0
M  V30 17 N -2.908732 1.172250 -0.853948 0
M  V30 18 C -4.114920 0.655803 -0.342950 0
M  V30 19 C -5.097961 1.541333 0.044229 0
M  V30 20 C -6.258779 0.982898 0.535521 0
M  V30 21 C -6.428234 -0.372767 0.634274 0
M  V30 22 C -5.443044 -1.269688 0.246363 0
M  V30 23 C -5.781213 -2.673931 0.415334 0
M  V30 24 O -6.888016 -3.065100 0.886568 0
M  V30 25 N -4.983988 -3.796940 0.103178 0
M  V30 26 C -5.371494 -5.156301 0.292320 0
M  V30 27 C -4.397150 -6.249849 0.457606 0
M  V30 28 C -5.046841 -6.063088 -0.906180 0
M  V30 29 C -4.303666 -0.703337 -0.236286 0
M  V30 30 F -3.337010 -1.539755 -0.620059 0
M  V30 31 C -0.556454 1.572139 -1.046747 0
M  V30 32 C 0.739200 1.430876 -0.589716 0
M  V30 33 C 1.751622 2.082321 -1.422007 0
M  V30 34 C 2.897888 1.217880 -1.830195 0
M  V30 35 H 8.478462 -0.042662 4.229872 0
M  V30 36 H 7.641017 -1.378958 5.044885 0
M  V30 37 H 8.583480 -1.696730 3.488229 0
M  V30 38 H 5.742398 -0.668048 3.745803 0
M  V30 39 H 7.171220 0.385346 -0.547501 0
M  V30 40 H 5.376059 1.036421 -2.150209 0
M  V30 41 H 4.193701 -0.155840 2.522500 0
M  V30 42 H 0.129847 -0.439516 2.219692 0
M  V30 43 H -2.174074 -0.173283 1.386066 0
M  V30 44 H -3.109245 1.733134 -1.709004 0
M  V30 45 H -4.973438 2.599615 -0.029916 0
M  V30 46 H -7.049905 1.645900 0.848239 0
M  V30 47 H -7.391373 -0.720850 1.039475 0
M  V30 48 H -4.034994 -3.638604 -0.297906 0
M  V30 49 H -6.387476 -5.336818 0.722580 0
M  V30 50 H -4.696964 -7.127863 1.066075 0
M  V30 51 H -3.307039 -6.098428 0.418724 0
M  V30 52 H -5.799082 -6.815781 -1.192125 0
M  V30 53 H -4.487792 -5.637029 -1.742025 0
M  V30 54 H -0.698184 2.145876 -1.969062 0
M  V30 55 H 1.269787 2.457943 -2.330133 0
M  V30 56 H 2.136259 2.969674 -0.876748 0
M  V30 57 H 3.496449 1.821280 -2.545158 0
M  V30 58 H 2.529119 0.337320 -2.406179 0
M  V30 END ATOM
M  V30 BEGIN BOND
M  V30 1 1 1 2
M  V30 2 1 2 3
M  V30 3 2 3 4
M  V30 4 1 3 5
M  V30 5 2 5 6
M  V30 6 1 6 7
M  V30 7 2 7 8
M  V30 8 1 8 9
M  V30 9 2 9 10
M  V30 10 1 9 11
M  V30 11 2 11 12
M  V30 12 1 11 13
M  V30 13 2 13 14
M  V30 14 1 14 15
M  V30 15 2 15 16
M  V30 16 1 16 17
M  V30 17 1 17 18
M  V30 18 2 18 19
M  V30 19 1 19 20
M  V30 20 2 20 21
M  V30 21 1 21 22
M  V30 22 1 22 23
M  V30 23 2 23 24
M  V30 24 1 23 25
M  V30 25 1 25 26
M  V30 26 1 26 27
M  V30 27 1 27 28
M  V30 28 2 22 29
M  V30 29 1 29 30
M  V30 30 1 16 31
M  V30 31 2 31 32
M  V30 32 1 32 33
M  V30 33 1 33 34
M  V30 34 1 10 5
M  V30 35 1 32 13
M  V30 36 1 34 8
M  V30 37 1 29 18
M  V30 38 1 28 26
M  V30 39 1 1 35
M  V30 40 1 1 36
M  V30 41 1 1 37
M  V30 42 1 2 38
M  V30 43 1 6 39
M  V30 44 1 7 40
M  V30 45 1 10 41
M  V30 46 1 14 42
M  V30 47 1 15 43
M  V30 48 1 17 44
M  V30 49 1 19 45
M  V30 50 1 20 46
M  V30 51 1 21 47
M  V30 52 1 25 48
M  V30 53 1 26 49
M  V30 54 1 27 50
M  V30 55 1 27 51
M  V30 56 1 28 52
M  V30 57 1 28 53
M  V30 58 1 31 54
M  V30 59 1 33 55
M  V30 60 1 33 56
M  V30 61 1 34 57
M  V30 62 1 34 58
M  V30 END BOND
M  V30 END CTAB
M  END
>  <Dataset>  (487) 
ChEMBL_Kinases

>  <Ligand_Instance>  (487) 
nan

>  <PDB_ID>  (487) 
nan

>  <Standardized_SMILES>  (487) 
CNC(=O)c1ccc2c(c1)C(=O)c1ccc(Nc3cccc(C(=O)NC4CC4)c3F)cc1CC2

>  <Name>  (487) 
nan

>  <Pocket>  (487) 
nan

>  <ATP_Site>  (487) 
nan

>  <Peripheral>  (487) 
nan

>  <Num_H_Atoms_ProtBoundConf>  (487) 
nan

>  <Num_Resolved_Atoms>  (487) 
nan

>  <Num_Not_Resolved_Atoms>  (487) 
nan

$$$$
CHEMBL4059705
     RDKit          3D

  0  0  0  0  0  0  0  0  0  0999 V3000
M  V30 BEGIN CTAB
M  V30 COUNTS 66 68 0 0 0
M  V30 BEGIN ATOM
M  V30 1 C 8.144333 -2.912884 -0.161245 0
M  V30 2 C 7.149529 -1.823885 0.062890 0
M  V30 3 N 5.744429 -2.352285 -0.023239 0
M  V30 4 C 5.584923 -2.718886 -1.420015 0
M  V30 5 C 4.297846 -3.461817 -1.591861 0
M  V30 6 C 4.970940 -1.216874 0.386701 0
M  V30 7 C 3.502503 -1.343876 0.449785 0
M  V30 8 C 2.975080 0.025882 0.931678 0
M  V30 9 C 1.476349 0.046033 1.049054 0
M  V30 10 C 1.063689 1.428446 1.531072 0
M  V30 11 N 0.906023 -0.172598 -0.265314 0
M  V30 12 C -0.514259 -0.175207 -0.330771 0
M  V30 13 N -1.282504 0.035247 0.768366 0
M  V30 14 C -2.625307 0.052304 0.749117 0
M  V30 15 C -3.376186 0.290492 1.987786 0
M  V30 16 C -4.692011 0.322773 1.980842 0
M  V30 17 C -5.537154 0.549797 3.144658 0
M  V30 18 C -5.015069 0.745582 4.394998 0
M  V30 19 C -5.806227 0.966233 5.506892 0
M  V30 20 C -7.191612 0.985880 5.322187 0
M  V30 21 C -7.718917 0.789420 4.067055 0
M  V30 22 C -9.205442 0.803866 3.823147 0
M  V30 23 F -9.459483 1.500238 2.674425 0
M  V30 24 F -9.712814 -0.475808 3.765330 0
M  V30 25 F -9.817328 1.430490 4.883071 0
M  V30 26 C -6.912436 0.573021 2.982869 0
M  V30 27 N -3.301582 -0.145677 -0.399769 0
M  V30 28 C -2.645224 -0.367591 -1.570452 0
M  V30 29 C -3.285375 -0.576513 -2.762573 0
M  V30 30 C -2.599034 -0.802602 -3.935667 0
M  V30 31 C -1.219446 -0.811763 -3.870774 0
M  V30 32 N -0.520398 -1.046205 -5.086515 0
M  V30 33 C -0.599337 -0.597107 -2.650094 0
M  V30 34 C -1.272613 -0.369491 -1.465682 0
M  V30 35 H 8.738494 -2.683386 -1.087592 0
M  V30 36 H 8.897843 -2.824419 0.671600 0
M  V30 37 H 7.717197 -3.928102 -0.211972 0
M  V30 38 H 7.261522 -1.291206 1.019064 0
M  V30 39 H 7.218150 -1.058277 -0.732660 0
M  V30 40 H 6.421288 -3.373502 -1.728737 0
M  V30 41 H 5.663605 -1.827278 -2.083373 0
M  V30 42 H 4.546207 -4.491710 -1.997338 0
M  V30 43 H 3.790527 -3.691270 -0.632561 0
M  V30 44 H 3.647942 -2.913390 -2.273735 0
M  V30 45 H 5.325105 -0.974765 1.432663 0
M  V30 46 H 5.300535 -0.314729 -0.201239 0
M  V30 47 H 2.980067 -1.513967 -0.502862 0
M  V30 48 H 3.171454 -2.095926 1.165769 0
M  V30 49 H 3.382948 0.253420 1.942495 0
M  V30 50 H 3.352625 0.833030 0.278182 0
M  V30 51 H 1.110720 -0.687947 1.789896 0
M  V30 52 H 0.437484 1.357751 2.443748 0
M  V30 53 H 1.956249 2.022787 1.765325 0
M  V30 54 H 0.529374 1.985438 0.723757 0
M  V30 55 H 1.511451 -0.310180 -1.092323 0
M  V30 56 H -2.861734 0.444070 2.925611 0
M  V30 57 H -5.152603 0.162316 1.007974 0
M  V30 58 H -3.973796 0.740524 4.594715 0
M  V30 59 H -5.477202 1.128846 6.523736 0
M  V30 60 H -7.939260 1.148084 6.104950 0
M  V30 61 H -7.362282 0.420563 1.996008 0
M  V30 62 H -4.359433 -0.543866 -2.670621 0
M  V30 63 H -3.188387 -0.957635 -4.828502 0
M  V30 64 H -0.470502 -2.041579 -5.410324 0
M  V30 65 H -0.598061 -2.094516 -5.211840 0
M  V30 66 H 0.473374 -0.628111 -2.730526 0
M  V30 END ATOM
M  V30 BEGIN BOND
M  V30 1 1 1 2
M  V30 2 1 2 3
M  V30 3 1 3 4
M  V30 4 1 4 5
M  V30 5 1 3 6
M  V30 6 1 6 7
M  V30 7 1 7 8
M  V30 8 1 8 9
M  V30 9 1 9 10
M  V30 10 1 9 11
M  V30 11 1 11 12
M  V30 12 2 12 13
M  V30 13 1 13 14
M  V30 14 1 14 15
M  V30 15 2 15 16
M  V30 16 1 16 17
M  V30 17 2 17 18
M  V30 18 1 18 19
M  V30 19 2 19 20
M  V30 20 1 20 21
M  V30 21 1 21 22
M  V30 22 1 22 23
M  V30 23 1 22 24
M  V30 24 1 22 25
M  V30 25 2 21 26
M  V30 26 2 14 27
M  V30 27 1 27 28
M  V30 28 2 28 29
M  V30 29 1 29 30
M  V30 30 2 30 31
M  V30 31 1 31 32
M  V30 32 1 31 33
M  V30 33 2 33 34
M  V30 34 1 34 12
M  V30 35 1 26 17
M  V30 36 1 34 28
M  V30 37 1 1 35
M  V30 38 1 1 36
M  V30 39 1 1 37
M  V30 40 1 2 38
M  V30 41 1 2 39
M  V30 42 1 4 40
M  V30 43 1 4 41
M  V30 44 1 5 42
M  V30 45 1 5 43
M  V30 46 1 5 44
M  V30 47 1 6 45
M  V30 48 1 6 46
M  V30 49 1 7 47
M  V30 50 1 7 48
M  V30 51 1 8 49
M  V30 52 1 8 50
M  V30 53 1 9 51
M  V30 54 1 10 52
M  V30 55 1 10 53
M  V30 56 1 10 54
M  V30 57 1 11 55
M  V30 58 1 15 56
M  V30 59 1 16 57
M  V30 60 1 18 58
M  V30 61 1 19 59
M  V30 62 1 20 60
M  V30 63 1 26 61
M  V30 64 1 29 62
M  V30 65 1 30 63
M  V30 66 1 32 64
M  V30 67 1 32 65
M  V30 68 1 33 66
M  V30 END BOND
M  V30 END CTAB
M  END
>  <Dataset>  (488) 
ChEMBL_Kinases

>  <Ligand_Instance>  (488) 
nan

>  <PDB_ID>  (488) 
nan

>  <Standardized_SMILES>  (488) 
CCN(CC)CCCC(C)Nc1nc(/C=C/c2cccc(C(F)(F)F)c2)nc2ccc(N)cc12

>  <Name>  (488) 
nan

>  <Pocket>  (488) 
nan

>  <ATP_Site>  (488) 
nan

>  <Peripheral>  (488) 
nan

>  <Num_H_Atoms_ProtBoundConf>  (488) 
nan

>  <Num_Resolved_Atoms>  (488) 
nan

>  <Num_Not_Resolved_Atoms>  (488) 
nan

$$$$
CHEMBL4863858
     RDKit          3D

  0  0  0  0  0  0  0  0  0  0999 V3000
M  V30 BEGIN CTAB
M  V30 COUNTS 44 45 0 0 0
M  V30 BEGIN ATOM
M  V30 1 C 1.081790 -3.791468 3.544951 0
M  V30 2 N 0.395060 -3.692002 2.317205 0
M  V30 3 C -0.420660 -4.773084 1.909414 0
M  V30 4 C 0.936222 -2.851306 1.314268 0
M  V30 5 C 0.781973 -1.418164 1.846407 0
M  V30 6 C -0.702606 -1.227524 2.045898 0
M  V30 7 N -1.355047 -1.401226 0.761601 0
M  V30 8 C -1.142362 -0.577294 -0.373888 0
M  V30 9 N -0.312266 0.470591 -0.374575 0
M  V30 10 C -0.054292 1.293936 -1.373304 0
M  V30 11 N 0.818399 2.408255 -1.372610 0
M  V30 12 C 1.582254 2.929399 -0.299227 0
M  V30 13 C 2.468934 3.973279 -0.446516 0
M  V30 14 C 3.212433 4.492540 0.583530 0
M  V30 15 C 3.104491 3.978685 1.853903 0
M  V30 16 C 3.872411 4.508780 2.940314 0
M  V30 17 N 4.488206 4.928053 3.833438 0
M  V30 18 N 2.250370 2.966444 2.016994 0
M  V30 19 C 1.526906 2.466052 0.999618 0
M  V30 20 N -0.719363 1.019730 -2.507611 0
M  V30 21 C -1.580854 0.004357 -2.650982 0
M  V30 22 C -1.791707 -0.806270 -1.557951 0
M  V30 23 C -2.735622 -1.943094 -1.666626 0
M  V30 24 F -2.091469 -3.138536 -1.419079 0
M  V30 25 F -3.831953 -1.842514 -0.862241 0
M  V30 26 F -3.222130 -2.032997 -2.973891 0
M  V30 27 H 1.383933 -4.814378 3.838320 0
M  V30 28 H 2.034877 -3.197868 3.496048 0
M  V30 29 H 0.465045 -3.296357 4.327017 0
M  V30 30 H -0.272376 -5.678077 2.532783 0
M  V30 31 H -0.403704 -4.970051 0.818647 0
M  V30 32 H -1.488769 -4.462041 2.115757 0
M  V30 33 H 2.005874 -2.996265 1.108535 0
M  V30 34 H 0.402145 -2.952393 0.351298 0
M  V30 35 H 1.247264 -0.694938 1.171475 0
M  V30 36 H 1.239557 -1.432390 2.856806 0
M  V30 37 H -1.057914 -1.932081 2.792692 0
M  V30 38 H -0.897844 -0.156723 2.327366 0
M  V30 39 H -2.029145 -2.193587 0.674682 0
M  V30 40 H 0.941663 2.948927 -2.277127 0
M  V30 41 H 2.609003 4.434127 -1.427158 0
M  V30 42 H 3.888374 5.310272 0.403269 0
M  V30 43 H 0.870920 1.653721 1.263589 0
M  V30 44 H -2.100136 -0.185343 -3.585452 0
M  V30 END ATOM
M  V30 BEGIN BOND
M  V30 1 1 1 2
M  V30 2 1 2 3
M  V30 3 1 2 4
M  V30 4 1 4 5
M  V30 5 1 5 6
M  V30 6 1 6 7
M  V30 7 1 7 8
M  V30 8 2 8 9
M  V30 9 1 9 10
M  V30 10 1 10 11
M  V30 11 1 11 12
M  V30 12 2 12 13
M  V30 13 1 13 14
M  V30 14 2 14 15
M  V30 15 1 15 16
M  V30 16 3 16 17
M  V30 17 1 15 18
M  V30 18 2 18 19
M  V30 19 2 10 20
M  V30 20 1 20 21
M  V30 21 2 21 22
M  V30 22 1 22 23
M  V30 23 1 23 24
M  V30 24 1 23 25
M  V30 25 1 23 26
M  V30 26 1 22 8
M  V30 27 1 19 12
M  V30 28 1 1 27
M  V30 29 1 1 28
M  V30 30 1 1 29
M  V30 31 1 3 30
M  V30 32 1 3 31
M  V30 33 1 3 32
M  V30 34 1 4 33
M  V30 35 1 4 34
M  V30 36 1 5 35
M  V30 37 1 5 36
M  V30 38 1 6 37
M  V30 39 1 6 38
M  V30 40 1 7 39
M  V30 41 1 11 40
M  V30 42 1 13 41
M  V30 43 1 14 42
M  V30 44 1 19 43
M  V30 45 1 21 44
M  V30 END BOND
M  V30 END CTAB
M  END
>  <Dataset>  (489) 
ChEMBL_Kinases

>  <Ligand_Instance>  (489) 
nan

>  <PDB_ID>  (489) 
nan

>  <Standardized_SMILES>  (489) 
CN(C)CCCNc1nc(Nc2ccc(C#N)nc2)ncc1C(F)(F)F

>  <Name>  (489) 
nan

>  <Pocket>  (489) 
nan

>  <ATP_Site>  (489) 
nan

>  <Peripheral>  (489) 
nan

>  <Num_H_Atoms_ProtBoundConf>  (489) 
nan

>  <Num_Resolved_Atoms>  (489) 
nan

>  <Num_Not_Resolved_Atoms>  (489) 
nan

$$$$
CHEMBL4060990
     RDKit          3D

  0  0  0  0  0  0  0  0  0  0999 V3000
M  V30 BEGIN CTAB
M  V30 COUNTS 41 45 0 0 0
M  V30 BEGIN ATOM
M  V30 1 O 0.934828 3.207510 4.492500 0
M  V30 2 C 1.582638 2.220547 4.011677 0
M  V30 3 N 2.415495 1.337368 4.755494 0
M  V30 4 C 2.961481 0.362114 3.843798 0
M  V30 5 S 3.982884 -0.873449 4.217731 0
M  V30 6 N 2.447815 0.670635 2.551065 0
M  V30 7 C 2.656045 0.040669 1.292227 0
M  V30 8 O 3.698535 -0.646756 1.134594 0
M  V30 9 C 1.644464 0.220934 0.232473 0
M  V30 10 C 1.190955 1.641348 0.150016 0
M  V30 11 C 1.034735 2.234983 1.521725 0
M  V30 12 C 1.600332 1.801910 2.615472 0
M  V30 13 C -0.181384 1.518640 -0.399447 0
M  V30 14 C -0.947968 2.461197 -1.055016 0
M  V30 15 Cl -0.356442 4.079383 -1.370602 0
M  V30 16 C -2.217823 2.109534 -1.470998 0
M  V30 17 C -2.655551 0.829124 -1.208315 0
M  V30 18 Cl -4.274877 0.418565 -1.751804 0
M  V30 19 C -1.866112 -0.084018 -0.553420 0
M  V30 20 C -0.615473 0.230704 -0.133030 0
M  V30 21 N 0.385772 -0.486898 0.542026 0
M  V30 22 C 0.314999 -1.648798 1.355199 0
M  V30 23 C -0.099984 -2.900183 0.754261 0
M  V30 24 C -1.307064 -3.552718 0.622019 0
M  V30 25 C -1.446784 -4.765728 -0.012813 0
M  V30 26 C -0.360889 -5.410898 -0.564902 0
M  V30 27 C 0.867607 -4.797416 -0.457830 0
M  V30 28 C 0.990333 -3.577684 0.183777 0
M  V30 29 H 2.633114 1.339853 5.773500 0
M  V30 30 H 2.004500 -0.111252 -0.760090 0
M  V30 31 H 1.836906 2.288009 -0.477542 0
M  V30 32 H 0.393409 3.102974 1.612525 0
M  V30 33 H -2.850671 2.830350 -1.992217 0
M  V30 34 H -2.221335 -1.060831 -0.358121 0
M  V30 35 H -0.417178 -1.409550 2.197922 0
M  V30 36 H 1.278774 -1.754049 1.915040 0
M  V30 37 H -2.099623 -2.963571 1.090600 0
M  V30 38 H -2.488243 -5.073879 0.011841 0
M  V30 39 H -0.619536 -6.351735 -1.029525 0
M  V30 40 H 1.687179 -5.339812 -0.904702 0
M  V30 41 H 2.036973 -3.233177 0.177974 0
M  V30 END ATOM
M  V30 BEGIN BOND
M  V30 1 2 1 2
M  V30 2 1 2 3
M  V30 3 1 3 4
M  V30 4 2 4 5
M  V30 5 1 4 6
M  V30 6 1 6 7
M  V30 7 2 7 8
M  V30 8 1 7 9
M  V30 9 1 9 10
M  V30 10 1 10 11
M  V30 11 2 11 12
M  V30 12 1 10 13
M  V30 13 2 13 14
M  V30 14 1 14 15
M  V30 15 1 14 16
M  V30 16 2 16 17
M  V30 17 1 17 18
M  V30 18 1 17 19
M  V30 19 2 19 20
M  V30 20 1 20 21
M  V30 21 1 21 22
M  V30 22 1 22 23
M  V30 23 2 23 24
M  V30 24 1 24 25
M  V30 25 2 25 26
M  V30 26 1 26 27
M  V30 27 2 27 28
M  V30 28 1 12 2
M  V30 29 1 20 13
M  V30 30 1 28 23
M  V30 31 1 12 6
M  V30 32 1 21 9
M  V30 33 1 3 29
M  V30 34 1 9 30
M  V30 35 1 10 31
M  V30 36 1 11 32
M  V30 37 1 16 33
M  V30 38 1 19 34
M  V30 39 1 22 35
M  V30 40 1 22 36
M  V30 41 1 24 37
M  V30 42 1 25 38
M  V30 43 1 26 39
M  V30 44 1 27 40
M  V30 45 1 28 41
M  V30 END BOND
M  V30 END CTAB
M  END
>  <Dataset>  (490) 
ChEMBL_Kinases

>  <Ligand_Instance>  (490) 
nan

>  <PDB_ID>  (490) 
nan

>  <Standardized_SMILES>  (490) 
O=C1NC(=S)N2C(=O)C3C(C=C12)c1c(Cl)cc(Cl)cc1N3Cc1ccccc1

>  <Name>  (490) 
nan

>  <Pocket>  (490) 
nan

>  <ATP_Site>  (490) 
nan

>  <Peripheral>  (490) 
nan

>  <Num_H_Atoms_ProtBoundConf>  (490) 
nan

>  <Num_Resolved_Atoms>  (490) 
nan

>  <Num_Not_Resolved_Atoms>  (490) 
nan

$$$$
CHEMBL4060987
     RDKit          3D

  0  0  0  0  0  0  0  0  0  0999 V3000
M  V30 BEGIN CTAB
M  V30 COUNTS 42 45 0 0 0
M  V30 BEGIN ATOM
M  V30 1 C 0.706863 -3.630309 3.744286 0
M  V30 2 N 1.508716 -3.271085 2.589730 0
M  V30 3 C 1.900000 -2.017876 2.013727 0
M  V30 4 O 1.282905 -1.418018 2.891696 0
M  V30 5 N 2.702446 -2.110158 0.863751 0
M  V30 6 N 3.138782 -3.213430 0.286369 0
M  V30 7 C 3.910299 -2.924156 -0.755028 0
M  V30 8 C 3.990752 -1.561217 -0.876977 0
M  V30 9 N 4.642728 -0.765763 -1.737879 0
M  V30 10 C 4.574512 0.586296 -1.636160 0
M  V30 11 C 3.788277 1.061056 -0.589617 0
M  V30 12 C 3.103553 0.233701 0.312238 0
M  V30 13 N 2.374688 0.993878 1.247671 0
M  V30 14 C 0.982755 1.228492 1.555861 0
M  V30 15 C 0.599778 2.006063 2.617065 0
M  V30 16 C -0.754797 2.140961 2.778680 0
M  V30 17 N -1.658081 1.562074 1.967873 0
M  V30 18 C -1.324173 0.792845 0.917259 0
M  V30 19 C -2.400141 0.231788 0.127904 0
M  V30 20 C -3.694843 0.519572 0.500535 0
M  V30 21 C -4.789840 0.035627 -0.183251 0
M  V30 22 F -6.044696 0.330127 0.199297 0
M  V30 23 C -4.638694 -0.770942 -1.288366 0
M  V30 24 C -3.366036 -1.077012 -1.686494 0
M  V30 25 C -2.301532 -0.572742 -0.975326 0
M  V30 26 F -1.079085 -0.914241 -1.422991 0
M  V30 27 C 0.032416 0.661838 0.761030 0
M  V30 28 C 3.214295 -1.118780 0.160855 0
M  V30 29 H 0.345832 -2.783071 4.321884 0
M  V30 30 H 1.226251 -4.338571 4.420768 0
M  V30 31 H -0.192523 -4.161282 3.358907 0
M  V30 32 H 1.815983 -4.210011 2.159772 0
M  V30 33 H 4.340565 -3.724963 -1.325862 0
M  V30 34 H 5.100655 1.224065 -2.328543 0
M  V30 35 H 3.777469 2.150720 -0.566821 0
M  V30 36 H 3.051847 1.511099 1.873079 0
M  V30 37 H 1.365832 2.443748 3.231543 0
M  V30 38 H -1.108543 2.747466 3.605495 0
M  V30 39 H -3.933458 1.147556 1.358851 0
M  V30 40 H -5.471430 -1.169716 -1.850597 0
M  V30 41 H -3.225157 -1.704110 -2.545301 0
M  V30 42 H 0.369721 0.055937 -0.065199 0
M  V30 END ATOM
M  V30 BEGIN BOND
M  V30 1 1 1 2
M  V30 2 1 2 3
M  V30 3 2 3 4
M  V30 4 1 3 5
M  V30 5 1 5 6
M  V30 6 2 6 7
M  V30 7 1 7 8
M  V30 8 2 8 9
M  V30 9 1 9 10
M  V30 10 2 10 11
M  V30 11 1 11 12
M  V30 12 1 12 13
M  V30 13 1 13 14
M  V30 14 2 14 15
M  V30 15 1 15 16
M  V30 16 2 16 17
M  V30 17 1 17 18
M  V30 18 1 18 19
M  V30 19 2 19 20
M  V30 20 1 20 21
M  V30 21 1 21 22
M  V30 22 2 21 23
M  V30 23 1 23 24
M  V30 24 2 24 25
M  V30 25 1 25 26
M  V30 26 2 18 27
M  V30 27 2 12 28
M  V30 28 1 28 5
M  V30 29 1 28 8
M  V30 30 1 27 14
M  V30 31 1 25 19
M  V30 32 1 1 29
M  V30 33 1 1 30
M  V30 34 1 1 31
M  V30 35 1 2 32
M  V30 36 1 7 33
M  V30 37 1 10 34
M  V30 38 1 11 35
M  V30 39 1 13 36
M  V30 40 1 15 37
M  V30 41 1 16 38
M  V30 42 1 20 39
M  V30 43 1 23 40
M  V30 44 1 24 41
M  V30 45 1 27 42
M  V30 END BOND
M  V30 END CTAB
M  END
>  <Dataset>  (491) 
ChEMBL_Kinases

>  <Ligand_Instance>  (491) 
nan

>  <PDB_ID>  (491) 
nan

>  <Standardized_SMILES>  (491) 
CNC(=O)n1ncc2nccc(Nc3ccnc(-c4cc(F)ccc4F)c3)c21

>  <Name>  (491) 
nan

>  <Pocket>  (491) 
nan

>  <ATP_Site>  (491) 
nan

>  <Peripheral>  (491) 
nan

>  <Num_H_Atoms_ProtBoundConf>  (491) 
nan

>  <Num_Resolved_Atoms>  (491) 
nan

>  <Num_Not_Resolved_Atoms>  (491) 
nan

$$$$
CHEMBL4863351
     RDKit          3D

  0  0  0  0  0  0  0  0  0  0999 V3000
M  V30 BEGIN CTAB
M  V30 COUNTS 47 50 0 0 0
M  V30 BEGIN ATOM
M  V30 1 C -0.402495 -7.455520 -0.202508 0
M  V30 2 N -0.084609 -6.229857 -0.909514 0
M  V30 3 C -0.201856 -6.510662 -2.327603 0
M  V30 4 C 1.254234 -5.830876 -0.595215 0
M  V30 5 C 1.433278 -5.389912 0.822387 0
M  V30 6 N 0.567088 -4.238156 1.108937 0
M  V30 7 C 0.825536 -2.904942 0.978703 0
M  V30 8 C -0.336995 -2.292666 1.386728 0
M  V30 9 C -0.450433 -0.821413 1.389356 0
M  V30 10 C 0.633563 0.002258 1.628920 0
M  V30 11 C 0.397636 1.369450 1.602721 0
M  V30 12 N -0.796394 1.923554 1.363465 0
M  V30 13 C -1.318017 3.151191 1.276433 0
M  V30 14 C -0.478813 4.388405 1.471436 0
M  V30 15 C -0.927320 5.631133 1.405349 0
M  V30 16 C -0.095639 6.673415 1.595844 0
M  V30 17 C 1.216244 6.380852 1.857028 0
M  V30 18 C 2.485163 7.105264 2.132253 0
M  V30 19 N 2.308061 8.505219 2.126419 0
M  V30 20 O 3.557610 6.492605 2.338392 0
M  V30 21 S 1.218289 4.557656 1.820560 0
M  V30 22 C -2.661611 3.121572 0.996807 0
M  V30 23 N -2.939519 1.808918 0.916294 0
M  V30 24 C -1.826400 1.077284 1.134821 0
M  V30 25 C -1.713132 -0.301619 1.135229 0
M  V30 26 C -1.285091 -3.224464 1.757883 0
M  V30 27 N -0.657879 -4.377657 1.559892 0
M  V30 28 H 0.562100 -7.982572 0.020839 0
M  V30 29 H -0.903493 -7.281116 0.751518 0
M  V30 30 H -0.959073 -8.147303 -0.860476 0
M  V30 31 H -0.235308 -5.568548 -2.887014 0
M  V30 32 H -1.135080 -7.074348 -2.558124 0
M  V30 33 H 0.671333 -7.085335 -2.699137 0
M  V30 34 H 1.608293 -5.007666 -1.273053 0
M  V30 35 H 1.982484 -6.658841 -0.773491 0
M  V30 36 H 2.471784 -5.056510 0.962073 0
M  V30 37 H 1.251272 -6.196649 1.538105 0
M  V30 38 H 1.777761 -2.537785 0.621138 0
M  V30 39 H 1.608953 -0.430138 1.825039 0
M  V30 40 H 1.246439 2.012246 1.790545 0
M  V30 41 H -1.982492 5.884056 1.196024 0
M  V30 42 H -0.237976 7.744961 1.589340 0
M  V30 43 H 2.607175 9.401971 2.554558 0
M  V30 44 H 2.663611 9.348672 2.606474 0
M  V30 45 H -3.275413 4.006305 0.884672 0
M  V30 46 H -2.571756 -0.926420 0.945987 0
M  V30 47 H -2.281025 -3.000281 2.115562 0
M  V30 END ATOM
M  V30 BEGIN BOND
M  V30 1 1 1 2
M  V30 2 1 2 3
M  V30 3 1 2 4
M  V30 4 1 4 5
M  V30 5 1 5 6
M  V30 6 1 6 7
M  V30 7 2 7 8
M  V30 8 1 8 9
M  V30 9 1 9 10
M  V30 10 2 10 11
M  V30 11 1 11 12
M  V30 12 1 12 13
M  V30 13 1 13 14
M  V30 14 2 14 15
M  V30 15 1 15 16
M  V30 16 2 16 17
M  V30 17 1 17 18
M  V30 18 1 18 19
M  V30 19 2 18 20
M  V30 20 1 17 21
M  V30 21 2 13 22
M  V30 22 1 22 23
M  V30 23 2 23 24
M  V30 24 1 24 25
M  V30 25 1 8 26
M  V30 26 2 26 27
M  V30 27 1 27 6
M  V30 28 2 25 9
M  V30 29 1 24 12
M  V30 30 1 21 14
M  V30 31 1 1 28
M  V30 32 1 1 29
M  V30 33 1 1 30
M  V30 34 1 3 31
M  V30 35 1 3 32
M  V30 36 1 3 33
M  V30 37 1 4 34
M  V30 38 1 4 35
M  V30 39 1 5 36
M  V30 40 1 5 37
M  V30 41 1 7 38
M  V30 42 1 10 39
M  V30 43 1 11 40
M  V30 44 1 15 41
M  V30 45 1 16 42
M  V30 46 1 19 43
M  V30 47 1 19 44
M  V30 48 1 22 45
M  V30 49 1 25 46
M  V30 50 1 26 47
M  V30 END BOND
M  V30 END CTAB
M  END
>  <Dataset>  (492) 
ChEMBL_Kinases

>  <Ligand_Instance>  (492) 
nan

>  <PDB_ID>  (492) 
nan

>  <Standardized_SMILES>  (492) 
CN(C)CCn1cc(-c2ccn3c(-c4ccc(C(N)=O)s4)cnc3c2)cn1

>  <Name>  (492) 
nan

>  <Pocket>  (492) 
nan

>  <ATP_Site>  (492) 
nan

>  <Peripheral>  (492) 
nan

>  <Num_H_Atoms_ProtBoundConf>  (492) 
nan

>  <Num_Resolved_Atoms>  (492) 
nan

>  <Num_Not_Resolved_Atoms>  (492) 
nan

$$$$
CHEMBL4060856
     RDKit          3D

  0  0  0  0  0  0  0  0  0  0999 V3000
M  V30 BEGIN CTAB
M  V30 COUNTS 37 40 0 0 0
M  V30 BEGIN ATOM
M  V30 1 N 0.521345 -6.676680 3.001078 0
M  V30 2 C 0.813852 -5.445417 3.654101 0
M  V30 3 O 0.687835 -5.427101 4.896080 0
M  V30 4 C 1.237871 -4.278525 2.885377 0
M  V30 5 C 1.507833 -3.106949 3.587196 0
M  V30 6 C 1.914100 -1.986670 2.857439 0
M  V30 7 C 2.018238 -2.129624 1.475407 0
M  V30 8 O 2.405845 -1.074868 0.764962 0
M  V30 9 C 1.716726 -0.062264 0.172846 0
M  V30 10 S 2.822529 1.072126 -0.649610 0
M  V30 11 C 1.601594 2.206846 -1.274871 0
M  V30 12 C 1.933499 3.377308 -2.054844 0
M  V30 13 N 0.875395 4.212083 -2.501267 0
M  V30 14 O 3.143244 3.577852 -2.286292 0
M  V30 15 C 0.394799 1.651776 -0.815981 0
M  V30 16 C 0.472076 0.504518 -0.085787 0
M  V30 17 C -0.729790 -0.136551 0.419031 0
M  V30 18 S -1.117737 -1.505083 1.330682 0
M  V30 19 N -2.962517 -1.309649 1.349192 0
M  V30 20 C -2.993756 -0.131085 0.592630 0
M  V30 21 C -1.904270 0.513269 0.092368 0
M  V30 22 C -2.121772 1.730972 -0.679742 0
M  V30 23 C -0.866284 2.334437 -1.146505 0
M  V30 24 C 1.742970 -3.315249 0.784710 0
M  V30 25 N 1.349082 -4.385131 1.537446 0
M  V30 26 H -0.406139 -6.594826 2.545470 0
M  V30 27 H 1.009782 -7.584876 2.890499 0
M  V30 28 H 1.413366 -3.042568 4.659459 0
M  V30 29 H 2.144502 -1.036419 3.318464 0
M  V30 30 H 0.164029 4.480634 -3.212595 0
M  V30 31 H 0.253058 5.041817 -2.287880 0
M  V30 32 H -4.090963 -0.015946 0.604375 0
M  V30 33 H -2.740162 1.494712 -1.605885 0
M  V30 34 H -2.746023 2.485084 -0.143305 0
M  V30 35 H -0.788164 3.380848 -0.693340 0
M  V30 36 H -0.925754 2.571732 -2.246952 0
M  V30 37 H 1.847405 -3.346960 -0.290984 0
M  V30 END ATOM
M  V30 BEGIN BOND
M  V30 1 1 1 2
M  V30 2 2 2 3
M  V30 3 1 2 4
M  V30 4 2 4 5
M  V30 5 1 5 6
M  V30 6 2 6 7
M  V30 7 1 7 8
M  V30 8 1 8 9
M  V30 9 1 9 10
M  V30 10 1 10 11
M  V30 11 1 11 12
M  V30 12 1 12 13
M  V30 13 2 12 14
M  V30 14 2 11 15
M  V30 15 1 15 16
M  V30 16 1 16 17
M  V30 17 1 17 18
M  V30 18 1 18 19
M  V30 19 2 19 20
M  V30 20 1 20 21
M  V30 21 1 21 22
M  V30 22 1 22 23
M  V30 23 1 7 24
M  V30 24 2 24 25
M  V30 25 1 25 4
M  V30 26 2 16 9
M  V30 27 2 21 17
M  V30 28 1 23 15
M  V30 29 1 1 26
M  V30 30 1 1 27
M  V30 31 1 5 28
M  V30 32 1 6 29
M  V30 33 1 13 30
M  V30 34 1 13 31
M  V30 35 1 20 32
M  V30 36 1 22 33
M  V30 37 1 22 34
M  V30 38 1 23 35
M  V30 39 1 23 36
M  V30 40 1 24 37
M  V30 END BOND
M  V30 END CTAB
M  END
>  <Dataset>  (493) 
ChEMBL_Kinases

>  <Ligand_Instance>  (493) 
nan

>  <PDB_ID>  (493) 
nan

>  <Standardized_SMILES>  (493) 
NC(=O)c1ccc(Oc2sc(C(N)=O)c3c2-c2sncc2CC3)cn1

>  <Name>  (493) 
nan

>  <Pocket>  (493) 
nan

>  <ATP_Site>  (493) 
nan

>  <Peripheral>  (493) 
nan

>  <Num_H_Atoms_ProtBoundConf>  (493) 
nan

>  <Num_Resolved_Atoms>  (493) 
nan

>  <Num_Not_Resolved_Atoms>  (493) 
nan

$$$$
CHEMBL4863456
     RDKit          3D

  0  0  0  0  0  0  0  0  0  0999 V3000
M  V30 BEGIN CTAB
M  V30 COUNTS 54 58 0 0 0
M  V30 BEGIN ATOM
M  V30 1 C 2.920657 -4.482770 -0.684179 0
M  V30 2 O 2.708763 -3.115202 -1.005236 0
M  V30 3 C 3.555831 -2.152281 -0.438450 0
M  V30 4 C 4.598831 -2.437550 0.422464 0
M  V30 5 C 5.370946 -1.415142 0.923233 0
M  V30 6 C 5.148487 -0.094135 0.600098 0
M  V30 7 C 4.096762 0.187518 -0.267335 0
M  V30 8 C 3.922180 1.611506 -0.563096 0
M  V30 9 N 4.886438 2.483537 -0.866255 0
M  V30 10 N 4.332861 3.664449 -1.064967 0
M  V30 11 C 2.985508 3.602111 -0.897705 0
M  V30 12 N 1.970056 4.473351 -0.974985 0
M  V30 13 C 0.694238 4.113776 -0.750057 0
M  V30 14 C 0.355781 2.814067 -0.423596 0
M  V30 15 N -1.006652 2.516637 -0.185873 0
M  V30 16 C -1.685403 1.272398 -0.235943 0
M  V30 17 C -1.156837 0.335885 -1.098025 0
M  V30 18 C -1.758360 -0.892442 -1.175626 0
M  V30 19 C -2.860048 -1.151755 -0.399866 0
M  V30 20 C -3.446229 -0.276847 0.480527 0
M  V30 21 O -4.489090 -0.257299 1.339363 0
M  V30 22 C -5.374408 -1.277531 1.604385 0
M  V30 23 C -4.845929 -2.520184 2.166267 0
M  V30 24 C -4.478851 -3.737128 1.645216 0
M  V30 25 C -3.975072 -4.771405 2.398911 0
M  V30 26 C -3.803378 -4.647161 3.760420 0
M  V30 27 C -4.152696 -3.453358 4.342374 0
M  V30 28 C -4.653415 -2.441363 3.554784 0
M  V30 29 C -2.799262 0.973751 0.531456 0
M  V30 30 C 1.399545 1.937190 -0.347737 0
M  V30 31 C 2.718376 2.288292 -0.575980 0
M  V30 32 C 3.338326 -0.828927 -0.757859 0
M  V30 33 H 1.992241 -5.034989 -0.934894 0
M  V30 34 H 3.759288 -4.937744 -1.224044 0
M  V30 35 H 3.023798 -4.558252 0.428911 0
M  V30 36 H 4.762218 -3.490403 0.668845 0
M  V30 37 H 6.191952 -1.669813 1.604243 0
M  V30 38 H 5.808528 0.640427 1.043405 0
M  V30 39 H 4.829624 4.552321 -1.318172 0
M  V30 40 H -0.047306 4.898228 -0.839446 0
M  V30 41 H -1.653973 3.304079 0.068433 0
M  V30 42 H -0.312121 0.400717 -1.768705 0
M  V30 43 H -1.460735 -1.734335 -1.805562 0
M  V30 44 H -3.385878 -2.086717 -0.414911 0
M  V30 45 H -6.154799 -0.865400 2.317880 0
M  V30 46 H -5.992044 -1.504199 0.680189 0
M  V30 47 H -4.646152 -3.780135 0.578072 0
M  V30 48 H -3.733281 -5.664474 1.841733 0
M  V30 49 H -3.399908 -5.538787 4.215599 0
M  V30 50 H -4.005974 -3.393557 5.399651 0
M  V30 51 H -4.887594 -1.549568 4.158816 0
M  V30 52 H -3.084461 1.831456 1.159598 0
M  V30 53 H 1.226363 0.919370 -0.090368 0
M  V30 54 H 2.543215 -0.583666 -1.417297 0
M  V30 END ATOM
M  V30 BEGIN BOND
M  V30 1 1 1 2
M  V30 2 1 2 3
M  V30 3 2 3 4
M  V30 4 1 4 5
M  V30 5 2 5 6
M  V30 6 1 6 7
M  V30 7 1 7 8
M  V30 8 2 8 9
M  V30 9 1 9 10
M  V30 10 1 10 11
M  V30 11 2 11 12
M  V30 12 1 12 13
M  V30 13 2 13 14
M  V30 14 1 14 15
M  V30 15 1 15 16
M  V30 16 2 16 17
M  V30 17 1 17 18
M  V30 18 2 18 19
M  V30 19 1 19 20
M  V30 20 1 20 21
M  V30 21 1 21 22
M  V30 22 1 22 23
M  V30 23 2 23 24
M  V30 24 1 24 25
M  V30 25 2 25 26
M  V30 26 1 26 27
M  V30 27 2 27 28
M  V30 28 2 20 29
M  V30 29 1 14 30
M  V30 30 2 30 31
M  V30 31 2 7 32
M  V30 32 1 32 3
M  V30 33 1 31 8
M  V30 34 1 31 11
M  V30 35 1 29 16
M  V30 36 1 28 23
M  V30 37 1 1 33
M  V30 38 1 1 34
M  V30 39 1 1 35
M  V30 40 1 4 36
M  V30 41 1 5 37
M  V30 42 1 6 38
M  V30 43 1 10 39
M  V30 44 1 13 40
M  V30 45 1 15 41
M  V30 46 1 17 42
M  V30 47 1 18 43
M  V30 48 1 19 44
M  V30 49 1 22 45
M  V30 50 1 22 46
M  V30 51 1 24 47
M  V30 52 1 25 48
M  V30 53 1 26 49
M  V30 54 1 27 50
M  V30 55 1 28 51
M  V30 56 1 29 52
M  V30 57 1 30 53
M  V30 58 1 32 54
M  V30 END BOND
M  V30 END CTAB
M  END
>  <Dataset>  (494) 
ChEMBL_Kinases

>  <Ligand_Instance>  (494) 
nan

>  <PDB_ID>  (494) 
nan

>  <Standardized_SMILES>  (494) 
COc1cccc(-c2n[nH]c3ncc(Nc4cccc(OCc5ccccc5)c4)cc23)c1

>  <Name>  (494) 
nan

>  <Pocket>  (494) 
nan

>  <ATP_Site>  (494) 
nan

>  <Peripheral>  (494) 
nan

>  <Num_H_Atoms_ProtBoundConf>  (494) 
nan

>  <Num_Resolved_Atoms>  (494) 
nan

>  <Num_Not_Resolved_Atoms>  (494) 
nan

$$$$
CHEMBL4060815
     RDKit          3D

  0  0  0  0  0  0  0  0  0  0999 V3000
M  V30 BEGIN CTAB
M  V30 COUNTS 61 65 0 0 0
M  V30 BEGIN ATOM
M  V30 1 C 9.479818 1.679669 4.012523 0
M  V30 2 N 8.094912 1.195113 3.956283 0
M  V30 3 C 7.295100 1.398207 2.797336 0
M  V30 4 O 7.899693 2.012099 1.883404 0
M  V30 5 C 5.921763 0.913562 2.751180 0
M  V30 6 C 5.269986 0.241130 3.762340 0
M  V30 7 C 3.963902 -0.161297 3.581629 0
M  V30 8 C 3.289781 0.095008 2.404745 0
M  V30 9 C 3.945246 0.774739 1.379712 0
M  V30 10 C 5.267054 1.187058 1.550814 0
M  V30 11 C 3.463397 1.169277 0.044853 0
M  V30 12 O 4.262101 1.700507 -0.758882 0
M  V30 13 C 2.085960 0.971060 -0.396203 0
M  V30 14 C 1.986279 1.056007 -1.770010 0
M  V30 15 C 0.807145 0.910383 -2.473282 0
M  V30 16 C -0.306888 0.665930 -1.693515 0
M  V30 17 N -1.584121 0.496328 -2.296917 0
M  V30 18 C -2.878717 0.242568 -1.778310 0
M  V30 19 C -3.592482 -0.869363 -2.120037 0
M  V30 20 C -4.836865 -1.116131 -1.623513 0
M  V30 21 N -5.656568 -2.262337 -1.931482 0
M  V30 22 C -5.364804 -3.293165 -0.987115 0
M  V30 23 O -4.476430 -2.914390 -0.152408 0
M  V30 24 C -5.999402 -4.608712 -0.977105 0
M  V30 25 C -6.952578 -5.007557 -1.877002 0
M  V30 26 C -7.501784 -6.271106 -1.795776 0
M  V30 27 C -7.041099 -7.070875 -0.785006 0
M  V30 28 C -6.098831 -6.733488 0.137605 0
M  V30 29 F -5.729940 -7.622671 1.091308 0
M  V30 30 C -5.574208 -5.461300 0.022185 0
M  V30 31 C -5.378721 -0.183284 -0.735639 0
M  V30 32 F -6.614442 -0.381562 -0.212357 0
M  V30 33 C -4.705437 0.973633 -0.343534 0
M  V30 34 C -3.433406 1.150662 -0.899655 0
M  V30 35 F -2.813360 2.291646 -0.489831 0
M  V30 36 C -0.249580 0.573660 -0.316710 0
M  V30 37 C 0.950127 0.725582 0.348092 0
M  V30 38 C 0.904971 0.608512 1.827947 0
M  V30 39 C 1.894019 -0.398556 2.359871 0
M  V30 40 H 9.811261 1.854836 5.046153 0
M  V30 41 H 10.126033 0.885682 3.564066 0
M  V30 42 H 9.591588 2.613589 3.404542 0
M  V30 43 H 7.756451 0.709512 4.799012 0
M  V30 44 H 5.827738 0.058233 4.667948 0
M  V30 45 H 3.449266 -0.689614 4.373896 0
M  V30 46 H 5.734800 1.712961 0.723975 0
M  V30 47 H 2.898977 1.250926 -2.336454 0
M  V30 48 H 0.735163 0.977558 -3.544012 0
M  V30 49 H -1.671415 0.557330 -3.340640 0
M  V30 50 H -3.190172 -1.616835 -2.814674 0
M  V30 51 H -6.385672 -2.472127 -2.675226 0
M  V30 52 H -7.265166 -4.317007 -2.648639 0
M  V30 53 H -8.252111 -6.595132 -2.498349 0
M  V30 54 H -7.496922 -8.069568 -0.746599 0
M  V30 55 H -4.808939 -5.158182 0.754596 0
M  V30 56 H -5.160474 1.670626 0.346288 0
M  V30 57 H -1.089380 0.384623 0.334988 0
M  V30 58 H 1.104004 1.604252 2.304087 0
M  V30 59 H -0.101396 0.308952 2.145663 0
M  V30 60 H 1.779630 -1.308380 1.706580 0
M  V30 61 H 1.587330 -0.699393 3.370690 0
M  V30 END ATOM
M  V30 BEGIN BOND
M  V30 1 1 1 2
M  V30 2 1 2 3
M  V30 3 2 3 4
M  V30 4 1 3 5
M  V30 5 2 5 6
M  V30 6 1 6 7
M  V30 7 2 7 8
M  V30 8 1 8 9
M  V30 9 2 9 10
M  V30 10 1 9 11
M  V30 11 2 11 12
M  V30 12 1 11 13
M  V30 13 2 13 14
M  V30 14 1 14 15
M  V30 15 2 15 16
M  V30 16 1 16 17
M  V30 17 1 17 18
M  V30 18 2 18 19
M  V30 19 1 19 20
M  V30 20 1 20 21
M  V30 21 1 21 22
M  V30 22 2 22 23
M  V30 23 1 22 24
M  V30 24 2 24 25
M  V30 25 1 25 26
M  V30 26 2 26 27
M  V30 27 1 27 28
M  V30 28 1 28 29
M  V30 29 2 28 30
M  V30 30 2 20 31
M  V30 31 1 31 32
M  V30 32 1 31 33
M  V30 33 2 33 34
M  V30 34 1 34 35
M  V30 35 1 16 36
M  V30 36 2 36 37
M  V30 37 1 37 38
M  V30 38 1 38 39
M  V30 39 1 10 5
M  V30 40 1 37 13
M  V30 41 1 39 8
M  V30 42 1 34 18
M  V30 43 1 30 24
M  V30 44 1 1 40
M  V30 45 1 1 41
M  V30 46 1 1 42
M  V30 47 1 2 43
M  V30 48 1 6 44
M  V30 49 1 7 45
M  V30 50 1 10 46
M  V30 51 1 14 47
M  V30 52 1 15 48
M  V30 53 1 17 49
M  V30 54 1 19 50
M  V30 55 1 21 51
M  V30 56 1 25 52
M  V30 57 1 26 53
M  V30 58 1 27 54
M  V30 59 1 30 55
M  V30 60 1 33 56
M  V30 61 1 36 57
M  V30 62 1 38 58
M  V30 63 1 38 59
M  V30 64 1 39 60
M  V30 65 1 39 61
M  V30 END BOND
M  V30 END CTAB
M  END
>  <Dataset>  (495) 
ChEMBL_Kinases

>  <Ligand_Instance>  (495) 
nan

>  <PDB_ID>  (495) 
nan

>  <Standardized_SMILES>  (495) 
CNC(=O)c1ccc2c(c1)C(=O)c1ccc(Nc3cc(NC(=O)c4cccc(F)c4)c(F)cc3F)cc1CC2

>  <Name>  (495) 
nan

>  <Pocket>  (495) 
nan

>  <ATP_Site>  (495) 
nan

>  <Peripheral>  (495) 
nan

>  <Num_H_Atoms_ProtBoundConf>  (495) 
nan

>  <Num_Resolved_Atoms>  (495) 
nan

>  <Num_Not_Resolved_Atoms>  (495) 
nan

$$$$
CHEMBL4060759
     RDKit          3D

  0  0  0  0  0  0  0  0  0  0999 V3000
M  V30 BEGIN CTAB
M  V30 COUNTS 59 63 0 0 0
M  V30 BEGIN ATOM
M  V30 1 O -0.317915 -1.453539 4.450048 0
M  V30 2 C 0.477017 -1.361767 3.485052 0
M  V30 3 C 1.822326 -1.746552 3.855298 0
M  V30 4 C 3.040071 -1.887397 3.478079 0
M  V30 5 C 4.377000 -2.060602 3.127234 0
M  V30 6 C 4.899200 -2.611802 4.319552 0
M  V30 7 N 6.234741 -2.929652 4.385908 0
M  V30 8 C 7.028290 -2.718546 3.331251 0
M  V30 9 C 6.533171 -2.183974 2.171154 0
M  V30 10 F 7.185409 -1.892146 0.996901 0
M  V30 11 C 5.203893 -1.853047 2.070310 0
M  V30 12 C 4.514924 -1.269306 0.951555 0
M  V30 13 C 4.569091 0.130521 1.054444 0
M  V30 14 N 3.924142 0.682523 -0.002529 0
M  V30 15 N 3.466733 -0.328717 -0.763656 0
M  V30 16 C 2.743634 -0.254917 -1.987646 0
M  V30 17 C 2.079999 1.110558 -2.224684 0
M  V30 18 C 1.296205 -0.168271 -2.123300 0
M  V30 19 C 3.817355 -1.496166 -0.197263 0
M  V30 20 N 0.237534 -0.953419 2.156200 0
M  V30 21 C -1.089128 -0.576933 1.797270 0
M  V30 22 C -1.827269 -1.716667 1.451598 0
M  V30 23 C -3.167619 -1.610658 1.055388 0
M  V30 24 C -3.696453 -0.328441 1.031396 0
M  V30 25 C -5.138297 -0.260180 0.634838 0
M  V30 26 N -5.307717 -0.225878 -0.764691 0
M  V30 27 C -4.796537 -1.330840 -1.496251 0
M  V30 28 C -5.076755 -1.278590 -2.966251 0
M  V30 29 O -4.885353 -0.033625 -3.519100 0
M  V30 30 C -4.423922 0.929626 -2.649282 0
M  V30 31 C -5.329876 1.018835 -1.428262 0
M  V30 32 C -2.989736 0.807103 1.367267 0
M  V30 33 C -1.666541 0.670672 1.754189 0
M  V30 34 H 2.169114 -2.105337 4.856943 0
M  V30 35 H 2.709951 -1.515480 2.446651 0
M  V30 36 H 4.512508 -2.892054 5.314280 0
M  V30 37 H 8.078101 -2.932794 3.278463 0
M  V30 38 H 4.962809 0.927821 1.712068 0
M  V30 39 H 3.310031 -0.628263 -2.890410 0
M  V30 40 H 2.258743 1.610332 -3.174685 0
M  V30 41 H 2.046749 1.809613 -1.365176 0
M  V30 42 H 0.566067 -0.175525 -1.308758 0
M  V30 43 H 0.849046 -0.527659 -3.094757 0
M  V30 44 H 3.686542 -2.547871 -0.415836 0
M  V30 45 H 1.018232 -0.931262 1.455839 0
M  V30 46 H -1.459473 -2.759263 1.452886 0
M  V30 47 H -3.749184 -2.484155 0.782011 0
M  V30 48 H -5.664013 -1.094691 1.146109 0
M  V30 49 H -5.502046 0.736248 1.034120 0
M  V30 50 H -3.690207 -1.370908 -1.378244 0
M  V30 51 H -5.173107 -2.304076 -1.122683 0
M  V30 52 H -4.370411 -1.985605 -3.465529 0
M  V30 53 H -6.083738 -1.686006 -3.191306 0
M  V30 54 H -3.394207 0.728052 -2.361618 0
M  V30 55 H -4.455890 1.907130 -3.208276 0
M  V30 56 H -6.336388 1.265955 -1.848356 0
M  V30 57 H -4.936318 1.874325 -0.824487 0
M  V30 58 H -3.416256 1.795188 1.345661 0
M  V30 59 H -1.005404 1.453138 2.032623 0
M  V30 END ATOM
M  V30 BEGIN BOND
M  V30 1 2 1 2
M  V30 2 1 2 3
M  V30 3 2 3 4
M  V30 4 1 4 5
M  V30 5 2 5 6
M  V30 6 1 6 7
M  V30 7 2 7 8
M  V30 8 1 8 9
M  V30 9 1 9 10
M  V30 10 2 9 11
M  V30 11 1 11 12
M  V30 12 1 12 13
M  V30 13 2 13 14
M  V30 14 1 14 15
M  V30 15 1 15 16
M  V30 16 1 16 17
M  V30 17 1 17 18
M  V30 18 1 15 19
M  V30 19 1 2 20
M  V30 20 1 20 21
M  V30 21 2 21 22
M  V30 22 1 22 23
M  V30 23 2 23 24
M  V30 24 1 24 25
M  V30 25 1 25 26
M  V30 26 1 26 27
M  V30 27 1 27 28
M  V30 28 1 28 29
M  V30 29 1 29 30
M  V30 30 1 30 31
M  V30 31 1 24 32
M  V30 32 2 32 33
M  V30 33 1 11 5
M  V30 34 2 19 12
M  V30 35 1 33 21
M  V30 36 1 18 16
M  V30 37 1 31 26
M  V30 38 1 3 34
M  V30 39 1 4 35
M  V30 40 1 6 36
M  V30 41 1 8 37
M  V30 42 1 13 38
M  V30 43 1 16 39
M  V30 44 1 17 40
M  V30 45 1 17 41
M  V30 46 1 18 42
M  V30 47 1 18 43
M  V30 48 1 19 44
M  V30 49 1 20 45
M  V30 50 1 22 46
M  V30 51 1 23 47
M  V30 52 1 25 48
M  V30 53 1 25 49
M  V30 54 1 27 50
M  V30 55 1 27 51
M  V30 56 1 28 52
M  V30 57 1 28 53
M  V30 58 1 30 54
M  V30 59 1 30 55
M  V30 60 1 31 56
M  V30 61 1 31 57
M  V30 62 1 32 58
M  V30 63 1 33 59
M  V30 END BOND
M  V30 END CTAB
M  END
>  <Dataset>  (496) 
ChEMBL_Kinases

>  <Ligand_Instance>  (496) 
nan

>  <PDB_ID>  (496) 
nan

>  <Standardized_SMILES>  (496) 
O=C(/C=C/c1cncc(F)c1-c1cnn(C2CC2)c1)Nc1ccc(CN2CCOCC2)cc1

>  <Name>  (496) 
nan

>  <Pocket>  (496) 
nan

>  <ATP_Site>  (496) 
nan

>  <Peripheral>  (496) 
nan

>  <Num_H_Atoms_ProtBoundConf>  (496) 
nan

>  <Num_Resolved_Atoms>  (496) 
nan

>  <Num_Not_Resolved_Atoms>  (496) 
nan

$$$$
CHEMBL4060747
     RDKit          3D

  0  0  0  0  0  0  0  0  0  0999 V3000
M  V30 BEGIN CTAB
M  V30 COUNTS 38 41 0 0 0
M  V30 BEGIN ATOM
M  V30 1 C -0.281347 -5.708221 3.942444 0
M  V30 2 C 0.266395 -4.658582 3.043152 0
M  V30 3 C 1.150888 -4.889547 2.011792 0
M  V30 4 C 1.646665 -3.902254 1.187864 0
M  V30 5 C 1.240101 -2.581692 1.394129 0
M  V30 6 C 1.722295 -1.477155 0.561413 0
M  V30 7 C 3.002953 -1.485683 0.002569 0
M  V30 8 N 3.458380 -0.473831 -0.765635 0
M  V30 9 C 2.710661 0.611182 -1.045551 0
M  V30 10 N 3.194176 1.681201 -1.858164 0
M  V30 11 C 1.424056 0.650667 -0.501670 0
M  V30 12 C 0.613593 1.828902 -0.805816 0
M  V30 13 N 0.995054 2.866794 -1.555345 0
M  V30 14 N 0.018499 3.757320 -1.625715 0
M  V30 15 C -1.014032 3.261363 -0.894256 0
M  V30 16 C -2.356908 3.871049 -0.646996 0
M  V30 17 C -3.474909 2.867596 -0.506114 0
M  V30 18 C -2.990685 3.594646 0.731287 0
M  V30 19 O -0.610527 2.109844 -0.425701 0
M  V30 20 C 0.937233 -0.371952 0.286543 0
M  V30 21 C 0.347161 -2.345070 2.434585 0
M  V30 22 C -0.140181 -3.349801 3.252364 0
M  V30 23 H -1.318924 -5.441219 4.283976 0
M  V30 24 H -0.426316 -6.636987 3.349013 0
M  V30 25 H 0.360427 -5.933837 4.805413 0
M  V30 26 H 1.472604 -5.909456 1.843056 0
M  V30 27 H 2.338578 -4.114050 0.387173 0
M  V30 28 H 3.590535 -2.350777 0.228833 0
M  V30 29 H 3.453476 1.720600 -2.868796 0
M  V30 30 H 3.370443 2.661059 -1.525964 0
M  V30 31 H -2.575841 4.856470 -1.069618 0
M  V30 32 H -3.216014 1.794546 -0.558755 0
M  V30 33 H -4.464971 3.091666 -0.934778 0
M  V30 34 H -3.721576 4.300320 1.122815 0
M  V30 35 H -2.384035 3.007476 1.452218 0
M  V30 36 H -0.051886 -0.339471 0.703458 0
M  V30 37 H 0.025195 -1.319235 2.604558 0
M  V30 38 H -0.836497 -3.065015 4.042400 0
M  V30 END ATOM
M  V30 BEGIN BOND
M  V30 1 1 1 2
M  V30 2 2 2 3
M  V30 3 1 3 4
M  V30 4 2 4 5
M  V30 5 1 5 6
M  V30 6 2 6 7
M  V30 7 1 7 8
M  V30 8 2 8 9
M  V30 9 1 9 10
M  V30 10 1 9 11
M  V30 11 1 11 12
M  V30 12 2 12 13
M  V30 13 1 13 14
M  V30 14 2 14 15
M  V30 15 1 15 16
M  V30 16 1 16 17
M  V30 17 1 17 18
M  V30 18 1 15 19
M  V30 19 2 11 20
M  V30 20 1 5 21
M  V30 21 2 21 22
M  V30 22 1 22 2
M  V30 23 1 20 6
M  V30 24 1 19 12
M  V30 25 1 18 16
M  V30 26 1 1 23
M  V30 27 1 1 24
M  V30 28 1 1 25
M  V30 29 1 3 26
M  V30 30 1 4 27
M  V30 31 1 7 28
M  V30 32 1 10 29
M  V30 33 1 10 30
M  V30 34 1 16 31
M  V30 35 1 17 32
M  V30 36 1 17 33
M  V30 37 1 18 34
M  V30 38 1 18 35
M  V30 39 1 20 36
M  V30 40 1 21 37
M  V30 41 1 22 38
M  V30 END BOND
M  V30 END CTAB
M  END
>  <Dataset>  (497) 
ChEMBL_Kinases

>  <Ligand_Instance>  (497) 
nan

>  <PDB_ID>  (497) 
nan

>  <Standardized_SMILES>  (497) 
Cc1ccc(-c2cnc(N)c(-c3nnc(C4CC4)o3)c2)cc1

>  <Name>  (497) 
nan

>  <Pocket>  (497) 
nan

>  <ATP_Site>  (497) 
nan

>  <Peripheral>  (497) 
nan

>  <Num_H_Atoms_ProtBoundConf>  (497) 
nan

>  <Num_Resolved_Atoms>  (497) 
nan

>  <Num_Not_Resolved_Atoms>  (497) 
nan

$$$$
CHEMBL4060714
     RDKit          3D

  0  0  0  0  0  0  0  0  0  0999 V3000
M  V30 BEGIN CTAB
M  V30 COUNTS 36 39 0 0 0
M  V30 BEGIN ATOM
M  V30 1 C -0.467580 -2.340546 3.165776 0
M  V30 2 C 0.860933 -2.915668 2.944344 0
M  V30 3 C 1.227910 -4.238163 3.193826 0
M  V30 4 C 2.519730 -4.689277 2.965402 0
M  V30 5 N 3.435273 -3.806680 2.487055 0
M  V30 6 C 3.080860 -2.513876 2.241739 0
M  V30 7 C 1.797939 -1.997920 2.450379 0
M  V30 8 O 1.723451 -0.709806 2.135646 0
M  V30 9 C 1.121631 0.087714 1.269843 0
M  V30 10 S 1.458294 1.794170 1.586039 0
M  V30 11 C 0.533602 2.505877 0.297494 0
M  V30 12 C 0.442987 3.955963 0.065565 0
M  V30 13 N -0.324033 4.450276 -0.996149 0
M  V30 14 O 1.081651 4.691468 0.861774 0
M  V30 15 C -0.008800 1.415288 -0.342892 0
M  V30 16 C 0.300529 0.198205 0.162823 0
M  V30 17 C -0.231202 -1.031875 -0.503562 0
M  V30 18 S -0.097552 -2.671337 -0.271950 0
M  V30 19 N -1.140850 -3.211616 -1.716190 0
M  V30 20 C -1.444580 -1.941072 -2.175451 0
M  V30 21 C -1.006551 -0.783889 -1.594353 0
M  V30 22 C -1.430147 0.484093 -2.216319 0
M  V30 23 C -0.875050 1.646426 -1.517658 0
M  V30 24 H -0.616945 -2.017428 4.233073 0
M  V30 25 H -0.689761 -1.562909 2.441486 0
M  V30 26 H -1.269537 -3.119884 3.023870 0
M  V30 27 H 0.398582 -4.813380 3.568083 0
M  V30 28 H 2.702489 -5.726791 3.189348 0
M  V30 29 H 3.950698 -1.981738 1.867964 0
M  V30 30 H 0.311977 4.590270 -1.825940 0
M  V30 31 H -1.337167 4.668480 -1.046596 0
M  V30 32 H -2.062364 -2.263936 -3.030712 0
M  V30 33 H -1.093370 0.535525 -3.301410 0
M  V30 34 H -2.541827 0.560869 -2.303200 0
M  V30 35 H -1.753626 2.310769 -1.236837 0
M  V30 36 H -0.343928 2.315527 -2.277327 0
M  V30 END ATOM
M  V30 BEGIN BOND
M  V30 1 1 1 2
M  V30 2 2 2 3
M  V30 3 1 3 4
M  V30 4 2 4 5
M  V30 5 1 5 6
M  V30 6 2 6 7
M  V30 7 1 7 8
M  V30 8 1 8 9
M  V30 9 1 9 10
M  V30 10 1 10 11
M  V30 11 1 11 12
M  V30 12 1 12 13
M  V30 13 2 12 14
M  V30 14 2 11 15
M  V30 15 1 15 16
M  V30 16 1 16 17
M  V30 17 1 17 18
M  V30 18 1 18 19
M  V30 19 2 19 20
M  V30 20 1 20 21
M  V30 21 1 21 22
M  V30 22 1 22 23
M  V30 23 1 7 2
M  V30 24 2 16 9
M  V30 25 2 21 17
M  V30 26 1 23 15
M  V30 27 1 1 24
M  V30 28 1 1 25
M  V30 29 1 1 26
M  V30 30 1 3 27
M  V30 31 1 4 28
M  V30 32 1 6 29
M  V30 33 1 13 30
M  V30 34 1 13 31
M  V30 35 1 20 32
M  V30 36 1 22 33
M  V30 37 1 22 34
M  V30 38 1 23 35
M  V30 39 1 23 36
M  V30 END BOND
M  V30 END CTAB
M  END
>  <Dataset>  (498) 
ChEMBL_Kinases

>  <Ligand_Instance>  (498) 
nan

>  <PDB_ID>  (498) 
nan

>  <Standardized_SMILES>  (498) 
Cc1ccncc1Oc1sc(C(N)=O)c2c1-c1sncc1CC2

>  <Name>  (498) 
nan

>  <Pocket>  (498) 
nan

>  <ATP_Site>  (498) 
nan

>  <Peripheral>  (498) 
nan

>  <Num_H_Atoms_ProtBoundConf>  (498) 
nan

>  <Num_Resolved_Atoms>  (498) 
nan

>  <Num_Not_Resolved_Atoms>  (498) 
nan

$$$$
CHEMBL4863460
     RDKit          3D

  0  0  0  0  0  0  0  0  0  0999 V3000
M  V30 BEGIN CTAB
M  V30 COUNTS 34 36 0 0 0
M  V30 BEGIN ATOM
M  V30 1 C -0.162827 -3.081007 4.113035 0
M  V30 2 N -0.569798 -3.250979 2.714038 0
M  V30 3 C -1.931959 -3.730357 2.570956 0
M  V30 4 C 0.157718 -3.021506 1.513673 0
M  V30 5 N 0.911714 -3.908262 0.804435 0
M  V30 6 C 1.549713 -3.574293 -0.308051 0
M  V30 7 C 1.409005 -2.249920 -0.722998 0
M  V30 8 C 0.660679 -1.312042 -0.046249 0
M  V30 9 C 0.563822 0.059596 -0.537856 0
M  V30 10 C 1.124206 0.602592 -1.648698 0
M  V30 11 N 0.795572 1.902339 -1.738671 0
M  V30 12 C 1.168941 2.882706 -2.760677 0
M  V30 13 C 0.007124 2.254745 -0.687005 0
M  V30 14 C -0.623271 3.427744 -0.254191 0
M  V30 15 N -1.351674 3.403377 0.877773 0
M  V30 16 C -1.487986 2.275129 1.604281 0
M  V30 17 C -0.882951 1.074347 1.223046 0
M  V30 18 C -0.130493 1.091702 0.057184 0
M  V30 19 N 0.061347 -1.755886 1.060060 0
M  V30 20 H 0.857973 -2.673966 4.209060 0
M  V30 21 H -0.854514 -2.320236 4.572169 0
M  V30 22 H -0.339098 -4.017599 4.647463 0
M  V30 23 H -2.039657 -4.593987 3.267836 0
M  V30 24 H -2.681665 -2.974106 2.855995 0
M  V30 25 H -2.152038 -4.056860 1.530337 0
M  V30 26 H 2.131118 -4.316256 -0.827660 0
M  V30 27 H 1.934550 -1.964118 -1.644119 0
M  V30 28 H 1.748864 0.081174 -2.370715 0
M  V30 29 H 0.372818 3.653557 -2.879106 0
M  V30 30 H 2.080513 3.444018 -2.492032 0
M  V30 31 H 1.254595 2.361540 -3.741951 0
M  V30 32 H -0.473647 4.287188 -0.877636 0
M  V30 33 H -2.078666 2.253300 2.524053 0
M  V30 34 H -1.031634 0.202837 1.850465 0
M  V30 END ATOM
M  V30 BEGIN BOND
M  V30 1 1 1 2
M  V30 2 1 2 3
M  V30 3 1 2 4
M  V30 4 2 4 5
M  V30 5 1 5 6
M  V30 6 2 6 7
M  V30 7 1 7 8
M  V30 8 1 8 9
M  V30 9 2 9 10
M  V30 10 1 10 11
M  V30 11 1 11 12
M  V30 12 1 11 13
M  V30 13 2 13 14
M  V30 14 1 14 15
M  V30 15 2 15 16
M  V30 16 1 16 17
M  V30 17 2 17 18
M  V30 18 2 8 19
M  V30 19 1 19 4
M  V30 20 1 18 9
M  V30 21 1 18 13
M  V30 22 1 1 20
M  V30 23 1 1 21
M  V30 24 1 1 22
M  V30 25 1 3 23
M  V30 26 1 3 24
M  V30 27 1 3 25
M  V30 28 1 6 26
M  V30 29 1 7 27
M  V30 30 1 10 28
M  V30 31 1 12 29
M  V30 32 1 12 30
M  V30 33 1 12 31
M  V30 34 1 14 32
M  V30 35 1 16 33
M  V30 36 1 17 34
M  V30 END BOND
M  V30 END CTAB
M  END
>  <Dataset>  (499) 
ChEMBL_Kinases

>  <Ligand_Instance>  (499) 
nan

>  <PDB_ID>  (499) 
nan

>  <Standardized_SMILES>  (499) 
CN(C)c1nccc(-c2cn(C)c3cnccc23)n1

>  <Name>  (499) 
nan

>  <Pocket>  (499) 
nan

>  <ATP_Site>  (499) 
nan

>  <Peripheral>  (499) 
nan

>  <Num_H_Atoms_ProtBoundConf>  (499) 
nan

>  <Num_Resolved_Atoms>  (499) 
nan

>  <Num_Not_Resolved_Atoms>  (499) 
nan

$$$$
CHEMBL4060616
     RDKit          3D

  0  0  0  0  0  0  0  0  0  0999 V3000
M  V30 BEGIN CTAB
M  V30 COUNTS 16 17 0 0 0
M  V30 BEGIN ATOM
M  V30 1 N 0.986593 -3.668119 0.180638 0
M  V30 2 C 0.852070 -2.596428 0.617118 0
M  V30 3 C 0.682861 -1.286833 1.163982 0
M  V30 4 C -0.157351 -0.896711 2.213943 0
M  V30 5 N -0.026810 0.412140 2.423942 0
M  V30 6 C 0.872053 0.873916 1.540221 0
M  V30 7 N 1.334747 2.107864 1.356756 0
M  V30 8 C 2.239624 2.379754 0.414513 0
M  V30 9 C 2.737223 1.372728 -0.418765 0
M  V30 10 C 2.274211 0.076394 -0.251929 0
M  V30 11 Cl 2.829249 -1.275253 -1.243656 0
M  V30 12 C 1.339970 -0.145233 0.737003 0
M  V30 13 H -0.778275 -1.641363 2.708397 0
M  V30 14 H -0.586091 0.878728 3.179229 0
M  V30 15 H 2.627116 3.384974 0.253191 0
M  V30 16 H 3.480721 1.559223 -1.203036 0
M  V30 END ATOM
M  V30 BEGIN BOND
M  V30 1 3 1 2
M  V30 2 1 2 3
M  V30 3 2 3 4
M  V30 4 1 4 5
M  V30 5 1 5 6
M  V30 6 2 6 7
M  V30 7 1 7 8
M  V30 8 2 8 9
M  V30 9 1 9 10
M  V30 10 1 10 11
M  V30 11 2 10 12
M  V30 12 1 12 3
M  V30 13 1 12 6
M  V30 14 1 4 13
M  V30 15 1 5 14
M  V30 16 1 8 15
M  V30 17 1 9 16
M  V30 END BOND
M  V30 END CTAB
M  END
>  <Dataset>  (500) 
ChEMBL_Kinases

>  <Ligand_Instance>  (500) 
nan

>  <PDB_ID>  (500) 
nan

>  <Standardized_SMILES>  (500) 
N#Cc1c[nH]c2nccc(Cl)c12

>  <Name>  (500) 
nan

>  <Pocket>  (500) 
nan

>  <ATP_Site>  (500) 
nan

>  <Peripheral>  (500) 
nan

>  <Num_H_Atoms_ProtBoundConf>  (500) 
nan

>  <Num_Resolved_Atoms>  (500) 
nan

>  <Num_Not_Resolved_Atoms>  (500) 
nan

$$$$
CHEMBL4863639
     RDKit          3D

  0  0  0  0  0  0  0  0  0  0999 V3000
M  V30 BEGIN CTAB
M  V30 COUNTS 46 47 0 0 0
M  V30 BEGIN ATOM
M  V30 1 C -2.648293 -3.937932 -0.439398 0
M  V30 2 O -2.548769 -3.275498 0.791744 0
M  V30 3 C -1.506331 -2.498122 1.219309 0
M  V30 4 C -0.343340 -2.207631 0.529148 0
M  V30 5 C 0.641757 -1.404534 1.071771 0
M  V30 6 N 1.801823 -1.185736 0.239832 0
M  V30 7 C 1.738227 -0.044222 -0.639419 0
M  V30 8 O 0.561815 0.301834 -0.250883 0
M  V30 9 C 2.888036 0.205343 -1.489919 0 CFG=2
M  V30 10 N 3.829148 -0.930182 -1.335914 0
M  V30 11 C 3.633344 1.473175 -1.339038 0
M  V30 12 C 2.938000 2.756384 -1.568550 0
M  V30 13 C 3.976201 3.886635 -1.362735 0
M  V30 14 C 1.784522 3.078037 -0.676339 0
M  V30 15 C 0.479227 -0.868485 2.335108 0
M  V30 16 C -0.683473 -1.159063 3.024783 0
M  V30 17 C -1.674419 -1.965495 2.481841 0
M  V30 18 C -2.797019 -2.121485 3.399833 0
M  V30 19 C -2.743753 -2.384783 4.753732 0
M  V30 20 C -3.940152 -2.499136 5.464182 0
M  V30 21 C -5.149368 -2.348418 4.807514 0
M  V30 22 N -5.175097 -2.091439 3.483475 0
M  V30 23 C -4.026179 -1.973150 2.757479 0
M  V30 24 H -3.026456 -4.969348 -0.260912 0
M  V30 25 H -1.712224 -3.952466 -1.021816 0
M  V30 26 H -3.362434 -3.335114 -1.052135 0
M  V30 27 H -0.252935 -2.644663 -0.454593 0
M  V30 28 H 2.608546 -1.888529 0.347224 0
M  V30 29 H 2.611396 0.122176 -2.592924 0
M  V30 30 H 3.300598 -1.818238 -1.566737 0
M  V30 31 H 4.546732 -0.864970 -2.088711 0
M  V30 32 H 4.151640 1.551755 -0.330926 0
M  V30 33 H 4.524919 1.436230 -2.043273 0
M  V30 34 H 2.573795 2.778719 -2.626765 0
M  V30 35 H 4.554125 3.660762 -0.449830 0
M  V30 36 H 3.397341 4.810675 -1.177614 0
M  V30 37 H 4.623151 3.996257 -2.263835 0
M  V30 38 H 1.888924 2.575688 0.304367 0
M  V30 39 H 0.806636 2.837581 -1.093031 0
M  V30 40 H 1.797511 4.185725 -0.404642 0
M  V30 41 H 1.292261 -0.263809 2.665287 0
M  V30 42 H -0.703221 -0.680836 4.014244 0
M  V30 43 H -1.737324 -2.475089 5.118923 0
M  V30 44 H -3.817637 -2.705827 6.518876 0
M  V30 45 H -6.061264 -2.445475 5.400048 0
M  V30 46 H -4.151687 -1.763767 1.689121 0
M  V30 END ATOM
M  V30 BEGIN BOND
M  V30 1 1 1 2
M  V30 2 1 2 3
M  V30 3 2 3 4
M  V30 4 1 4 5
M  V30 5 1 5 6
M  V30 6 1 6 7
M  V30 7 2 7 8
M  V30 8 1 7 9
M  V30 9 1 9 10
M  V30 10 1 9 11
M  V30 11 1 11 12
M  V30 12 1 12 13
M  V30 13 1 12 14
M  V30 14 2 5 15
M  V30 15 1 15 16
M  V30 16 2 16 17
M  V30 17 1 17 18
M  V30 18 2 18 19
M  V30 19 1 19 20
M  V30 20 2 20 21
M  V30 21 1 21 22
M  V30 22 2 22 23
M  V30 23 1 17 3
M  V30 24 1 23 18
M  V30 25 1 1 24
M  V30 26 1 1 25
M  V30 27 1 1 26
M  V30 28 1 4 27
M  V30 29 1 6 28
M  V30 30 1 9 29 CFG=3
M  V30 31 1 10 30
M  V30 32 1 10 31
M  V30 33 1 11 32
M  V30 34 1 11 33
M  V30 35 1 12 34
M  V30 36 1 13 35
M  V30 37 1 13 36
M  V30 38 1 13 37
M  V30 39 1 14 38
M  V30 40 1 14 39
M  V30 41 1 14 40
M  V30 42 1 15 41
M  V30 43 1 16 42
M  V30 44 1 19 43
M  V30 45 1 20 44
M  V30 46 1 21 45
M  V30 47 1 23 46
M  V30 END BOND
M  V30 END CTAB
M  END
>  <Dataset>  (501) 
ChEMBL_Kinases

>  <Ligand_Instance>  (501) 
nan

>  <PDB_ID>  (501) 
nan

>  <Standardized_SMILES>  (501) 
COc1cc(NC(=O)[C@H](N)CC(C)C)ccc1-c1cccnc1

>  <Name>  (501) 
nan

>  <Pocket>  (501) 
nan

>  <ATP_Site>  (501) 
nan

>  <Peripheral>  (501) 
nan

>  <Num_H_Atoms_ProtBoundConf>  (501) 
nan

>  <Num_Resolved_Atoms>  (501) 
nan

>  <Num_Not_Resolved_Atoms>  (501) 
nan

$$$$
CHEMBL4060561
     RDKit          3D

  0  0  0  0  0  0  0  0  0  0999 V3000
M  V30 BEGIN CTAB
M  V30 COUNTS 54 57 0 0 0
M  V30 BEGIN ATOM
M  V30 1 C 3.078647 -3.919573 1.443692 0
M  V30 2 N 3.955450 -2.765378 1.405634 0
M  V30 3 C 3.578892 -1.632240 2.021857 0
M  V30 4 C 4.547051 -0.662085 1.867245 0
M  V30 5 C 4.762087 0.724417 2.259541 0
M  V30 6 C 5.994269 1.061975 2.827013 0
M  V30 7 C 6.335766 2.325461 3.254317 0
M  V30 8 N 5.429259 3.296560 3.118198 0
M  V30 9 C 4.236082 3.003809 2.576480 0
M  V30 10 C 3.856738 1.756117 2.137646 0
M  V30 11 C 2.573983 1.475919 1.555009 0
M  V30 12 C 1.594051 2.345590 1.374705 0
M  V30 13 C 0.272112 2.139811 0.794717 0
M  V30 14 O -0.598029 3.022234 0.661164 0
M  V30 15 N -0.097869 0.854253 0.333456 0
M  V30 16 C -1.293312 0.364355 -0.263229 0
M  V30 17 C -1.360154 0.421594 -1.641722 0
M  V30 18 C -2.468046 -0.025574 -2.336661 0
M  V30 19 C -3.545790 -0.546275 -1.656197 0
M  V30 20 C -3.471000 -0.601049 -0.262243 0
M  V30 21 C -2.366148 -0.154085 0.417661 0
M  V30 22 C -4.544757 -1.135372 0.652045 0
M  V30 23 C -5.708721 -1.663270 -0.151922 0
M  V30 24 N -5.331599 -2.148738 -1.435700 0
M  V30 25 C -4.425036 -3.244620 -1.469823 0
M  V30 26 C -4.963419 -4.558797 -0.970825 0
M  V30 27 F -6.057183 -4.981784 -1.695708 0
M  V30 28 F -3.956097 -5.515942 -1.203692 0
M  V30 29 F -5.194700 -4.461250 0.374639 0
M  V30 30 C -4.804450 -1.070019 -2.270356 0
M  V30 31 C 5.545961 -1.289654 1.108529 0
M  V30 32 N 5.142728 -2.553545 0.856304 0
M  V30 33 H 2.141449 -3.662173 0.885312 0
M  V30 34 H 3.551925 -4.836085 1.069956 0
M  V30 35 H 2.770046 -4.066962 2.516370 0
M  V30 36 H 2.701905 -1.394418 2.576521 0
M  V30 37 H 6.743196 0.276757 2.943396 0
M  V30 38 H 7.316759 2.516458 3.688267 0
M  V30 39 H 3.568853 3.849671 2.506379 0
M  V30 40 H 2.295575 0.495751 1.200485 0
M  V30 41 H 1.774746 3.381946 1.700470 0
M  V30 42 H 0.508650 0.006611 0.368889 0
M  V30 43 H -0.556175 0.815463 -2.236413 0
M  V30 44 H -2.558784 0.002943 -3.424815 0
M  V30 45 H -2.253286 -0.172005 1.497831 0
M  V30 46 H -4.871302 -0.254583 1.245968 0
M  V30 47 H -4.111504 -1.929957 1.288014 0
M  V30 48 H -6.211263 -2.457798 0.419386 0
M  V30 49 H -6.420264 -0.821705 -0.306003 0
M  V30 50 H -4.046533 -3.406719 -2.515735 0
M  V30 51 H -3.533297 -2.990367 -0.835250 0
M  V30 52 H -4.581726 -1.495521 -3.258513 0
M  V30 53 H -5.573995 -0.289948 -2.322176 0
M  V30 54 H 6.519221 -0.953661 0.718588 0
M  V30 END ATOM
M  V30 BEGIN BOND
M  V30 1 1 1 2
M  V30 2 1 2 3
M  V30 3 2 3 4
M  V30 4 1 4 5
M  V30 5 2 5 6
M  V30 6 1 6 7
M  V30 7 2 7 8
M  V30 8 1 8 9
M  V30 9 2 9 10
M  V30 10 1 10 11
M  V30 11 2 11 12
M  V30 12 1 12 13
M  V30 13 2 13 14
M  V30 14 1 13 15
M  V30 15 1 15 16
M  V30 16 2 16 17
M  V30 17 1 17 18
M  V30 18 2 18 19
M  V30 19 1 19 20
M  V30 20 2 20 21
M  V30 21 1 20 22
M  V30 22 1 22 23
M  V30 23 1 23 24
M  V30 24 1 24 25
M  V30 25 1 25 26
M  V30 26 1 26 27
M  V30 27 1 26 28
M  V30 28 1 26 29
M  V30 29 1 24 30
M  V30 30 1 4 31
M  V30 31 2 31 32
M  V30 32 1 32 2
M  V30 33 1 10 5
M  V30 34 1 21 16
M  V30 35 1 30 19
M  V30 36 1 1 33
M  V30 37 1 1 34
M  V30 38 1 1 35
M  V30 39 1 3 36
M  V30 40 1 6 37
M  V30 41 1 7 38
M  V30 42 1 9 39
M  V30 43 1 11 40
M  V30 44 1 12 41
M  V30 45 1 15 42
M  V30 46 1 17 43
M  V30 47 1 18 44
M  V30 48 1 21 45
M  V30 49 1 22 46
M  V30 50 1 22 47
M  V30 51 1 23 48
M  V30 52 1 23 49
M  V30 53 1 25 50
M  V30 54 1 25 51
M  V30 55 1 30 52
M  V30 56 1 30 53
M  V30 57 1 31 54
M  V30 END BOND
M  V30 END CTAB
M  END
>  <Dataset>  (502) 
ChEMBL_Kinases

>  <Ligand_Instance>  (502) 
nan

>  <PDB_ID>  (502) 
nan

>  <Standardized_SMILES>  (502) 
Cn1cc(-c2ccncc2/C=C/C(=O)Nc2ccc3c(c2)CCN(CC(F)(F)F)C3)cn1

>  <Name>  (502) 
nan

>  <Pocket>  (502) 
nan

>  <ATP_Site>  (502) 
nan

>  <Peripheral>  (502) 
nan

>  <Num_H_Atoms_ProtBoundConf>  (502) 
nan

>  <Num_Resolved_Atoms>  (502) 
nan

>  <Num_Not_Resolved_Atoms>  (502) 
nan

$$$$
CHEMBL4060531
     RDKit          3D

  0  0  0  0  0  0  0  0  0  0999 V3000
M  V30 BEGIN CTAB
M  V30 COUNTS 74 78 0 0 0
M  V30 BEGIN ATOM
M  V30 1 C -2.542544 -2.303961 2.759112 0
M  V30 2 C -1.212996 -1.644013 2.846135 0
M  V30 3 C -0.895007 -0.779766 3.872560 0
M  V30 4 C 0.369264 -0.180034 3.915612 0
M  V30 5 C 1.335720 -0.422807 2.950208 0
M  V30 6 C 2.625025 0.241355 3.068243 0
M  V30 7 O 2.757873 0.998148 4.036280 0
M  V30 8 N 3.692862 0.079436 2.177428 0
M  V30 9 C 4.984448 0.659838 2.177932 0
M  V30 10 C 5.874550 0.340109 1.187356 0
M  V30 11 C 7.141542 0.867540 1.129070 0
M  V30 12 C 7.592961 1.758672 2.075936 0
M  V30 13 Cl 9.195913 2.421665 1.997333 0
M  V30 14 C 6.727912 2.097172 3.076739 0
M  V30 15 C 7.193659 3.054475 4.106167 0
M  V30 16 F 8.291307 2.557889 4.757838 0
M  V30 17 F 7.530536 4.233324 3.456751 0
M  V30 18 F 6.186402 3.364465 5.012149 0
M  V30 19 C 5.467230 1.552204 3.106587 0
M  V30 20 C 0.968438 -1.288103 1.953652 0
M  V30 21 C -0.264965 -1.898234 1.875936 0
M  V30 22 N -0.612709 -2.785424 0.828776 0
M  V30 23 C -0.504080 -4.175602 0.632778 0
M  V30 24 O 0.022594 -4.801688 1.583953 0
M  V30 25 C -0.938096 -4.933673 -0.552821 0
M  V30 26 C -1.643074 -4.128115 -1.585390 0
M  V30 27 C -2.701129 -3.280832 -1.315167 0
M  V30 28 C -3.337404 -2.528606 -2.267151 0
M  V30 29 N -4.423383 -1.670314 -1.938273 0
M  V30 30 C -5.108440 -0.863915 -2.901789 0
M  V30 31 C -4.121264 0.089407 -3.520471 0
M  V30 32 N -3.493148 0.964989 -2.627320 0
M  V30 33 C -4.230835 1.979472 -1.991239 0
M  V30 34 C -3.338534 3.230636 -1.973482 0
M  V30 35 C -2.235418 2.960226 -1.003549 0
M  V30 36 C -1.596143 1.628058 -1.221170 0
M  V30 37 C -2.099935 0.900636 -2.443556 0
M  V30 38 N -2.863335 -2.662965 -3.519260 0
M  V30 39 C -1.849038 -3.458332 -3.859966 0
M  V30 40 N -1.271991 -4.166002 -2.876861 0
M  V30 41 C -1.319024 -6.353699 -0.337245 0
M  V30 42 C -0.088447 -6.018678 -1.107783 0
M  V30 43 H -3.188588 -1.968509 3.581585 0
M  V30 44 H -3.080941 -2.031381 1.819685 0
M  V30 45 H -2.367510 -3.398249 2.811176 0
M  V30 46 H -1.644565 -0.588297 4.625848 0
M  V30 47 H 0.508908 0.480710 4.765743 0
M  V30 48 H 3.457896 -0.586987 1.398836 0
M  V30 49 H 5.573188 -0.359640 0.412366 0
M  V30 50 H 7.783582 0.563961 0.314368 0
M  V30 51 H 4.855158 1.867006 3.917010 0
M  V30 52 H 1.669493 -1.512882 1.184425 0
M  V30 53 H -1.018105 -2.179068 0.088121 0
M  V30 54 H -3.079776 -3.194433 -0.304633 0
M  V30 55 H -4.729937 -1.631450 -0.944741 0
M  V30 56 H -5.984646 -0.383288 -2.477939 0
M  V30 57 H -5.486800 -1.573602 -3.685149 0
M  V30 58 H -4.713558 0.713594 -4.254082 0
M  V30 59 H -3.386133 -0.441155 -4.154961 0
M  V30 60 H -5.118561 2.276298 -2.595652 0
M  V30 61 H -4.467288 1.805211 -0.921469 0
M  V30 62 H -3.958652 4.080889 -1.624152 0
M  V30 63 H -2.963990 3.338410 -3.004514 0
M  V30 64 H -1.512626 3.806479 -1.074480 0
M  V30 65 H -2.686242 2.961501 0.030055 0
M  V30 66 H -0.507955 1.792557 -1.361150 0
M  V30 67 H -1.696367 0.966692 -0.329413 0
M  V30 68 H -1.708428 -0.130289 -2.370087 0
M  V30 69 H -1.577953 1.357974 -3.326454 0
M  V30 70 H -1.481893 -3.552291 -4.876942 0
M  V30 71 H -1.124993 -6.767876 0.673016 0
M  V30 72 H -2.186104 -6.827457 -0.831308 0
M  V30 73 H 0.911068 -6.098653 -0.645657 0
M  V30 74 H -0.118764 -6.235933 -2.190025 0
M  V30 END ATOM
M  V30 BEGIN BOND
M  V30 1 1 1 2
M  V30 2 2 2 3
M  V30 3 1 3 4
M  V30 4 2 4 5
M  V30 5 1 5 6
M  V30 6 2 6 7
M  V30 7 1 6 8
M  V30 8 1 8 9
M  V30 9 2 9 10
M  V30 10 1 10 11
M  V30 11 2 11 12
M  V30 12 1 12 13
M  V30 13 1 12 14
M  V30 14 1 14 15
M  V30 15 1 15 16
M  V30 16 1 15 17
M  V30 17 1 15 18
M  V30 18 2 14 19
M  V30 19 1 5 20
M  V30 20 2 20 21
M  V30 21 1 21 22
M  V30 22 1 22 23
M  V30 23 2 23 24
M  V30 24 1 23 25
M  V30 25 1 25 26
M  V30 26 2 26 27
M  V30 27 1 27 28
M  V30 28 1 28 29
M  V30 29 1 29 30
M  V30 30 1 30 31
M  V30 31 1 31 32
M  V30 32 1 32 33
M  V30 33 1 33 34
M  V30 34 1 34 35
M  V30 35 1 35 36
M  V30 36 1 36 37
M  V30 37 2 28 38
M  V30 38 1 38 39
M  V30 39 2 39 40
M  V30 40 1 25 41
M  V30 41 1 41 42
M  V30 42 1 21 2
M  V30 43 1 42 25
M  V30 44 1 19 9
M  V30 45 1 40 26
M  V30 46 1 37 32
M  V30 47 1 1 43
M  V30 48 1 1 44
M  V30 49 1 1 45
M  V30 50 1 3 46
M  V30 51 1 4 47
M  V30 52 1 8 48
M  V30 53 1 10 49
M  V30 54 1 11 50
M  V30 55 1 19 51
M  V30 56 1 20 52
M  V30 57 1 22 53
M  V30 58 1 27 54
M  V30 59 1 29 55
M  V30 60 1 30 56
M  V30 61 1 30 57
M  V30 62 1 31 58
M  V30 63 1 31 59
M  V30 64 1 33 60
M  V30 65 1 33 61
M  V30 66 1 34 62
M  V30 67 1 34 63
M  V30 68 1 35 64
M  V30 69 1 35 65
M  V30 70 1 36 66
M  V30 71 1 36 67
M  V30 72 1 37 68
M  V30 73 1 37 69
M  V30 74 1 39 70
M  V30 75 1 41 71
M  V30 76 1 41 72
M  V30 77 1 42 73
M  V30 78 1 42 74
M  V30 END BOND
M  V30 END CTAB
M  END
>  <Dataset>  (503) 
ChEMBL_Kinases

>  <Ligand_Instance>  (503) 
nan

>  <PDB_ID>  (503) 
nan

>  <Standardized_SMILES>  (503) 
Cc1ccc(C(=O)Nc2ccc(Cl)c(C(F)(F)F)c2)cc1NC(=O)C1(c2cc(NCCN3CCCCC3)ncn2)CC1

>  <Name>  (503) 
nan

>  <Pocket>  (503) 
nan

>  <ATP_Site>  (503) 
nan

>  <Peripheral>  (503) 
nan

>  <Num_H_Atoms_ProtBoundConf>  (503) 
nan

>  <Num_Resolved_Atoms>  (503) 
nan

>  <Num_Not_Resolved_Atoms>  (503) 
nan

$$$$
CHEMBL4863492
     RDKit          3D

  0  0  0  0  0  0  0  0  0  0999 V3000
M  V30 BEGIN CTAB
M  V30 COUNTS 54 57 0 0 0
M  V30 BEGIN ATOM
M  V30 1 C 2.558573 -3.491766 4.979827 0
M  V30 2 O 2.273125 -2.379594 4.152757 0
M  V30 3 C 1.858366 -2.539890 2.823890 0
M  V30 4 C 1.726387 -3.816578 2.315702 0
M  V30 5 C 1.323609 -3.975657 1.024877 0
M  V30 6 C 1.029069 -2.913304 0.162255 0
M  V30 7 C 1.172949 -1.655719 0.707664 0
M  V30 8 C 1.578414 -1.439853 2.011553 0
M  V30 9 N 1.711082 -0.116943 2.521208 0
M  V30 10 C 1.426917 1.035990 1.740147 0
M  V30 11 N 2.211124 1.786022 0.920636 0
M  V30 12 C 1.682137 2.853453 0.285089 0
M  V30 13 C 0.369261 3.246598 0.411735 0
M  V30 14 C -0.186125 4.397326 -0.279871 0
M  V30 15 N 0.588158 5.214075 -1.143792 0
M  V30 16 O -1.389424 4.729675 -0.146787 0
M  V30 17 C -0.403546 2.468959 1.248819 0
M  V30 18 N -1.765311 2.865321 1.397163 0
M  V30 19 C -2.726768 2.399046 0.468106 0
M  V30 20 C -2.294453 1.585617 -0.546870 0
M  V30 21 C -3.161200 1.092921 -1.489096 0
M  V30 22 C -4.508715 1.448692 -1.381170 0
M  V30 23 C -4.915194 2.275671 -0.339656 0
M  V30 24 C -4.044798 2.777694 0.616674 0
M  V30 25 Br -4.627114 3.907734 2.034638 0
M  V30 26 N 0.134210 1.404394 1.879159 0
M  V30 27 C 0.601624 -3.161039 -1.227878 0
M  V30 28 N 0.277764 -4.494875 -1.522987 0
M  V30 29 C -0.898939 -4.767664 -2.257088 0
M  V30 30 C 0.932964 -5.547172 -0.864728 0
M  V30 31 C 1.212592 -5.405267 0.585376 0
M  V30 32 H 1.719175 -4.210220 4.980010 0
M  V30 33 H 3.484685 -4.021300 4.646842 0
M  V30 34 H 2.716255 -3.148579 6.004157 0
M  V30 35 H 1.953203 -4.635999 2.978633 0
M  V30 36 H 0.963041 -0.792407 0.099159 0
M  V30 37 H 2.021288 0.054486 3.484276 0
M  V30 38 H 2.357246 3.401620 -0.347361 0
M  V30 39 H 0.857879 5.206958 -2.160590 0
M  V30 40 H 1.147119 6.099819 -1.042679 0
M  V30 41 H -2.034409 3.503361 2.203033 0
M  V30 42 H -1.239509 1.291208 -0.653921 0
M  V30 43 H -2.877308 0.450700 -2.307949 0
M  V30 44 H -5.243085 1.096870 -2.088187 0
M  V30 45 H -5.955506 2.540706 -0.270111 0
M  V30 46 H 1.455048 -2.855871 -1.896827 0
M  V30 47 H -0.247809 -2.485726 -1.467217 0
M  V30 48 H -1.700310 -4.013179 -2.158964 0
M  V30 49 H -1.248824 -5.807961 -2.020399 0
M  V30 50 H -0.647307 -4.796357 -3.356523 0
M  V30 51 H 1.883682 -5.867721 -1.385222 0
M  V30 52 H 0.279755 -6.464774 -0.970580 0
M  V30 53 H 2.116511 -5.987828 0.855364 0
M  V30 54 H 0.383400 -5.865126 1.196398 0
M  V30 END ATOM
M  V30 BEGIN BOND
M  V30 1 1 1 2
M  V30 2 1 2 3
M  V30 3 2 3 4
M  V30 4 1 4 5
M  V30 5 2 5 6
M  V30 6 1 6 7
M  V30 7 2 7 8
M  V30 8 1 8 9
M  V30 9 1 9 10
M  V30 10 2 10 11
M  V30 11 1 11 12
M  V30 12 2 12 13
M  V30 13 1 13 14
M  V30 14 1 14 15
M  V30 15 2 14 16
M  V30 16 1 13 17
M  V30 17 1 17 18
M  V30 18 1 18 19
M  V30 19 2 19 20
M  V30 20 1 20 21
M  V30 21 2 21 22
M  V30 22 1 22 23
M  V30 23 2 23 24
M  V30 24 1 24 25
M  V30 25 2 17 26
M  V30 26 1 6 27
M  V30 27 1 27 28
M  V30 28 1 28 29
M  V30 29 1 28 30
M  V30 30 1 30 31
M  V30 31 1 8 3
M  V30 32 1 26 10
M  V30 33 1 31 5
M  V30 34 1 24 19
M  V30 35 1 1 32
M  V30 36 1 1 33
M  V30 37 1 1 34
M  V30 38 1 4 35
M  V30 39 1 7 36
M  V30 40 1 9 37
M  V30 41 1 12 38
M  V30 42 1 15 39
M  V30 43 1 15 40
M  V30 44 1 18 41
M  V30 45 1 20 42
M  V30 46 1 21 43
M  V30 47 1 22 44
M  V30 48 1 23 45
M  V30 49 1 27 46
M  V30 50 1 27 47
M  V30 51 1 29 48
M  V30 52 1 29 49
M  V30 53 1 29 50
M  V30 54 1 30 51
M  V30 55 1 30 52
M  V30 56 1 31 53
M  V30 57 1 31 54
M  V30 END BOND
M  V30 END CTAB
M  END
>  <Dataset>  (504) 
ChEMBL_Kinases

>  <Ligand_Instance>  (504) 
nan

>  <PDB_ID>  (504) 
nan

>  <Standardized_SMILES>  (504) 
COc1cc2c(cc1Nc1ncc(C(N)=O)c(Nc3ccccc3Br)n1)CN(C)CC2

>  <Name>  (504) 
nan

>  <Pocket>  (504) 
nan

>  <ATP_Site>  (504) 
nan

>  <Peripheral>  (504) 
nan

>  <Num_H_Atoms_ProtBoundConf>  (504) 
nan

>  <Num_Resolved_Atoms>  (504) 
nan

>  <Num_Not_Resolved_Atoms>  (504) 
nan

$$$$
CHEMBL4060479
     RDKit          3D

  0  0  0  0  0  0  0  0  0  0999 V3000
M  V30 BEGIN CTAB
M  V30 COUNTS 38 41 0 0 0
M  V30 BEGIN ATOM
M  V30 1 N -1.890022 -5.531318 2.982207 0
M  V30 2 C -1.281077 -4.233760 2.892621 0
M  V30 3 C -0.146055 -3.972127 2.122420 0
M  V30 4 C 0.379296 -2.684396 2.092178 0
M  V30 5 C 1.565098 -2.520488 1.257909 0
M  V30 6 N 2.647509 -3.337295 1.207403 0
M  V30 7 N 3.521397 -2.874603 0.340363 0
M  V30 8 C 3.032394 -1.737395 -0.202494 0
M  V30 9 C 3.498693 -0.842284 -1.142767 0
M  V30 10 C 2.776881 0.265104 -1.523459 0
M  V30 11 C 1.539590 0.539055 -0.979607 0
M  V30 12 N 0.791124 1.673414 -1.386555 0
M  V30 13 C -0.245825 2.414982 -0.768133 0
M  V30 14 C -1.113178 3.177631 -1.496398 0
M  V30 15 C -2.114358 3.917068 -0.928988 0
M  V30 16 C -2.300480 3.929282 0.428835 0
M  V30 17 C -1.452743 3.176752 1.215444 0
M  V30 18 C -0.459755 2.449551 0.593347 0
M  V30 19 C 1.107204 -0.377361 -0.044744 0
M  V30 20 C 1.797912 -1.495609 0.362985 0
M  V30 21 C -0.259894 -1.715451 2.838122 0
M  V30 22 C -1.367927 -1.982453 3.586755 0
M  V30 23 N -1.870931 -3.246938 3.606876 0
M  V30 24 H -2.895096 -5.519321 2.766239 0
M  V30 25 H -1.404442 -6.418914 3.235518 0
M  V30 26 H 0.258613 -4.809243 1.587630 0
M  V30 27 H 4.461981 -3.262147 0.059223 0
M  V30 28 H 4.471625 -0.993829 -1.617418 0
M  V30 29 H 3.162107 0.969060 -2.274140 0
M  V30 30 H 1.060817 2.035001 -2.337244 0
M  V30 31 H -1.013013 3.206576 -2.581822 0
M  V30 32 H -2.766651 4.500123 -1.572133 0
M  V30 33 H -3.095731 4.518421 0.859325 0
M  V30 34 H -1.617437 3.202173 2.271054 0
M  V30 35 H 0.155359 1.906622 1.274867 0
M  V30 36 H 0.147368 -0.270765 0.438270 0
M  V30 37 H 0.174915 -0.737473 2.789204 0
M  V30 38 H -1.780549 -1.138778 4.129290 0
M  V30 END ATOM
M  V30 BEGIN BOND
M  V30 1 1 1 2
M  V30 2 2 2 3
M  V30 3 1 3 4
M  V30 4 1 4 5
M  V30 5 2 5 6
M  V30 6 1 6 7
M  V30 7 1 7 8
M  V30 8 2 8 9
M  V30 9 1 9 10
M  V30 10 2 10 11
M  V30 11 1 11 12
M  V30 12 1 12 13
M  V30 13 2 13 14
M  V30 14 1 14 15
M  V30 15 2 15 16
M  V30 16 1 16 17
M  V30 17 2 17 18
M  V30 18 1 11 19
M  V30 19 2 19 20
M  V30 20 2 4 21
M  V30 21 1 21 22
M  V30 22 2 22 23
M  V30 23 1 23 2
M  V30 24 1 20 5
M  V30 25 1 20 8
M  V30 26 1 18 13
M  V30 27 1 1 24
M  V30 28 1 1 25
M  V30 29 1 3 26
M  V30 30 1 7 27
M  V30 31 1 9 28
M  V30 32 1 10 29
M  V30 33 1 12 30
M  V30 34 1 14 31
M  V30 35 1 15 32
M  V30 36 1 16 33
M  V30 37 1 17 34
M  V30 38 1 18 35
M  V30 39 1 19 36
M  V30 40 1 21 37
M  V30 41 1 22 38
M  V30 END BOND
M  V30 END CTAB
M  END
>  <Dataset>  (505) 
ChEMBL_Kinases

>  <Ligand_Instance>  (505) 
nan

>  <PDB_ID>  (505) 
nan

>  <Standardized_SMILES>  (505) 
Nc1cc(-c2n[nH]c3ccc(Nc4ccccc4)cc23)ccn1

>  <Name>  (505) 
nan

>  <Pocket>  (505) 
nan

>  <ATP_Site>  (505) 
nan

>  <Peripheral>  (505) 
nan

>  <Num_H_Atoms_ProtBoundConf>  (505) 
nan

>  <Num_Resolved_Atoms>  (505) 
nan

>  <Num_Not_Resolved_Atoms>  (505) 
nan

$$$$
CHEMBL4060478
     RDKit          3D

  0  0  0  0  0  0  0  0  0  0999 V3000
M  V30 BEGIN CTAB
M  V30 COUNTS 51 54 0 0 0
M  V30 BEGIN ATOM
M  V30 1 C -2.956219 -6.177500 2.963625 0
M  V30 2 N -1.528575 -6.219395 3.233663 0
M  V30 3 C -0.760922 -5.018248 2.998486 0
M  V30 4 N -0.203002 -4.651909 2.000457 0
M  V30 5 C 0.480420 -3.502884 1.921275 0
M  V30 6 C 1.145803 -3.091450 0.688602 0
M  V30 7 C 1.854504 -1.915369 0.582014 0
M  V30 8 C 2.499035 -1.484255 -0.562263 0
M  V30 9 C 3.226542 -0.209390 -0.560215 0
M  V30 10 O 4.332990 0.312027 -0.276236 0
M  V30 11 N 2.325061 0.784635 -1.071983 0
M  V30 12 C 2.869881 2.147942 -1.149825 0
M  V30 13 C 2.142335 2.986790 -0.125957 0
M  V30 14 N 0.746053 2.672831 -0.032240 0
M  V30 15 C 0.240276 2.352601 1.242970 0
M  V30 16 C -1.207712 2.040677 1.273651 0
M  V30 17 C -1.491722 0.688834 1.076962 0
M  V30 18 C -2.810201 0.214061 1.074392 0
M  V30 19 C -3.826185 1.153073 1.277661 0
M  V30 20 Cl -5.501885 0.579383 1.282002 0
M  V30 21 C -3.552410 2.494337 1.472901 0
M  V30 22 C -2.241412 2.953744 1.473401 0
M  V30 23 C 0.221558 1.981481 -1.163798 0
M  V30 24 C 0.947554 0.723892 -1.542136 0
M  V30 25 C 2.445908 -2.268239 -1.695083 0
M  V30 26 C 1.737056 -3.445630 -1.589857 0
M  V30 27 N 1.135057 -3.803759 -0.448071 0
M  V30 28 C 0.530720 -2.702964 3.082695 0
M  V30 29 S -0.487683 -3.763053 4.264850 0
M  V30 30 H -3.353251 -5.166247 3.226934 0
M  V30 31 H -3.203116 -6.378420 1.903111 0
M  V30 32 H -3.451427 -6.913965 3.623593 0
M  V30 33 H -1.015208 -7.072387 3.592463 0
M  V30 34 H 1.938796 -1.250019 1.433492 0
M  V30 35 H 2.659156 2.503215 -2.179296 0
M  V30 36 H 3.950419 2.185804 -0.947900 0
M  V30 37 H 2.229889 4.052752 -0.424765 0
M  V30 38 H 2.580897 2.869685 0.875187 0
M  V30 39 H 0.798675 1.568009 1.791936 0
M  V30 40 H 0.350984 3.275527 1.881767 0
M  V30 41 H -0.771563 -0.093410 0.916952 0
M  V30 42 H -3.062538 -0.820696 0.924410 0
M  V30 43 H -4.347360 3.228497 1.631258 0
M  V30 44 H -1.938575 3.975810 1.619993 0
M  V30 45 H 0.297007 2.691250 -2.038445 0
M  V30 46 H -0.833556 1.758492 -1.039551 0
M  V30 47 H 0.436604 -0.202674 -1.209388 0
M  V30 48 H 1.028756 0.648122 -2.663923 0
M  V30 49 H 2.931849 -1.973234 -2.605919 0
M  V30 50 H 1.671673 -4.086959 -2.455896 0
M  V30 51 H 1.036768 -1.758122 3.176707 0
M  V30 END ATOM
M  V30 BEGIN BOND
M  V30 1 1 1 2
M  V30 2 1 2 3
M  V30 3 2 3 4
M  V30 4 1 4 5
M  V30 5 1 5 6
M  V30 6 2 6 7
M  V30 7 1 7 8
M  V30 8 1 8 9
M  V30 9 2 9 10
M  V30 10 1 9 11
M  V30 11 1 11 12
M  V30 12 1 12 13
M  V30 13 1 13 14
M  V30 14 1 14 15
M  V30 15 1 15 16
M  V30 16 2 16 17
M  V30 17 1 17 18
M  V30 18 2 18 19
M  V30 19 1 19 20
M  V30 20 1 19 21
M  V30 21 2 21 22
M  V30 22 1 14 23
M  V30 23 1 23 24
M  V30 24 2 8 25
M  V30 25 1 25 26
M  V30 26 2 26 27
M  V30 27 2 5 28
M  V30 28 1 28 29
M  V30 29 1 29 3
M  V30 30 1 27 6
M  V30 31 1 24 11
M  V30 32 1 22 16
M  V30 33 1 1 30
M  V30 34 1 1 31
M  V30 35 1 1 32
M  V30 36 1 2 33
M  V30 37 1 7 34
M  V30 38 1 12 35
M  V30 39 1 12 36
M  V30 40 1 13 37
M  V30 41 1 13 38
M  V30 42 1 15 39
M  V30 43 1 15 40
M  V30 44 1 17 41
M  V30 45 1 18 42
M  V30 46 1 21 43
M  V30 47 1 22 44
M  V30 48 1 23 45
M  V30 49 1 23 46
M  V30 50 1 24 47
M  V30 51 1 24 48
M  V30 52 1 25 49
M  V30 53 1 26 50
M  V30 54 1 28 51
M  V30 END BOND
M  V30 END CTAB
M  END
>  <Dataset>  (506) 
ChEMBL_Kinases

>  <Ligand_Instance>  (506) 
nan

>  <PDB_ID>  (506) 
nan

>  <Standardized_SMILES>  (506) 
CNc1nc(-c2cc(C(=O)N3CCN(Cc4ccc(Cl)cc4)CC3)ccn2)cs1

>  <Name>  (506) 
nan

>  <Pocket>  (506) 
nan

>  <ATP_Site>  (506) 
nan

>  <Peripheral>  (506) 
nan

>  <Num_H_Atoms_ProtBoundConf>  (506) 
nan

>  <Num_Resolved_Atoms>  (506) 
nan

>  <Num_Not_Resolved_Atoms>  (506) 
nan

$$$$
CHEMBL97714
     RDKit          3D

  0  0  0  0  0  0  0  0  0  0999 V3000
M  V30 BEGIN CTAB
M  V30 COUNTS 45 48 0 0 0
M  V30 BEGIN ATOM
M  V30 1 C 2.223678 -4.750749 4.991259 0
M  V30 2 O 1.970974 -3.502128 4.376057 0
M  V30 3 C 2.743115 -2.967003 3.384298 0
M  V30 4 C 3.853694 -3.652422 2.918330 0
M  V30 5 C 4.596349 -3.050048 1.906572 0
M  V30 6 C 4.224857 -1.819062 1.401230 0
M  V30 7 N 4.931252 -1.204515 0.411430 0
M  V30 8 C 4.580548 -0.000850 -0.093066 0
M  V30 9 C 3.470170 0.633103 0.406705 0
M  V30 10 C 3.073248 1.909015 -0.107255 0
M  V30 11 N 2.758055 2.949423 -0.510722 0
M  V30 12 C 2.688358 0.084392 1.415415 0
M  V30 13 N 1.530121 0.705565 1.963208 0
M  V30 14 C 0.246663 0.463737 1.397607 0
M  V30 15 C 0.115416 -0.376976 0.310946 0
M  V30 16 C -1.148344 -0.591847 -0.216667 0
M  V30 17 C -2.255414 0.021806 0.332183 0
M  V30 18 O -3.475043 -0.259602 -0.270357 0
M  V30 19 C -3.900885 0.556982 -1.309867 0
M  V30 20 C -4.664714 1.673158 -1.033279 0
M  V30 21 C -5.129218 2.540721 -2.024855 0
M  V30 22 C -4.806042 2.264352 -3.345278 0
M  V30 23 C -4.042024 1.147270 -3.618082 0
M  V30 24 C -3.587385 0.295281 -2.630030 0
M  V30 25 C -2.119022 0.864157 1.421955 0
M  V30 26 C -0.858087 1.079691 1.949830 0
M  V30 27 C 3.113922 -1.154866 1.881497 0
M  V30 28 C 2.356356 -1.735096 2.890968 0
M  V30 29 H 1.313217 -5.176402 5.452875 0
M  V30 30 H 2.557424 -5.485667 4.227230 0
M  V30 31 H 2.960798 -4.605400 5.807536 0
M  V30 32 H 4.159550 -4.622281 3.305589 0
M  V30 33 H 5.474196 -3.556428 1.514883 0
M  V30 34 H 5.178912 0.441989 -0.880194 0
M  V30 35 H 1.647117 1.330777 2.775157 0
M  V30 36 H 1.003227 -0.843229 -0.096604 0
M  V30 37 H -1.190303 -1.269218 -1.079239 0
M  V30 38 H -4.927364 1.907904 -0.022430 0
M  V30 39 H -5.726974 3.414814 -1.812075 0
M  V30 40 H -5.119738 2.880192 -4.198889 0
M  V30 41 H -3.723361 0.823950 -4.607936 0
M  V30 42 H -2.989225 -0.588764 -2.785459 0
M  V30 43 H -3.020959 1.333762 1.830850 0
M  V30 44 H -0.743961 1.745546 2.812544 0
M  V30 45 H 1.485677 -1.228037 3.276278 0
M  V30 END ATOM
M  V30 BEGIN BOND
M  V30 1 1 1 2
M  V30 2 1 2 3
M  V30 3 2 3 4
M  V30 4 1 4 5
M  V30 5 2 5 6
M  V30 6 1 6 7
M  V30 7 2 7 8
M  V30 8 1 8 9
M  V30 9 1 9 10
M  V30 10 3 10 11
M  V30 11 2 9 12
M  V30 12 1 12 13
M  V30 13 1 13 14
M  V30 14 2 14 15
M  V30 15 1 15 16
M  V30 16 2 16 17
M  V30 17 1 17 18
M  V30 18 1 18 19
M  V30 19 2 19 20
M  V30 20 1 20 21
M  V30 21 2 21 22
M  V30 22 1 22 23
M  V30 23 2 23 24
M  V30 24 1 17 25
M  V30 25 2 25 26
M  V30 26 1 12 27
M  V30 27 2 27 28
M  V30 28 1 28 3
M  V30 29 1 27 6
M  V30 30 1 26 14
M  V30 31 1 24 19
M  V30 32 1 1 29
M  V30 33 1 1 30
M  V30 34 1 1 31
M  V30 35 1 4 32
M  V30 36 1 5 33
M  V30 37 1 8 34
M  V30 38 1 13 35
M  V30 39 1 15 36
M  V30 40 1 16 37
M  V30 41 1 20 38
M  V30 42 1 21 39
M  V30 43 1 22 40
M  V30 44 1 23 41
M  V30 45 1 24 42
M  V30 46 1 25 43
M  V30 47 1 26 44
M  V30 48 1 28 45
M  V30 END BOND
M  V30 END CTAB
M  END
>  <Dataset>  (507) 
ChEMBL_Kinases

>  <Ligand_Instance>  (507) 
nan

>  <PDB_ID>  (507) 
nan

>  <Standardized_SMILES>  (507) 
COc1ccc2ncc(C#N)c(Nc3ccc(Oc4ccccc4)cc3)c2c1

>  <Name>  (507) 
nan

>  <Pocket>  (507) 
nan

>  <ATP_Site>  (507) 
nan

>  <Peripheral>  (507) 
nan

>  <Num_H_Atoms_ProtBoundConf>  (507) 
nan

>  <Num_Resolved_Atoms>  (507) 
nan

>  <Num_Not_Resolved_Atoms>  (507) 
nan

$$$$
CHEMBL4060438
     RDKit          3D

  0  0  0  0  0  0  0  0  0  0999 V3000
M  V30 BEGIN CTAB
M  V30 COUNTS 60 64 0 0 0
M  V30 BEGIN ATOM
M  V30 1 C 2.206037 -4.136477 4.738551 0
M  V30 2 N 3.580743 -4.554683 4.665269 0
M  V30 3 C 4.531367 -3.461576 4.697847 0
M  V30 4 C 4.192709 -2.488032 3.614757 0
M  V30 5 N 3.777482 -3.106688 2.373239 0
M  V30 6 C 2.976008 -2.405655 1.431447 0
M  V30 7 C 2.662962 -1.093174 1.708762 0
M  V30 8 C 1.880278 -0.377414 0.815408 0
M  V30 9 N 1.438868 -0.993551 -0.319258 0
M  V30 10 C 0.676915 -0.509814 -1.318531 0
M  V30 11 C 0.083775 0.812489 -1.510757 0
M  V30 12 C 0.714026 2.024688 -1.327845 0
M  V30 13 C 0.044489 3.210850 -1.540159 0
M  V30 14 C -1.284072 3.181996 -1.944015 0
M  V30 15 C -1.847372 4.512523 -2.124741 0
M  V30 16 N -3.190948 4.588657 -2.541843 0
M  V30 17 O -1.215833 5.563909 -1.933734 0
M  V30 18 C -1.984232 1.985288 -2.148222 0
M  V30 19 O -3.249992 2.219532 -2.535381 0
M  V30 20 C -4.331368 1.439570 -2.854028 0
M  V30 21 C -4.804734 0.564209 -1.755457 0
M  V30 22 C -4.508645 -0.752674 -1.477962 0
M  V30 23 C -5.032582 -1.419247 -0.394647 0
M  V30 24 C -5.884231 -0.808134 0.475337 0
M  V30 25 C -6.235195 0.511831 0.272369 0
M  V30 26 C -5.683051 1.136797 -0.828278 0
M  V30 27 C -1.232039 0.859990 -1.911397 0
M  V30 28 C 0.497154 -1.528767 -2.253806 0
M  V30 29 N 1.162647 -2.610797 -1.788512 0
M  V30 30 C 1.733739 -2.276045 -0.609237 0
M  V30 31 C 2.514782 -2.998942 0.276985 0
M  V30 32 C 4.306072 -4.432847 2.323661 0
M  V30 33 C 3.867398 -5.309934 3.465106 0
M  V30 34 H 1.713773 -4.743883 5.534784 0
M  V30 35 H 1.625823 -4.311638 3.821485 0
M  V30 36 H 2.158753 -3.083379 5.094525 0
M  V30 37 H 5.527751 -3.931073 4.561058 0
M  V30 38 H 4.498986 -2.908890 5.672180 0
M  V30 39 H 5.089708 -1.850896 3.451985 0
M  V30 40 H 3.379251 -1.831127 4.041390 0
M  V30 41 H 2.954826 -0.521801 2.557832 0
M  V30 42 H 1.596808 0.655752 0.972207 0
M  V30 43 H 1.748576 1.985070 -1.013935 0
M  V30 44 H 0.581659 4.134278 -1.384134 0
M  V30 45 H -4.062664 4.931230 -2.049575 0
M  V30 46 H -4.133199 4.594385 -2.958105 0
M  V30 47 H -5.186755 2.136234 -3.094597 0
M  V30 48 H -4.184514 0.832970 -3.792373 0
M  V30 49 H -3.834245 -1.210063 -2.194642 0
M  V30 50 H -4.701342 -2.456433 -0.312649 0
M  V30 51 H -6.262000 -1.384379 1.306863 0
M  V30 52 H -6.896495 1.012212 0.934029 0
M  V30 53 H -5.981981 2.170836 -0.953966 0
M  V30 54 H -1.785513 -0.049419 -2.077904 0
M  V30 55 H -0.034913 -1.580318 -3.192096 0
M  V30 56 H 2.741953 -4.023148 0.031853 0
M  V30 57 H 5.428927 -4.408114 2.238252 0
M  V30 58 H 3.949611 -4.918437 1.393670 0
M  V30 59 H 2.974309 -5.921132 3.225550 0
M  V30 60 H 4.686428 -6.011679 3.710256 0
M  V30 END ATOM
M  V30 BEGIN BOND
M  V30 1 1 1 2
M  V30 2 1 2 3
M  V30 3 1 3 4
M  V30 4 1 4 5
M  V30 5 1 5 6
M  V30 6 1 6 7
M  V30 7 2 7 8
M  V30 8 1 8 9
M  V30 9 1 9 10
M  V30 10 1 10 11
M  V30 11 2 11 12
M  V30 12 1 12 13
M  V30 13 2 13 14
M  V30 14 1 14 15
M  V30 15 1 15 16
M  V30 16 2 15 17
M  V30 17 1 14 18
M  V30 18 1 18 19
M  V30 19 1 19 20
M  V30 20 1 20 21
M  V30 21 2 21 22
M  V30 22 1 22 23
M  V30 23 2 23 24
M  V30 24 1 24 25
M  V30 25 2 25 26
M  V30 26 2 18 27
M  V30 27 2 10 28
M  V30 28 1 28 29
M  V30 29 2 29 30
M  V30 30 1 30 31
M  V30 31 1 5 32
M  V30 32 1 32 33
M  V30 33 1 33 2
M  V30 34 2 31 6
M  V30 35 1 30 9
M  V30 36 1 27 11
M  V30 37 1 26 21
M  V30 38 1 1 34
M  V30 39 1 1 35
M  V30 40 1 1 36
M  V30 41 1 3 37
M  V30 42 1 3 38
M  V30 43 1 4 39
M  V30 44 1 4 40
M  V30 45 1 7 41
M  V30 46 1 8 42
M  V30 47 1 12 43
M  V30 48 1 13 44
M  V30 49 1 16 45
M  V30 50 1 16 46
M  V30 51 1 20 47
M  V30 52 1 20 48
M  V30 53 1 22 49
M  V30 54 1 23 50
M  V30 55 1 24 51
M  V30 56 1 25 52
M  V30 57 1 26 53
M  V30 58 1 27 54
M  V30 59 1 28 55
M  V30 60 1 31 56
M  V30 61 1 32 57
M  V30 62 1 32 58
M  V30 63 1 33 59
M  V30 64 1 33 60
M  V30 END BOND
M  V30 END CTAB
M  END
>  <Dataset>  (508) 
ChEMBL_Kinases

>  <Ligand_Instance>  (508) 
nan

>  <PDB_ID>  (508) 
nan

>  <Standardized_SMILES>  (508) 
CN1CCN(c2ccn3c(-c4ccc(C(N)=O)c(OCc5ccccc5)c4)cnc3c2)CC1

>  <Name>  (508) 
nan

>  <Pocket>  (508) 
nan

>  <ATP_Site>  (508) 
nan

>  <Peripheral>  (508) 
nan

>  <Num_H_Atoms_ProtBoundConf>  (508) 
nan

>  <Num_Resolved_Atoms>  (508) 
nan

>  <Num_Not_Resolved_Atoms>  (508) 
nan

$$$$
CHEMBL4060436
     RDKit          3D

  0  0  0  0  0  0  0  0  0  0999 V3000
M  V30 BEGIN CTAB
M  V30 COUNTS 63 67 0 0 0
M  V30 BEGIN ATOM
M  V30 1 O 2.943551 0.904842 -2.655551 0
M  V30 2 C 4.036074 1.136512 -3.232382 0
M  V30 3 N 5.183264 0.840375 -2.447573 0
M  V30 4 C 4.896534 0.334930 -1.150235 0
M  V30 5 C 4.798534 -1.038198 -1.130807 0
M  V30 6 C 4.522846 -1.685074 0.056888 0
M  V30 7 C 4.350133 -0.942958 1.203262 0
M  V30 8 C 4.438805 0.421511 1.224829 0
M  V30 9 C 4.272780 1.413394 2.311424 0
M  V30 10 N 2.943008 1.955505 2.306023 0
M  V30 11 C 1.663802 1.411820 2.503879 0
M  V30 12 N 0.526490 1.739161 2.504489 0
M  V30 13 C -0.495651 0.957904 2.746561 0
M  V30 14 C -1.824293 1.397923 2.733332 0
M  V30 15 C -2.796997 0.471107 3.004079 0
M  V30 16 C -2.607019 -0.861546 3.291099 0
M  V30 17 O -3.603614 -1.781120 3.561353 0
M  V30 18 C -4.972876 -1.452534 3.576301 0
M  V30 19 C -5.826834 -2.678471 3.904717 0
M  V30 20 N -5.596592 -3.715803 2.885681 0
M  V30 21 C -6.124229 -3.291504 1.625850 0
M  V30 22 C -6.826566 -4.281222 0.794290 0
M  V30 23 O -7.102192 -5.506856 1.352595 0
M  V30 24 C -6.158302 -5.937419 2.282170 0
M  V30 25 C -6.195192 -4.917088 3.405285 0
M  V30 26 C -1.303555 -1.301088 3.305819 0
M  V30 27 C -0.286391 -0.397046 3.037166 0
M  V30 28 S 1.481301 -0.426809 2.928755 0
M  V30 29 C 4.719450 1.074705 0.017373 0
M  V30 30 C 4.033964 1.662849 -4.590396 0
M  V30 31 C 2.779004 1.873503 -5.143337 0
M  V30 32 C 2.718278 2.377070 -6.446640 0
M  V30 33 C 3.873626 2.660167 -7.171100 0
M  V30 34 F 3.708382 3.145883 -8.428636 0
M  V30 35 C 5.102080 2.436388 -6.584295 0
M  V30 36 C 5.184519 1.939315 -5.297988 0
M  V30 37 H 6.123997 1.026221 -2.907720 0
M  V30 38 H 4.918881 -1.697710 -1.981329 0
M  V30 39 H 4.428964 -2.755887 0.157052 0
M  V30 40 H 4.147157 -1.365632 2.164755 0
M  V30 41 H 4.360455 0.852749 3.284211 0
M  V30 42 H 4.995552 2.235751 2.254873 0
M  V30 43 H 2.839290 2.996666 2.114351 0
M  V30 44 H -2.191074 2.416565 2.529072 0
M  V30 45 H -3.844958 0.760116 3.006851 0
M  V30 46 H -5.120569 -0.743261 4.435722 0
M  V30 47 H -5.342224 -0.998455 2.650314 0
M  V30 48 H -6.900694 -2.419609 3.811199 0
M  V30 49 H -5.560046 -3.079084 4.905878 0
M  V30 50 H -5.228225 -2.935828 1.033677 0
M  V30 51 H -6.713073 -2.362584 1.780168 0
M  V30 52 H -7.811716 -3.837624 0.486665 0
M  V30 53 H -6.311377 -4.484558 -0.190975 0
M  V30 54 H -6.445901 -6.951888 2.586756 0
M  V30 55 H -5.147712 -6.030950 1.825449 0
M  V30 56 H -7.273037 -4.755591 3.648837 0
M  V30 57 H -5.617108 -5.231687 4.278494 0
M  V30 58 H -0.966091 -2.303860 3.509476 0
M  V30 59 H 4.825082 2.153186 -0.140973 0
M  V30 60 H 1.838781 1.671598 -4.627269 0
M  V30 61 H 1.741495 2.546256 -6.888002 0
M  V30 62 H 5.985162 2.666634 -7.174581 0
M  V30 63 H 6.157399 1.755770 -4.816937 0
M  V30 END ATOM
M  V30 BEGIN BOND
M  V30 1 2 1 2
M  V30 2 1 2 3
M  V30 3 1 3 4
M  V30 4 2 4 5
M  V30 5 1 5 6
M  V30 6 2 6 7
M  V30 7 1 7 8
M  V30 8 1 8 9
M  V30 9 1 9 10
M  V30 10 1 10 11
M  V30 11 2 11 12
M  V30 12 1 12 13
M  V30 13 2 13 14
M  V30 14 1 14 15
M  V30 15 2 15 16
M  V30 16 1 16 17
M  V30 17 1 17 18
M  V30 18 1 18 19
M  V30 19 1 19 20
M  V30 20 1 20 21
M  V30 21 1 21 22
M  V30 22 1 22 23
M  V30 23 1 23 24
M  V30 24 1 24 25
M  V30 25 1 16 26
M  V30 26 2 26 27
M  V30 27 1 27 28
M  V30 28 2 8 29
M  V30 29 1 2 30
M  V30 30 2 30 31
M  V30 31 1 31 32
M  V30 32 2 32 33
M  V30 33 1 33 34
M  V30 34 1 33 35
M  V30 35 2 35 36
M  V30 36 1 29 4
M  V30 37 1 36 30
M  V30 38 1 28 11
M  V30 39 1 27 13
M  V30 40 1 25 20
M  V30 41 1 3 37
M  V30 42 1 5 38
M  V30 43 1 6 39
M  V30 44 1 7 40
M  V30 45 1 9 41
M  V30 46 1 9 42
M  V30 47 1 10 43
M  V30 48 1 14 44
M  V30 49 1 15 45
M  V30 50 1 18 46
M  V30 51 1 18 47
M  V30 52 1 19 48
M  V30 53 1 19 49
M  V30 54 1 21 50
M  V30 55 1 21 51
M  V30 56 1 22 52
M  V30 57 1 22 53
M  V30 58 1 24 54
M  V30 59 1 24 55
M  V30 60 1 25 56
M  V30 61 1 25 57
M  V30 62 1 26 58
M  V30 63 1 29 59
M  V30 64 1 31 60
M  V30 65 1 32 61
M  V30 66 1 35 62
M  V30 67 1 36 63
M  V30 END BOND
M  V30 END CTAB
M  END
>  <Dataset>  (509) 
ChEMBL_Kinases

>  <Ligand_Instance>  (509) 
nan

>  <PDB_ID>  (509) 
nan

>  <Standardized_SMILES>  (509) 
O=C(Nc1cccc(CNc2nc3ccc(OCCN4CCOCC4)cc3s2)c1)c1ccc(F)cc1

>  <Name>  (509) 
nan

>  <Pocket>  (509) 
nan

>  <ATP_Site>  (509) 
nan

>  <Peripheral>  (509) 
nan

>  <Num_H_Atoms_ProtBoundConf>  (509) 
nan

>  <Num_Resolved_Atoms>  (509) 
nan

>  <Num_Not_Resolved_Atoms>  (509) 
nan

$$$$
CHEMBL4863580
     RDKit          3D

  0  0  0  0  0  0  0  0  0  0999 V3000
M  V30 BEGIN CTAB
M  V30 COUNTS 45 47 0 0 0
M  V30 BEGIN ATOM
M  V30 1 C -2.557321 -7.649296 -2.202109 0
M  V30 2 N -1.226328 -7.489042 -1.627107 0
M  V30 3 C -0.880343 -6.174636 -1.217339 0
M  V30 4 C -0.268953 -5.251386 -2.038085 0
M  V30 5 C -0.003294 -4.019098 -1.477191 0
M  V30 6 O 0.616027 -3.060891 -2.283219 0
M  V30 7 C 0.929477 -1.795054 -1.828998 0
M  V30 8 C 2.177565 -1.627439 -1.255989 0
M  V30 9 C 2.559846 -0.385918 -0.778675 0
M  V30 10 C 1.679682 0.692944 -0.879216 0
M  V30 11 N 2.016569 2.007070 -0.402803 0
M  V30 12 C 1.649738 2.228731 0.962712 0
M  V30 13 O 1.092653 1.345902 1.646093 0
M  V30 14 N 1.893523 3.461225 1.628405 0
M  V30 15 C 1.499856 3.625720 3.010201 0
M  V30 16 C 2.307349 3.331324 4.103742 0
M  V30 17 C 1.794002 3.539982 5.371599 0
M  V30 18 C 0.520065 4.025589 5.577663 0
M  V30 19 C -0.290851 4.321411 4.495752 0
M  V30 20 C -1.677413 4.849401 4.670652 0
M  V30 21 F -1.696652 6.223339 4.698371 0
M  V30 22 F -2.155656 4.390910 5.888374 0
M  V30 23 F -2.442074 4.352518 3.635959 0
M  V30 24 C 0.213603 4.116219 3.236227 0
M  V30 25 C 0.441876 0.490598 -1.456663 0
M  V30 26 C 0.040601 -0.742680 -1.939961 0
M  V30 27 N -0.314908 -3.709441 -0.197550 0
M  V30 28 C -0.919087 -4.645085 0.587806 0
M  V30 29 N -1.199267 -5.875294 0.072912 0
M  V30 30 H -2.603172 -7.295600 -3.254383 0
M  V30 31 H -2.834113 -8.731633 -2.202344 0
M  V30 32 H -3.250866 -7.031744 -1.581108 0
M  V30 33 H -0.596283 -8.312933 -1.538935 0
M  V30 34 H -0.030877 -5.524027 -3.055544 0
M  V30 35 H 2.858744 -2.464371 -1.178678 0
M  V30 36 H 3.538086 -0.227462 -0.322688 0
M  V30 37 H 2.481294 2.765794 -0.947453 0
M  V30 38 H 2.367390 4.214618 1.049837 0
M  V30 39 H 3.296609 2.953578 3.883948 0
M  V30 40 H 2.454327 3.298452 6.193571 0
M  V30 41 H 0.159059 4.173739 6.596876 0
M  V30 42 H -0.438172 4.354412 2.405277 0
M  V30 43 H -0.259593 1.308994 -1.547293 0
M  V30 44 H -0.913216 -0.950830 -2.398167 0
M  V30 45 H -1.200667 -4.481615 1.615665 0
M  V30 END ATOM
M  V30 BEGIN BOND
M  V30 1 1 1 2
M  V30 2 1 2 3
M  V30 3 2 3 4
M  V30 4 1 4 5
M  V30 5 1 5 6
M  V30 6 1 6 7
M  V30 7 2 7 8
M  V30 8 1 8 9
M  V30 9 2 9 10
M  V30 10 1 10 11
M  V30 11 1 11 12
M  V30 12 2 12 13
M  V30 13 1 12 14
M  V30 14 1 14 15
M  V30 15 2 15 16
M  V30 16 1 16 17
M  V30 17 2 17 18
M  V30 18 1 18 19
M  V30 19 1 19 20
M  V30 20 1 20 21
M  V30 21 1 20 22
M  V30 22 1 20 23
M  V30 23 2 19 24
M  V30 24 1 10 25
M  V30 25 2 25 26
M  V30 26 2 5 27
M  V30 27 1 27 28
M  V30 28 2 28 29
M  V30 29 1 29 3
M  V30 30 1 26 7
M  V30 31 1 24 15
M  V30 32 1 1 30
M  V30 33 1 1 31
M  V30 34 1 1 32
M  V30 35 1 2 33
M  V30 36 1 4 34
M  V30 37 1 8 35
M  V30 38 1 9 36
M  V30 39 1 11 37
M  V30 40 1 14 38
M  V30 41 1 16 39
M  V30 42 1 17 40
M  V30 43 1 18 41
M  V30 44 1 24 42
M  V30 45 1 25 43
M  V30 46 1 26 44
M  V30 47 1 28 45
M  V30 END BOND
M  V30 END CTAB
M  END
>  <Dataset>  (510) 
ChEMBL_Kinases

>  <Ligand_Instance>  (510) 
nan

>  <PDB_ID>  (510) 
nan

>  <Standardized_SMILES>  (510) 
CNc1cc(Oc2ccc(NC(=O)Nc3cccc(C(F)(F)F)c3)cc2)ncn1

>  <Name>  (510) 
nan

>  <Pocket>  (510) 
nan

>  <ATP_Site>  (510) 
nan

>  <Peripheral>  (510) 
nan

>  <Num_H_Atoms_ProtBoundConf>  (510) 
nan

>  <Num_Resolved_Atoms>  (510) 
nan

>  <Num_Not_Resolved_Atoms>  (510) 
nan

$$$$
CHEMBL4863607
     RDKit          3D

  0  0  0  0  0  0  0  0  0  0999 V3000
M  V30 BEGIN CTAB
M  V30 COUNTS 77 81 0 0 0
M  V30 BEGIN ATOM
M  V30 1 C 1.222988 -3.496084 4.531408 0
M  V30 2 C 0.892415 -2.450583 3.483709 0
M  V30 3 C 2.222007 -1.925929 3.009440 0
M  V30 4 O 3.023219 -2.604227 3.716028 0
M  V30 5 N 2.494941 -0.931795 2.027496 0
M  V30 6 C 3.907105 -0.611009 1.760584 0 CFG=1
M  V30 7 C 4.264871 -0.926976 0.330578 0
M  V30 8 C 3.408881 0.037946 -0.505783 0
M  V30 9 C 4.123092 1.375784 -0.455616 0 CFG=1
M  V30 10 N 3.452610 2.429429 -1.159999 0
M  V30 11 C 4.099074 3.622959 -1.069569 0
M  V30 12 O 5.177558 3.928073 -0.473029 0
M  V30 13 C 3.564660 4.740307 -1.701157 0
M  V30 14 C 2.391314 4.707351 -2.430031 0
M  V30 15 C 1.783309 5.851236 -3.115556 0
M  V30 16 C 1.753684 3.477406 -2.505636 0
M  V30 17 C 0.575516 3.312447 -3.205881 0
M  V30 18 N 0.031973 2.083020 -3.225868 0
M  V30 19 C 0.579594 1.007653 -2.597565 0
M  V30 20 N -0.136740 -0.208787 -2.732599 0
M  V30 21 C -1.143297 -0.890065 -1.996946 0
M  V30 22 C -1.598964 -0.354351 -0.811449 0
M  V30 23 C -2.577666 -1.094251 -0.177626 0
M  V30 24 C -3.083627 -2.284007 -0.666865 0
M  V30 25 N -4.093818 -3.044272 -0.009371 0
M  V30 26 C -3.988372 -4.431961 0.476148 0
M  V30 27 C -4.727085 -4.485311 1.796318 0
M  V30 28 N -4.748860 -3.192721 2.450892 0
M  V30 29 C -5.367200 -3.356661 3.751007 0
M  V30 30 C -5.453111 -2.176290 1.738327 0
M  V30 31 C -5.407656 -2.488191 0.259592 0
M  V30 32 C -2.564582 -2.741107 -1.862721 0
M  V30 33 C -3.073803 -4.021100 -2.447367 0
M  V30 34 C -1.580503 -2.066215 -2.569567 0
M  V30 35 N 1.711871 1.188809 -1.930196 0
M  V30 36 C 2.310500 2.390369 -1.868024 0
M  V30 37 C 4.544128 1.722546 0.947211 0
M  V30 38 C 4.123404 0.817129 2.027724 0
M  V30 39 H 1.630626 -3.034737 5.453141 0
M  V30 40 H 1.957121 -4.238453 4.167102 0
M  V30 41 H 0.260511 -4.026870 4.752594 0
M  V30 42 H 0.288615 -2.860868 2.670757 0
M  V30 43 H 0.341799 -1.635892 4.009858 0
M  V30 44 H 1.559883 -0.627499 1.690094 0
M  V30 45 H 4.487276 -1.271752 2.463100 0
M  V30 46 H 5.335843 -0.739920 0.185329 0
M  V30 47 H 3.999582 -1.978375 0.090511 0
M  V30 48 H 2.420977 0.045150 -0.005377 0
M  V30 49 H 3.421240 -0.411019 -1.506881 0
M  V30 50 H 5.062460 1.191842 -1.038437 0
M  V30 51 H 4.004171 5.747226 -1.691667 0
M  V30 52 H 0.720507 5.914970 -2.758084 0
M  V30 53 H 2.333968 6.789638 -2.909626 0
M  V30 54 H 1.798272 5.633522 -4.206970 0
M  V30 55 H 0.109692 4.148609 -3.719996 0
M  V30 56 H 0.300048 -0.542609 -3.617032 0
M  V30 57 H -1.219279 0.573391 -0.409205 0
M  V30 58 H -2.961349 -0.705994 0.758186 0
M  V30 59 H -2.958544 -4.785204 0.546398 0
M  V30 60 H -4.543822 -5.070894 -0.238810 0
M  V30 61 H -4.155970 -5.168379 2.458338 0
M  V30 62 H -5.734202 -4.921493 1.672027 0
M  V30 63 H -5.452170 -2.395517 4.297847 0
M  V30 64 H -4.673641 -3.985555 4.375295 0
M  V30 65 H -6.377462 -3.793527 3.701411 0
M  V30 66 H -6.499070 -2.037734 2.097116 0
M  V30 67 H -4.958411 -1.193937 1.987470 0
M  V30 68 H -5.538033 -1.507393 -0.264484 0
M  V30 69 H -6.239845 -3.172888 0.024118 0
M  V30 70 H -4.177199 -4.031794 -2.502134 0
M  V30 71 H -2.760776 -4.892126 -1.837624 0
M  V30 72 H -2.704393 -4.170711 -3.467948 0
M  V30 73 H -1.188636 -2.443221 -3.504620 0
M  V30 74 H 5.640047 1.956430 1.000114 0
M  V30 75 H 4.072025 2.725821 1.172720 0
M  V30 76 H 4.924011 0.872151 2.834716 0
M  V30 77 H 3.222438 1.222053 2.588289 0
M  V30 END ATOM
M  V30 BEGIN BOND
M  V30 1 1 1 2
M  V30 2 1 2 3
M  V30 3 2 3 4
M  V30 4 1 3 5
M  V30 5 1 5 6
M  V30 6 1 6 7
M  V30 7 1 7 8
M  V30 8 1 8 9
M  V30 9 1 9 10
M  V30 10 1 10 11
M  V30 11 2 11 12
M  V30 12 1 11 13
M  V30 13 2 13 14
M  V30 14 1 14 15
M  V30 15 1 14 16
M  V30 16 2 16 17
M  V30 17 1 17 18
M  V30 18 2 18 19
M  V30 19 1 19 20
M  V30 20 1 20 21
M  V30 21 2 21 22
M  V30 22 1 22 23
M  V30 23 2 23 24
M  V30 24 1 24 25
M  V30 25 1 25 26
M  V30 26 1 26 27
M  V30 27 1 27 28
M  V30 28 1 28 29
M  V30 29 1 28 30
M  V30 30 1 30 31
M  V30 31 1 24 32
M  V30 32 1 32 33
M  V30 33 2 32 34
M  V30 34 1 19 35
M  V30 35 2 35 36
M  V30 36 1 9 37
M  V30 37 1 37 38
M  V30 38 1 38 6
M  V30 39 1 36 10
M  V30 40 1 36 16
M  V30 41 1 34 21
M  V30 42 1 31 25
M  V30 43 1 1 39
M  V30 44 1 1 40
M  V30 45 1 1 41
M  V30 46 1 2 42
M  V30 47 1 2 43
M  V30 48 1 5 44
M  V30 49 1 6 45 CFG=1
M  V30 50 1 7 46
M  V30 51 1 7 47
M  V30 52 1 8 48
M  V30 53 1 8 49
M  V30 54 1 9 50 CFG=3
M  V30 55 1 13 51
M  V30 56 1 15 52
M  V30 57 1 15 53
M  V30 58 1 15 54
M  V30 59 1 17 55
M  V30 60 1 20 56
M  V30 61 1 22 57
M  V30 62 1 23 58
M  V30 63 1 26 59
M  V30 64 1 26 60
M  V30 65 1 27 61
M  V30 66 1 27 62
M  V30 67 1 29 63
M  V30 68 1 29 64
M  V30 69 1 29 65
M  V30 70 1 30 66
M  V30 71 1 30 67
M  V30 72 1 31 68
M  V30 73 1 31 69
M  V30 74 1 33 70
M  V30 75 1 33 71
M  V30 76 1 33 72
M  V30 77 1 34 73
M  V30 78 1 37 74
M  V30 79 1 37 75
M  V30 80 1 38 76
M  V30 81 1 38 77
M  V30 END BOND
M  V30 END CTAB
M  END
>  <Dataset>  (511) 
ChEMBL_Kinases

>  <Ligand_Instance>  (511) 
nan

>  <PDB_ID>  (511) 
nan

>  <Standardized_SMILES>  (511) 
CCC(=O)N[C@H]1CC[C@@H](n2c(=O)cc(C)c3cnc(Nc4ccc(N5CCN(C)CC5)c(C)c4)nc32)CC1

>  <Name>  (511) 
nan

>  <Pocket>  (511) 
nan

>  <ATP_Site>  (511) 
nan

>  <Peripheral>  (511) 
nan

>  <Num_H_Atoms_ProtBoundConf>  (511) 
nan

>  <Num_Resolved_Atoms>  (511) 
nan

>  <Num_Not_Resolved_Atoms>  (511) 
nan

$$$$
CHEMBL4060217
     RDKit          3D

  0  0  0  0  0  0  0  0  0  0999 V3000
M  V30 BEGIN CTAB
M  V30 COUNTS 51 54 0 0 0
M  V30 BEGIN ATOM
M  V30 1 C 0.764647 -4.106601 4.614616 0
M  V30 2 C -0.032072 -3.409503 3.568836 0
M  V30 3 C -1.526065 -3.743129 3.669352 0
M  V30 4 C 0.467734 -3.655297 2.194728 0
M  V30 5 C 0.942117 -2.615862 1.385266 0
M  V30 6 C 1.344801 -3.113692 0.138058 0
M  V30 7 N 1.896055 -2.317991 -0.930463 0
M  V30 8 C 0.826591 -1.416305 -1.291835 0
M  V30 9 N 0.825506 -0.312248 -0.489424 0
M  V30 10 C -0.065266 0.683834 -0.606132 0
M  V30 11 N 0.036142 1.797142 0.304098 0
M  V30 12 C 1.192822 1.789047 1.190361 0
M  V30 13 C 1.713583 3.212753 1.211444 0
M  V30 14 C 0.620626 4.060436 1.796179 0
M  V30 15 N 0.415939 3.650934 3.152643 0
M  V30 16 C -0.618309 4.092203 0.950664 0
M  V30 17 C -0.963818 2.807831 0.300267 0
M  V30 18 N -0.995991 0.570336 -1.569002 0
M  V30 19 C -1.041084 -0.490342 -2.383612 0
M  V30 20 C -1.985414 -0.640631 -3.383931 0
M  V30 21 C -1.963610 -1.785120 -4.193736 0
M  V30 22 C -0.999713 -2.784166 -4.010273 0
M  V30 23 Cl -1.023350 -4.206171 -5.067017 0
M  V30 24 C -0.038971 -2.668546 -3.019727 0
M  V30 25 C -0.136959 -1.513994 -2.273699 0
M  V30 26 N 1.102466 -4.448888 0.225848 0
M  V30 27 N 0.602497 -4.727782 1.410242 0
M  V30 28 H 1.300529 -4.977278 4.225301 0
M  V30 29 H 1.539204 -3.415433 5.065954 0
M  V30 30 H 0.085988 -4.328853 5.463884 0
M  V30 31 H 0.010975 -2.308377 3.817786 0
M  V30 32 H -1.899000 -3.236366 4.565028 0
M  V30 33 H -1.667377 -4.846015 3.673406 0
M  V30 34 H -1.982123 -3.306261 2.751756 0
M  V30 35 H 1.021020 -1.550257 1.614236 0
M  V30 36 H 2.883960 -2.458156 -1.289356 0
M  V30 37 H 0.892949 1.519545 2.221193 0
M  V30 38 H 1.969613 1.077751 0.845139 0
M  V30 39 H 1.923304 3.471589 0.154259 0
M  V30 40 H 2.596907 3.303474 1.873597 0
M  V30 41 H 1.022541 5.105810 1.837760 0
M  V30 42 H -0.454495 3.113208 3.265695 0
M  V30 43 H 1.239566 3.153500 3.544550 0
M  V30 44 H -1.472110 4.386389 1.625346 0
M  V30 45 H -0.545385 4.937721 0.229609 0
M  V30 46 H -1.912791 2.350075 0.708877 0
M  V30 47 H -1.245073 3.032842 -0.770667 0
M  V30 48 H -2.732240 0.119231 -3.538242 0
M  V30 49 H -2.718344 -1.883079 -4.978079 0
M  V30 50 H 0.716751 -3.421468 -2.851562 0
M  V30 51 H 0.312432 -5.674543 1.775437 0
M  V30 END ATOM
M  V30 BEGIN BOND
M  V30 1 1 1 2
M  V30 2 1 2 3
M  V30 3 1 2 4
M  V30 4 2 4 5
M  V30 5 1 5 6
M  V30 6 1 6 7
M  V30 7 1 7 8
M  V30 8 2 8 9
M  V30 9 1 9 10
M  V30 10 1 10 11
M  V30 11 1 11 12
M  V30 12 1 12 13
M  V30 13 1 13 14
M  V30 14 1 14 15
M  V30 15 1 14 16
M  V30 16 1 16 17
M  V30 17 2 10 18
M  V30 18 1 18 19
M  V30 19 2 19 20
M  V30 20 1 20 21
M  V30 21 2 21 22
M  V30 22 1 22 23
M  V30 23 1 22 24
M  V30 24 2 24 25
M  V30 25 2 6 26
M  V30 26 1 26 27
M  V30 27 1 27 4
M  V30 28 1 25 8
M  V30 29 1 17 11
M  V30 30 1 25 19
M  V30 31 1 1 28
M  V30 32 1 1 29
M  V30 33 1 1 30
M  V30 34 1 2 31
M  V30 35 1 3 32
M  V30 36 1 3 33
M  V30 37 1 3 34
M  V30 38 1 5 35
M  V30 39 1 7 36
M  V30 40 1 12 37
M  V30 41 1 12 38
M  V30 42 1 13 39
M  V30 43 1 13 40
M  V30 44 1 14 41
M  V30 45 1 15 42
M  V30 46 1 15 43
M  V30 47 1 16 44
M  V30 48 1 16 45
M  V30 49 1 17 46
M  V30 50 1 17 47
M  V30 51 1 20 48
M  V30 52 1 21 49
M  V30 53 1 24 50
M  V30 54 1 27 51
M  V30 END BOND
M  V30 END CTAB
M  END
>  <Dataset>  (512) 
ChEMBL_Kinases

>  <Ligand_Instance>  (512) 
nan

>  <PDB_ID>  (512) 
nan

>  <Standardized_SMILES>  (512) 
CC(C)c1cc(Nc2nc(N3CCC(N)CC3)nc3ccc(Cl)cc23)n[nH]1

>  <Name>  (512) 
nan

>  <Pocket>  (512) 
nan

>  <ATP_Site>  (512) 
nan

>  <Peripheral>  (512) 
nan

>  <Num_H_Atoms_ProtBoundConf>  (512) 
nan

>  <Num_Resolved_Atoms>  (512) 
nan

>  <Num_Not_Resolved_Atoms>  (512) 
nan

$$$$
CHEMBL4060582
     RDKit          3D

  0  0  0  0  0  0  0  0  0  0999 V3000
M  V30 BEGIN CTAB
M  V30 COUNTS 26 28 0 0 0
M  V30 BEGIN ATOM
M  V30 1 C 0.199280 -3.574903 -2.299700 0
M  V30 2 S 1.599171 -2.475801 -1.886578 0
M  V30 3 C 1.224475 -1.756212 -0.292432 0
M  V30 4 S 1.677820 -2.459069 1.240677 0
M  V30 5 C 0.979497 -1.210936 2.294801 0
M  V30 6 C 1.062714 -1.284146 3.732789 0
M  V30 7 N 0.483581 -0.254582 4.494844 0
M  V30 8 O 1.641857 -2.250184 4.285153 0
M  V30 9 C 0.438264 -0.326502 1.397258 0
M  V30 10 C 0.586730 -0.645415 0.074242 0
M  V30 11 C -0.004115 0.306242 -0.910509 0
M  V30 12 S -0.096787 0.381561 -2.617159 0
M  V30 13 N -1.051500 1.998796 -2.644829 0
M  V30 14 N -1.132397 2.190876 -1.497790 0
M  V30 15 C -0.657753 1.432758 -0.523625 0
M  V30 16 C -0.844157 1.806288 0.898184 0
M  V30 17 C -0.251998 0.887083 1.879076 0
M  V30 18 H 0.369758 -4.142595 -3.230904 0
M  V30 19 H -0.739318 -2.956099 -2.339974 0
M  V30 20 H 0.053644 -4.234552 -1.405911 0
M  V30 21 H 1.245135 0.475832 4.625715 0
M  V30 22 H 0.047178 0.493811 5.054175 0
M  V30 23 H -1.955050 1.886470 1.140422 0
M  V30 24 H -0.523658 2.889956 1.084478 0
M  V30 25 H 0.473431 1.470392 2.522109 0
M  V30 26 H -1.049844 0.614004 2.643633 0
M  V30 END ATOM
M  V30 BEGIN BOND
M  V30 1 1 1 2
M  V30 2 1 2 3
M  V30 3 1 3 4
M  V30 4 1 4 5
M  V30 5 1 5 6
M  V30 6 1 6 7
M  V30 7 2 6 8
M  V30 8 2 5 9
M  V30 9 1 9 10
M  V30 10 1 10 11
M  V30 11 1 11 12
M  V30 12 1 12 13
M  V30 13 2 13 14
M  V30 14 1 14 15
M  V30 15 1 15 16
M  V30 16 1 16 17
M  V30 17 2 10 3
M  V30 18 2 15 11
M  V30 19 1 17 9
M  V30 20 1 1 18
M  V30 21 1 1 19
M  V30 22 1 1 20
M  V30 23 1 7 21
M  V30 24 1 7 22
M  V30 25 1 16 23
M  V30 26 1 16 24
M  V30 27 1 17 25
M  V30 28 1 17 26
M  V30 END BOND
M  V30 END CTAB
M  END
>  <Dataset>  (513) 
ChEMBL_Kinases

>  <Ligand_Instance>  (513) 
nan

>  <PDB_ID>  (513) 
nan

>  <Standardized_SMILES>  (513) 
CSc1sc(C(N)=O)c2c1-c1snnc1CC2

>  <Name>  (513) 
nan

>  <Pocket>  (513) 
nan

>  <ATP_Site>  (513) 
nan

>  <Peripheral>  (513) 
nan

>  <Num_H_Atoms_ProtBoundConf>  (513) 
nan

>  <Num_Resolved_Atoms>  (513) 
nan

>  <Num_Not_Resolved_Atoms>  (513) 
nan

$$$$
CHEMBL404479
     RDKit          3D

  0  0  0  0  0  0  0  0  0  0999 V3000
M  V30 BEGIN CTAB
M  V30 COUNTS 62 65 0 0 0
M  V30 BEGIN ATOM
M  V30 1 C 2.488545 3.759311 4.613140 0
M  V30 2 O 2.641889 2.461689 4.104880 0
M  V30 3 C 1.697638 1.707434 3.471416 0
M  V30 4 C 0.435458 2.237379 3.287688 0
M  V30 5 C -0.498916 1.455403 2.645627 0
M  V30 6 C -0.165598 0.189857 2.209265 0
M  V30 7 C 1.117608 -0.313319 2.411657 0
M  V30 8 C 2.111852 0.436029 3.058906 0
M  V30 9 C 3.482297 -0.041406 3.293039 0
M  V30 10 C 4.496001 0.539772 2.355528 0
M  V30 11 C 4.251561 0.247842 0.916467 0
M  V30 12 C 4.249207 -1.236406 0.610983 0
M  V30 13 C 5.348082 0.887545 0.097970 0
M  V30 14 O 3.049838 0.765862 0.445273 0
M  V30 15 N -0.975607 -0.750658 1.537234 0
M  V30 16 C -2.159676 -0.485094 0.782147 0
M  V30 17 C -2.375289 -1.439621 -0.191357 0
M  V30 18 C -3.500697 -1.315586 -1.019355 0
M  V30 19 C -3.657175 -2.367383 -2.026395 0
M  V30 20 C -4.262670 -1.971599 -3.200380 0
M  V30 21 C -4.452390 -2.908350 -4.222354 0
M  V30 22 C -3.995373 -4.172188 -3.931209 0
M  V30 23 N -4.199720 -5.100181 -4.983481 0 CHG=1 VAL=4
M  V30 24 O -4.264841 -4.792720 -6.211242 0
M  V30 25 O -4.396219 -6.365255 -5.445491 0 CHG=-1 VAL=1
M  V30 26 C -3.389752 -4.587563 -2.768511 0
M  V30 27 O -2.952096 -5.881210 -2.541761 0
M  V30 28 C -2.339741 -6.291863 -1.356093 0
M  V30 29 C -3.210555 -3.645928 -1.768230 0
M  V30 30 C -4.378045 -0.260855 -0.866742 0
M  V30 31 C -4.158821 0.697524 0.113108 0
M  V30 32 C -3.050704 0.569413 0.923605 0
M  V30 33 C -2.981102 1.673789 1.899801 0
M  V30 34 O -4.073773 2.224558 2.166575 0
M  V30 35 N -1.755461 2.106492 2.515659 0
M  V30 36 H 1.966396 4.359603 3.816059 0
M  V30 37 H 2.002384 3.836925 5.584094 0
M  V30 38 H 3.482686 4.288994 4.703011 0
M  V30 39 H 0.183605 3.228686 3.632394 0
M  V30 40 H 1.370124 -1.309420 2.066375 0
M  V30 41 H 3.733698 0.178219 4.345085 0
M  V30 42 H 3.505812 -1.143873 3.174233 0
M  V30 43 H 5.525267 0.217544 2.609243 0
M  V30 44 H 4.469670 1.642250 2.489682 0
M  V30 45 H 4.499578 -1.831327 1.527291 0
M  V30 46 H 5.048445 -1.508472 -0.134665 0
M  V30 47 H 3.300073 -1.559647 0.138580 0
M  V30 48 H 4.928616 1.515228 -0.741605 0
M  V30 49 H 5.894413 1.590092 0.732321 0
M  V30 50 H 6.014863 0.133875 -0.370189 0
M  V30 51 H 3.014362 1.736014 0.580294 0
M  V30 52 H -0.693499 -1.752929 1.586319 0
M  V30 53 H -1.654707 -2.261093 -0.279648 0
M  V30 54 H -4.603346 -0.946538 -3.362447 0
M  V30 55 H -4.919212 -2.622372 -5.136549 0
M  V30 56 H -1.763301 -7.225709 -1.506050 0
M  V30 57 H -1.564757 -5.542549 -1.015830 0
M  V30 58 H -3.055884 -6.392831 -0.511454 0
M  V30 59 H -2.745221 -3.889879 -0.825610 0
M  V30 60 H -5.231772 -0.206121 -1.526353 0
M  V30 61 H -4.830902 1.533082 0.254613 0
M  V30 62 H -1.854330 3.077293 2.927149 0
M  V30 END ATOM
M  V30 BEGIN BOND
M  V30 1 1 1 2
M  V30 2 1 2 3
M  V30 3 2 3 4
M  V30 4 1 4 5
M  V30 5 2 5 6
M  V30 6 1 6 7
M  V30 7 2 7 8
M  V30 8 1 8 9
M  V30 9 1 9 10
M  V30 10 1 10 11
M  V30 11 1 11 12
M  V30 12 1 11 13
M  V30 13 1 11 14
M  V30 14 1 6 15
M  V30 15 1 15 16
M  V30 16 2 16 17
M  V30 17 1 17 18
M  V30 18 1 18 19
M  V30 19 2 19 20
M  V30 20 1 20 21
M  V30 21 2 21 22
M  V30 22 1 22 23
M  V30 23 2 23 24
M  V30 24 1 23 25
M  V30 25 1 22 26
M  V30 26 1 26 27
M  V30 27 1 27 28
M  V30 28 2 26 29
M  V30 29 2 18 30
M  V30 30 1 30 31
M  V30 31 2 31 32
M  V30 32 1 32 33
M  V30 33 2 33 34
M  V30 34 1 33 35
M  V30 35 1 8 3
M  V30 36 1 32 16
M  V30 37 1 35 5
M  V30 38 1 29 19
M  V30 39 1 1 36
M  V30 40 1 1 37
M  V30 41 1 1 38
M  V30 42 1 4 39
M  V30 43 1 7 40
M  V30 44 1 9 41
M  V30 45 1 9 42
M  V30 46 1 10 43
M  V30 47 1 10 44
M  V30 48 1 12 45
M  V30 49 1 12 46
M  V30 50 1 12 47
M  V30 51 1 13 48
M  V30 52 1 13 49
M  V30 53 1 13 50
M  V30 54 1 14 51
M  V30 55 1 15 52
M  V30 56 1 17 53
M  V30 57 1 20 54
M  V30 58 1 21 55
M  V30 59 1 28 56
M  V30 60 1 28 57
M  V30 61 1 28 58
M  V30 62 1 29 59
M  V30 63 1 30 60
M  V30 64 1 31 61
M  V30 65 1 35 62
M  V30 END BOND
M  V30 END CTAB
M  END
>  <Dataset>  (514) 
ChEMBL_Kinases

>  <Ligand_Instance>  (514) 
nan

>  <PDB_ID>  (514) 
nan

>  <Standardized_SMILES>  (514) 
COc1cc2c(cc1CCC(C)(C)O)Nc1cc(-c3ccc([N+](=O)[O-])c(OC)c3)ccc1C(=O)N2

>  <Name>  (514) 
nan

>  <Pocket>  (514) 
nan

>  <ATP_Site>  (514) 
nan

>  <Peripheral>  (514) 
nan

>  <Num_H_Atoms_ProtBoundConf>  (514) 
nan

>  <Num_Resolved_Atoms>  (514) 
nan

>  <Num_Not_Resolved_Atoms>  (514) 
nan

$$$$
CHEMBL404446
     RDKit          3D

  0  0  0  0  0  0  0  0  0  0999 V3000
M  V30 BEGIN CTAB
M  V30 COUNTS 49 50 0 0 0
M  V30 BEGIN ATOM
M  V30 1 C 1.683402 -6.309390 -2.571973 0
M  V30 2 C 2.498293 -5.050752 -2.244283 0
M  V30 3 C 2.810548 -4.290632 -3.491472 0
M  V30 4 N 3.570212 -3.093043 -3.312394 0
M  V30 5 C 3.217330 -1.973206 -2.583102 0
M  V30 6 N 3.765909 -0.772055 -2.282401 0
M  V30 7 C 3.019256 -0.004313 -1.524193 0
M  V30 8 C 3.746160 1.292375 -1.268828 0
M  V30 9 C 1.688930 -0.365965 -1.013657 0
M  V30 10 C 0.975349 0.622692 -0.164591 0
M  V30 11 O 1.027517 1.739346 0.351088 0
M  V30 12 N -0.242223 0.018653 0.170904 0
M  V30 13 C -1.216926 0.687637 0.999520 0
M  V30 14 C -1.221801 0.567609 2.370875 0
M  V30 15 C -2.153526 1.206407 3.161053 0
M  V30 16 C -2.085443 1.023937 4.610001 0
M  V30 17 O -1.164527 0.290778 5.055024 0
M  V30 18 N -3.001077 1.632111 5.499545 0
M  V30 19 C -2.724549 1.297971 6.890673 0
M  V30 20 C -2.817089 -0.222175 7.067757 0
M  V30 21 C -3.107842 1.989173 2.546451 0
M  V30 22 C -3.122612 2.125749 1.157362 0
M  V30 23 C -2.172228 1.471367 0.382176 0
M  V30 24 C -2.156139 1.592319 -1.095285 0
M  V30 25 S 1.531066 -1.961348 -1.707485 0
M  V30 26 H 1.007420 -6.098257 -3.414908 0
M  V30 27 H 2.360727 -7.117206 -2.885228 0
M  V30 28 H 1.054150 -6.579388 -1.717074 0
M  V30 29 H 1.846831 -4.475248 -1.556456 0
M  V30 30 H 3.416559 -5.371968 -1.722267 0
M  V30 31 H 3.324573 -4.983370 -4.189108 0
M  V30 32 H 1.835842 -4.059706 -4.016022 0
M  V30 33 H 4.509621 -2.957563 -3.743226 0
M  V30 34 H 3.104078 1.947263 -0.649163 0
M  V30 35 H 3.936698 1.832204 -2.241391 0
M  V30 36 H 4.726985 1.149403 -0.798756 0
M  V30 37 H -0.703863 -0.915591 -0.044517 0
M  V30 38 H -0.439924 -0.065326 2.781020 0
M  V30 39 H -3.758613 2.233191 5.155279 0
M  V30 40 H -1.751639 1.667371 7.243301 0
M  V30 41 H -3.521826 1.783322 7.514275 0
M  V30 42 H -3.103435 -0.676748 6.098337 0
M  V30 43 H -3.580250 -0.512741 7.813857 0
M  V30 44 H -1.796670 -0.635044 7.316768 0
M  V30 45 H -3.847984 2.500042 3.136456 0
M  V30 46 H -3.850937 2.727813 0.636703 0
M  V30 47 H -1.995151 0.639903 -1.616593 0
M  V30 48 H -1.399400 2.357160 -1.422435 0
M  V30 49 H -3.128879 1.987786 -1.436017 0
M  V30 END ATOM
M  V30 BEGIN BOND
M  V30 1 1 1 2
M  V30 2 1 2 3
M  V30 3 1 3 4
M  V30 4 1 4 5
M  V30 5 2 5 6
M  V30 6 1 6 7
M  V30 7 1 7 8
M  V30 8 2 7 9
M  V30 9 1 9 10
M  V30 10 2 10 11
M  V30 11 1 10 12
M  V30 12 1 12 13
M  V30 13 2 13 14
M  V30 14 1 14 15
M  V30 15 1 15 16
M  V30 16 2 16 17
M  V30 17 1 16 18
M  V30 18 1 18 19
M  V30 19 1 19 20
M  V30 20 2 15 21
M  V30 21 1 21 22
M  V30 22 2 22 23
M  V30 23 1 23 24
M  V30 24 1 9 25
M  V30 25 1 25 5
M  V30 26 1 23 13
M  V30 27 1 1 26
M  V30 28 1 1 27
M  V30 29 1 1 28
M  V30 30 1 2 29
M  V30 31 1 2 30
M  V30 32 1 3 31
M  V30 33 1 3 32
M  V30 34 1 4 33
M  V30 35 1 8 34
M  V30 36 1 8 35
M  V30 37 1 8 36
M  V30 38 1 12 37
M  V30 39 1 14 38
M  V30 40 1 18 39
M  V30 41 1 19 40
M  V30 42 1 19 41
M  V30 43 1 20 42
M  V30 44 1 20 43
M  V30 45 1 20 44
M  V30 46 1 21 45
M  V30 47 1 22 46
M  V30 48 1 24 47
M  V30 49 1 24 48
M  V30 50 1 24 49
M  V30 END BOND
M  V30 END CTAB
M  END
>  <Dataset>  (515) 
ChEMBL_Kinases

>  <Ligand_Instance>  (515) 
nan

>  <PDB_ID>  (515) 
nan

>  <Standardized_SMILES>  (515) 
CCCNc1nc(C)c(C(=O)Nc2cc(C(=O)NCC)ccc2C)s1

>  <Name>  (515) 
nan

>  <Pocket>  (515) 
nan

>  <ATP_Site>  (515) 
nan

>  <Peripheral>  (515) 
nan

>  <Num_H_Atoms_ProtBoundConf>  (515) 
nan

>  <Num_Resolved_Atoms>  (515) 
nan

>  <Num_Not_Resolved_Atoms>  (515) 
nan

$$$$
CHEMBL404429
     RDKit          3D

  0  0  0  0  0  0  0  0  0  0999 V3000
M  V30 BEGIN CTAB
M  V30 COUNTS 65 69 0 0 0
M  V30 BEGIN ATOM
M  V30 1 C 1.857624 -1.156664 3.926008 0
M  V30 2 O 2.447428 -0.332087 2.943073 0
M  V30 3 C 2.787529 -0.774167 1.689946 0
M  V30 4 O 2.663568 -1.909939 1.175986 0
M  V30 5 N 3.370400 0.210909 0.847143 0
M  V30 6 C 3.817124 -0.007677 -0.526871 0
M  V30 7 C 3.799916 1.322579 -1.273638 0
M  V30 8 O 2.677921 2.063913 -0.913451 0
M  V30 9 C 2.875275 2.579571 0.354431 0
M  V30 10 C 1.609150 3.020945 0.994085 0
M  V30 11 O 1.955191 3.456290 2.145043 0
M  V30 12 N 0.295716 2.992155 0.496913 0
M  V30 13 C -0.212919 2.522163 -0.796728 0
M  V30 14 C -1.700616 2.432546 -0.724765 0
M  V30 15 C -2.243867 1.826834 0.536231 0
M  V30 16 C -2.269209 0.358974 0.359491 0
M  V30 17 C -3.453922 -0.369824 0.299545 0
M  V30 18 C -3.132008 -1.712786 0.128994 0
M  V30 19 C -3.888896 -2.953081 -0.003578 0
M  V30 20 C -4.756688 -3.478358 0.960398 0
M  V30 21 C -5.398737 -4.666512 0.678188 0
M  V30 22 N -5.244444 -5.348080 -0.458021 0
M  V30 23 C -4.416213 -4.885888 -1.426604 0
M  V30 24 C -3.779414 -3.708577 -1.148184 0
M  V30 25 C -1.765204 -1.796618 0.086193 0
M  V30 26 C -0.791688 -2.891395 -0.070268 0
M  V30 27 C -0.703200 -3.904152 0.859877 0
M  V30 28 C 0.241301 -4.877913 0.617013 0
M  V30 29 C 1.076139 -4.878093 -0.487541 0
M  V30 30 F 2.007198 -5.823590 -0.742033 0
M  V30 31 C 0.961247 -3.854381 -1.394203 0
M  V30 32 C 0.025513 -2.845998 -1.198647 0
M  V30 33 N -1.287642 -0.534401 0.227758 0
M  V30 34 C -1.565040 2.290183 1.776863 0
M  V30 35 C -0.719887 3.503817 1.396405 0
M  V30 36 C 3.630126 1.593982 1.181585 0
M  V30 37 H 2.012256 -2.244229 3.695679 0
M  V30 38 H 0.768299 -0.964811 3.984673 0
M  V30 39 H 2.311060 -0.959889 4.938650 0
M  V30 40 H 3.168939 -0.765964 -1.021896 0
M  V30 41 H 4.833015 -0.448302 -0.478472 0
M  V30 42 H 4.701981 1.879939 -0.966989 0
M  V30 43 H 3.841010 1.150208 -2.377238 0
M  V30 44 H 3.524317 3.476959 0.221667 0
M  V30 45 H 0.307166 1.647074 -1.180274 0
M  V30 46 H 0.022098 3.370411 -1.501945 0
M  V30 47 H -2.062994 1.783964 -1.572904 0
M  V30 48 H -2.191962 3.423917 -0.939083 0
M  V30 49 H -3.319125 2.167158 0.609086 0
M  V30 50 H -4.500463 -0.091454 0.358532 0
M  V30 51 H -4.862850 -2.905306 1.871645 0
M  V30 52 H -6.070323 -5.066001 1.432374 0
M  V30 53 H -4.261770 -5.410964 -2.367923 0
M  V30 54 H -3.107562 -3.330061 -1.929536 0
M  V30 55 H -1.348212 -3.921182 1.731040 0
M  V30 56 H 0.374720 -5.708069 1.298494 0
M  V30 57 H 1.579032 -3.770963 -2.298005 0
M  V30 58 H -0.083893 -2.033275 -1.894325 0
M  V30 59 H -0.306249 -0.179059 0.247525 0
M  V30 60 H -0.922183 1.536994 2.275608 0
M  V30 61 H -2.273008 2.633095 2.569665 0
M  V30 62 H -1.388472 4.172788 0.779703 0
M  V30 63 H -0.340081 4.032148 2.268083 0
M  V30 64 H 4.723474 1.767515 1.065811 0
M  V30 65 H 3.421945 1.684874 2.268508 0
M  V30 END ATOM
M  V30 BEGIN BOND
M  V30 1 1 1 2
M  V30 2 1 2 3
M  V30 3 2 3 4
M  V30 4 1 3 5
M  V30 5 1 5 6
M  V30 6 1 6 7
M  V30 7 1 7 8
M  V30 8 1 8 9
M  V30 9 1 9 10
M  V30 10 2 10 11
M  V30 11 1 10 12
M  V30 12 1 12 13
M  V30 13 1 13 14
M  V30 14 1 14 15
M  V30 15 1 15 16
M  V30 16 2 16 17
M  V30 17 1 17 18
M  V30 18 1 18 19
M  V30 19 2 19 20
M  V30 20 1 20 21
M  V30 21 2 21 22
M  V30 22 1 22 23
M  V30 23 2 23 24
M  V30 24 2 18 25
M  V30 25 1 25 26
M  V30 26 2 26 27
M  V30 27 1 27 28
M  V30 28 2 28 29
M  V30 29 1 29 30
M  V30 30 1 29 31
M  V30 31 2 31 32
M  V30 32 1 25 33
M  V30 33 1 15 34
M  V30 34 1 34 35
M  V30 35 1 9 36
M  V30 36 1 36 5
M  V30 37 1 35 12
M  V30 38 1 33 16
M  V30 39 1 24 19
M  V30 40 1 32 26
M  V30 41 1 1 37
M  V30 42 1 1 38
M  V30 43 1 1 39
M  V30 44 1 6 40
M  V30 45 1 6 41
M  V30 46 1 7 42
M  V30 47 1 7 43
M  V30 48 1 9 44
M  V30 49 1 13 45
M  V30 50 1 13 46
M  V30 51 1 14 47
M  V30 52 1 14 48
M  V30 53 1 15 49
M  V30 54 1 17 50
M  V30 55 1 20 51
M  V30 56 1 21 52
M  V30 57 1 23 53
M  V30 58 1 24 54
M  V30 59 1 27 55
M  V30 60 1 28 56
M  V30 61 1 31 57
M  V30 62 1 32 58
M  V30 63 1 33 59
M  V30 64 1 34 60
M  V30 65 1 34 61
M  V30 66 1 35 62
M  V30 67 1 35 63
M  V30 68 1 36 64
M  V30 69 1 36 65
M  V30 END BOND
M  V30 END CTAB
M  END
>  <Dataset>  (516) 
ChEMBL_Kinases

>  <Ligand_Instance>  (516) 
nan

>  <PDB_ID>  (516) 
nan

>  <Standardized_SMILES>  (516) 
COC(=O)N1CCOC(C(=O)N2CCC(c3cc(-c4ccncc4)c(-c4ccc(F)cc4)[nH]3)CC2)C1

>  <Name>  (516) 
nan

>  <Pocket>  (516) 
nan

>  <ATP_Site>  (516) 
nan

>  <Peripheral>  (516) 
nan

>  <Num_H_Atoms_ProtBoundConf>  (516) 
nan

>  <Num_Resolved_Atoms>  (516) 
nan

>  <Num_Not_Resolved_Atoms>  (516) 
nan

$$$$
CHEMBL4864209
     RDKit          3D

  0  0  0  0  0  0  0  0  0  0999 V3000
M  V30 BEGIN CTAB
M  V30 COUNTS 57 61 0 0 0
M  V30 BEGIN ATOM
M  V30 1 C 4.405231 -3.855289 4.292359 0
M  V30 2 O 3.528095 -4.206562 3.228893 0
M  V30 3 C 3.499134 -3.330202 2.126658 0
M  V30 4 C 4.296884 -2.209247 2.142903 0
M  V30 5 C 4.253016 -1.351648 1.030151 0
M  V30 6 C 3.392081 -1.713741 -0.010118 0
M  V30 7 N 3.413383 -0.782063 -1.095403 0
M  V30 8 C 3.993186 0.505909 -0.886244 0
M  V30 9 N 5.307429 0.858508 -0.888929 0
M  V30 10 C 5.684624 2.134581 -0.665936 0
M  V30 11 N 4.750033 3.082012 -0.436629 0
M  V30 12 C 3.430539 2.835532 -0.414366 0
M  V30 13 C 2.481507 3.810048 -0.187362 0
M  V30 14 C 1.118812 3.483346 -0.187612 0
M  V30 15 C 0.777540 2.170718 -0.419892 0
M  V30 16 C -0.605465 1.671011 -0.461411 0
M  V30 17 C -0.784112 0.302603 -0.721327 0
M  V30 18 C -2.088836 -0.211416 -0.767976 0
M  V30 19 C -3.203694 0.628629 -0.557982 0
M  V30 20 C -4.420722 -0.145976 -0.660075 0
M  V30 21 O -4.863246 0.399548 -1.714485 0
M  V30 22 N -5.041629 -1.185532 0.075192 0
M  V30 23 C -4.769798 -1.957746 1.274847 0
M  V30 24 C -4.767738 -3.444723 0.989785 0
M  V30 25 N -5.928183 -3.901045 0.290741 0
M  V30 26 C -6.173192 -3.122744 -0.903482 0
M  V30 27 C -6.292435 -1.663364 -0.506205 0
M  V30 28 C -2.960213 1.951103 -0.309937 0
M  V30 29 C -1.697095 2.489393 -0.257035 0
M  V30 30 N 1.754641 1.278001 -0.631942 0
M  V30 31 C 3.071491 1.526013 -0.644551 0
M  V30 32 C 2.615812 -2.843289 0.022553 0
M  V30 33 C 2.639324 -3.702645 1.100997 0
M  V30 34 H 4.031403 -2.911934 4.735899 0
M  V30 35 H 4.536022 -4.678692 5.024528 0
M  V30 36 H 5.431051 -3.648204 3.900533 0
M  V30 37 H 4.946337 -1.945846 2.946466 0
M  V30 38 H 4.881578 -0.485320 1.063727 0
M  V30 39 H 2.980482 -1.145649 -1.985687 0
M  V30 40 H 6.750060 2.319527 -0.688185 0
M  V30 41 H 2.781214 4.833444 -0.008287 0
M  V30 42 H 0.335838 4.206571 -0.016228 0
M  V30 43 H 0.064252 -0.368251 -0.886841 0
M  V30 44 H -2.137157 -1.284783 -0.968551 0
M  V30 45 H -5.496312 -1.681990 2.051024 0
M  V30 46 H -3.764611 -1.681413 1.620033 0
M  V30 47 H -3.822860 -3.770035 0.506316 0
M  V30 48 H -4.809561 -3.923799 2.013572 0
M  V30 49 H -5.788814 -4.912039 0.069773 0
M  V30 50 H -7.165082 -3.427943 -1.293713 0
M  V30 51 H -5.384133 -3.276515 -1.672094 0
M  V30 52 H -7.057373 -1.607203 0.292748 0
M  V30 53 H -6.647799 -1.048245 -1.346985 0
M  V30 54 H -3.877040 2.492845 -0.165607 0
M  V30 55 H -1.575328 3.537848 -0.059835 0
M  V30 56 H 1.998746 -3.015633 -0.827362 0
M  V30 57 H 2.034694 -4.590215 1.139665 0
M  V30 END ATOM
M  V30 BEGIN BOND
M  V30 1 1 1 2
M  V30 2 1 2 3
M  V30 3 2 3 4
M  V30 4 1 4 5
M  V30 5 2 5 6
M  V30 6 1 6 7
M  V30 7 1 7 8
M  V30 8 2 8 9
M  V30 9 1 9 10
M  V30 10 2 10 11
M  V30 11 1 11 12
M  V30 12 2 12 13
M  V30 13 1 13 14
M  V30 14 2 14 15
M  V30 15 1 15 16
M  V30 16 2 16 17
M  V30 17 1 17 18
M  V30 18 2 18 19
M  V30 19 1 19 20
M  V30 20 2 20 21
M  V30 21 1 20 22
M  V30 22 1 22 23
M  V30 23 1 23 24
M  V30 24 1 24 25
M  V30 25 1 25 26
M  V30 26 1 26 27
M  V30 27 1 19 28
M  V30 28 2 28 29
M  V30 29 1 15 30
M  V30 30 2 30 31
M  V30 31 1 6 32
M  V30 32 2 32 33
M  V30 33 1 33 3
M  V30 34 1 31 8
M  V30 35 1 31 12
M  V30 36 1 29 16
M  V30 37 1 27 22
M  V30 38 1 1 34
M  V30 39 1 1 35
M  V30 40 1 1 36
M  V30 41 1 4 37
M  V30 42 1 5 38
M  V30 43 1 7 39
M  V30 44 1 10 40
M  V30 45 1 13 41
M  V30 46 1 14 42
M  V30 47 1 17 43
M  V30 48 1 18 44
M  V30 49 1 23 45
M  V30 50 1 23 46
M  V30 51 1 24 47
M  V30 52 1 24 48
M  V30 53 1 25 49
M  V30 54 1 26 50
M  V30 55 1 26 51
M  V30 56 1 27 52
M  V30 57 1 27 53
M  V30 58 1 28 54
M  V30 59 1 29 55
M  V30 60 1 32 56
M  V30 61 1 33 57
M  V30 END BOND
M  V30 END CTAB
M  END
>  <Dataset>  (517) 
ChEMBL_Kinases

>  <Ligand_Instance>  (517) 
nan

>  <PDB_ID>  (517) 
nan

>  <Standardized_SMILES>  (517) 
COc1ccc(Nc2ncnc3ccc(-c4ccc(C(=O)N5CCNCC5)cc4)nc23)cc1

>  <Name>  (517) 
nan

>  <Pocket>  (517) 
nan

>  <ATP_Site>  (517) 
nan

>  <Peripheral>  (517) 
nan

>  <Num_H_Atoms_ProtBoundConf>  (517) 
nan

>  <Num_Resolved_Atoms>  (517) 
nan

>  <Num_Not_Resolved_Atoms>  (517) 
nan

$$$$
CHEMBL4864298
     RDKit          3D

  0  0  0  0  0  0  0  0  0  0999 V3000
M  V30 BEGIN CTAB
M  V30 COUNTS 38 41 0 0 0
M  V30 BEGIN ATOM
M  V30 1 O 5.205378 -3.386841 -0.962041 0
M  V30 2 C 4.366740 -4.077480 -0.326919 0
M  V30 3 O 4.768020 -5.374561 0.013392 0
M  V30 4 C 3.047155 -3.573134 0.042665 0
M  V30 5 C 2.160431 -4.393434 0.749841 0
M  V30 6 C 0.912177 -3.874935 1.083027 0
M  V30 7 C 0.548666 -2.614205 0.740792 0
M  V30 8 C 1.470349 -1.861976 0.045495 0
M  V30 9 C 2.734306 -2.282868 -0.333105 0
M  V30 10 C 1.103387 -0.577554 -0.304264 0
M  V30 11 C -0.139721 -0.015253 0.009631 0
M  V30 12 N -0.440633 1.315899 -0.389168 0
M  V30 13 C -0.756101 2.513190 0.312223 0
M  V30 14 C -1.111809 3.618587 -0.426954 0
M  V30 15 C -1.404639 4.766500 0.257778 0
M  V30 16 C -1.365572 4.880630 1.619264 0
M  V30 17 C -1.010891 3.781574 2.373383 0
M  V30 18 Cl -0.909966 3.751946 4.126790 0
M  V30 19 C -0.714952 2.622398 1.686389 0
M  V30 20 C -0.994816 -0.842585 0.705139 0
M  V30 21 C -2.233604 -0.371126 1.046207 0
M  V30 22 C -3.123262 -1.165654 1.738890 0
M  V30 23 N -2.780467 -2.420231 2.088402 0
M  V30 24 C -1.572084 -2.925058 1.772896 0
M  V30 25 C -0.687129 -2.130808 1.082195 0
M  V30 26 H 5.729278 -5.551308 0.344186 0
M  V30 27 H 2.521160 -5.380328 0.984879 0
M  V30 28 H 0.329366 -4.595244 1.619575 0
M  V30 29 H 3.392434 -1.645425 -0.869291 0
M  V30 30 H 1.782571 0.063313 -0.850788 0
M  V30 31 H -0.392145 1.290966 -1.413971 0
M  V30 32 H -1.163579 3.598882 -1.516257 0
M  V30 33 H -1.685074 5.639179 -0.318301 0
M  V30 34 H -1.592898 5.778846 2.189408 0
M  V30 35 H -0.430066 1.732377 2.252614 0
M  V30 36 H -2.548972 0.615603 0.784610 0
M  V30 37 H -4.125978 -0.813899 2.026996 0
M  V30 38 H -1.412342 -3.917116 2.096573 0
M  V30 END ATOM
M  V30 BEGIN BOND
M  V30 1 2 1 2
M  V30 2 1 2 3
M  V30 3 1 2 4
M  V30 4 2 4 5
M  V30 5 1 5 6
M  V30 6 2 6 7
M  V30 7 1 7 8
M  V30 8 2 8 9
M  V30 9 1 8 10
M  V30 10 2 10 11
M  V30 11 1 11 12
M  V30 12 1 12 13
M  V30 13 2 13 14
M  V30 14 1 14 15
M  V30 15 2 15 16
M  V30 16 1 16 17
M  V30 17 1 17 18
M  V30 18 2 17 19
M  V30 19 1 11 20
M  V30 20 2 20 21
M  V30 21 1 21 22
M  V30 22 2 22 23
M  V30 23 1 23 24
M  V30 24 2 24 25
M  V30 25 1 9 4
M  V30 26 1 19 13
M  V30 27 1 25 20
M  V30 28 1 25 7
M  V30 29 1 3 26
M  V30 30 1 5 27
M  V30 31 1 6 28
M  V30 32 1 9 29
M  V30 33 1 10 30
M  V30 34 1 12 31
M  V30 35 1 14 32
M  V30 36 1 15 33
M  V30 37 1 16 34
M  V30 38 1 19 35
M  V30 39 1 21 36
M  V30 40 1 22 37
M  V30 41 1 24 38
M  V30 END BOND
M  V30 END CTAB
M  END
>  <Dataset>  (518) 
ChEMBL_Kinases

>  <Ligand_Instance>  (518) 
nan

>  <PDB_ID>  (518) 
nan

>  <Standardized_SMILES>  (518) 
O=C(O)c1ccc2c(c1)cc(Nc1cccc(Cl)c1)c1ccncc12

>  <Name>  (518) 
nan

>  <Pocket>  (518) 
nan

>  <ATP_Site>  (518) 
nan

>  <Peripheral>  (518) 
nan

>  <Num_H_Atoms_ProtBoundConf>  (518) 
nan

>  <Num_Resolved_Atoms>  (518) 
nan

>  <Num_Not_Resolved_Atoms>  (518) 
nan

$$$$
CHEMBL404335
     RDKit          3D

  0  0  0  0  0  0  0  0  0  0999 V3000
M  V30 BEGIN CTAB
M  V30 COUNTS 62 67 0 0 0
M  V30 BEGIN ATOM
M  V30 1 C 0.476361 -2.519597 1.116764 0
M  V30 2 N -0.342655 -1.347806 1.405244 0
M  V30 3 C 0.063229 -0.107786 1.740989 0
M  V30 4 C 1.370636 0.297848 1.878129 0
M  V30 5 C 1.750185 1.573765 2.220640 0
M  V30 6 S 3.333357 2.332311 2.427496 0
M  V30 7 C 4.700680 1.312487 1.889491 0
M  V30 8 C 4.907121 1.190166 0.423162 0
M  V30 9 C 3.804486 0.634733 -0.403024 0
M  V30 10 N 4.166973 0.572333 -1.833764 0
M  V30 11 C 3.024810 0.084088 -2.586779 0
M  V30 12 C 3.591171 -0.676675 -3.753432 0
M  V30 13 C 4.788589 -1.331068 -3.145107 0
M  V30 14 C 5.227202 -0.390862 -2.044009 0
M  V30 15 C 0.649732 2.426239 2.418975 0
M  V30 16 O 0.845379 3.760584 2.774005 0
M  V30 17 C -0.664349 2.039736 2.287260 0
M  V30 18 C -0.987879 0.759047 1.943621 0
M  V30 19 C -2.079129 -0.030564 1.709982 0
M  V30 20 C -3.409865 0.258753 1.753364 0
M  V30 21 C -4.360592 -0.693943 1.479318 0
M  V30 22 C -3.970584 -1.976116 1.151428 0
M  V30 23 C -4.833912 -3.111431 0.831249 0
M  V30 24 C -5.291870 -3.457890 -0.436346 0
M  V30 25 C -6.104920 -4.566722 -0.592451 0
M  V30 26 C -6.453568 -5.318584 0.512698 0
M  V30 27 C -5.997540 -4.967630 1.751292 0
M  V30 28 C -5.176376 -3.860509 1.963658 0
M  V30 29 Cl -4.653503 -3.502640 3.575128 0
M  V30 30 C -2.617310 -2.301712 1.099083 0
M  V30 31 C -1.695043 -1.312352 1.382107 0
M  V30 32 C -5.732840 -0.183387 1.580458 0
M  V30 33 O -6.794877 -0.826681 1.385295 0
M  V30 34 N -5.531379 1.198098 1.949204 0
M  V30 35 C -4.147444 1.450312 2.049147 0
M  V30 36 O -3.872608 2.612892 2.361694 0
M  V30 37 H 0.745591 -2.544964 0.032752 0
M  V30 38 H 1.353942 -2.578195 1.783176 0
M  V30 39 H -0.138022 -3.422686 1.290504 0
M  V30 40 H 2.214571 -0.357572 1.746467 0
M  V30 41 H 5.641223 1.766730 2.334704 0
M  V30 42 H 4.673895 0.289820 2.388113 0
M  V30 43 H 5.806709 0.523915 0.232979 0
M  V30 44 H 5.260342 2.177804 0.005491 0
M  V30 45 H 2.869682 1.243992 -0.337522 0
M  V30 46 H 3.567862 -0.418143 -0.152698 0
M  V30 47 H 2.459133 0.942221 -3.005033 0
M  V30 48 H 2.423326 -0.599377 -1.972916 0
M  V30 49 H 2.858558 -1.457405 -4.103478 0
M  V30 50 H 3.947669 -0.025191 -4.580795 0
M  V30 51 H 5.566789 -1.484517 -3.901453 0
M  V30 52 H 4.470331 -2.317351 -2.738418 0
M  V30 53 H 5.458369 -0.945558 -1.105332 0
M  V30 54 H 6.149856 0.121368 -2.362762 0
M  V30 55 H 1.655425 4.258240 2.400542 0
M  V30 56 H -1.435279 2.722563 2.448632 0
M  V30 57 H -4.921553 -2.761692 -1.175001 0
M  V30 58 H -6.387100 -4.718463 -1.640282 0
M  V30 59 H -7.090116 -6.166140 0.299138 0
M  V30 60 H -6.289942 -5.580617 2.601677 0
M  V30 61 H -2.238364 -3.297909 0.846661 0
M  V30 62 H -6.405749 1.787452 2.082588 0
M  V30 END ATOM
M  V30 BEGIN BOND
M  V30 1 1 1 2
M  V30 2 1 2 3
M  V30 3 2 3 4
M  V30 4 1 4 5
M  V30 5 1 5 6
M  V30 6 1 6 7
M  V30 7 1 7 8
M  V30 8 1 8 9
M  V30 9 1 9 10
M  V30 10 1 10 11
M  V30 11 1 11 12
M  V30 12 1 12 13
M  V30 13 1 13 14
M  V30 14 2 5 15
M  V30 15 1 15 16
M  V30 16 1 15 17
M  V30 17 2 17 18
M  V30 18 1 18 19
M  V30 19 2 19 20
M  V30 20 1 20 21
M  V30 21 2 21 22
M  V30 22 1 22 23
M  V30 23 2 23 24
M  V30 24 1 24 25
M  V30 25 2 25 26
M  V30 26 1 26 27
M  V30 27 2 27 28
M  V30 28 1 28 29
M  V30 29 1 22 30
M  V30 30 2 30 31
M  V30 31 1 21 32
M  V30 32 2 32 33
M  V30 33 1 32 34
M  V30 34 1 34 35
M  V30 35 2 35 36
M  V30 36 1 31 2
M  V30 37 1 18 3
M  V30 38 1 31 19
M  V30 39 1 14 10
M  V30 40 1 35 20
M  V30 41 1 28 23
M  V30 42 1 1 37
M  V30 43 1 1 38
M  V30 44 1 1 39
M  V30 45 1 4 40
M  V30 46 1 7 41
M  V30 47 1 7 42
M  V30 48 1 8 43
M  V30 49 1 8 44
M  V30 50 1 9 45
M  V30 51 1 9 46
M  V30 52 1 11 47
M  V30 53 1 11 48
M  V30 54 1 12 49
M  V30 55 1 12 50
M  V30 56 1 13 51
M  V30 57 1 13 52
M  V30 58 1 14 53
M  V30 59 1 14 54
M  V30 60 1 16 55
M  V30 61 1 17 56
M  V30 62 1 24 57
M  V30 63 1 25 58
M  V30 64 1 26 59
M  V30 65 1 27 60
M  V30 66 1 30 61
M  V30 67 1 34 62
M  V30 END BOND
M  V30 END CTAB
M  END
>  <Dataset>  (519) 
ChEMBL_Kinases

>  <Ligand_Instance>  (519) 
nan

>  <PDB_ID>  (519) 
nan

>  <Standardized_SMILES>  (519) 
Cn1c2cc(SCCCN3CCCC3)c(O)cc2c2c3c(c(-c4ccccc4Cl)cc21)C(=O)NC3=O

>  <Name>  (519) 
nan

>  <Pocket>  (519) 
nan

>  <ATP_Site>  (519) 
nan

>  <Peripheral>  (519) 
nan

>  <Num_H_Atoms_ProtBoundConf>  (519) 
nan

>  <Num_Resolved_Atoms>  (519) 
nan

>  <Num_Not_Resolved_Atoms>  (519) 
nan

$$$$
CHEMBL404208
     RDKit          3D

  0  0  0  0  0  0  0  0  0  0999 V3000
M  V30 BEGIN CTAB
M  V30 COUNTS 35 38 0 0 0
M  V30 BEGIN ATOM
M  V30 1 Br 1.552768 -1.024777 5.703214 0
M  V30 2 C 1.471424 -1.864009 3.998384 0
M  V30 3 C 2.198249 -2.969118 3.554939 0
M  V30 4 N 1.785077 -3.184625 2.271653 0
M  V30 5 N 0.875024 -2.273396 1.966942 0
M  V30 6 C 0.208187 -2.116053 0.809786 0
M  V30 7 N 0.336369 -2.920246 -0.355683 0
M  V30 8 C 1.462081 -2.475921 -1.150931 0
M  V30 9 C 1.386359 -1.071185 -1.573374 0
M  V30 10 C 1.974890 -0.209413 -0.646001 0
M  V30 11 C 2.014696 1.164518 -0.855110 0
M  V30 12 C 1.433098 1.590662 -2.033960 0
M  V30 13 N 0.872782 0.751334 -2.913328 0
M  V30 14 C 0.821585 -0.579305 -2.734969 0
M  V30 15 C -0.723732 -1.089590 0.662737 0
M  V30 16 C -0.941891 -0.235720 1.747144 0
M  V30 17 C -1.916361 0.876069 1.684030 0
M  V30 18 C -2.711208 1.249117 0.688645 0
M  V30 19 C -3.546899 2.296776 0.810800 0
M  V30 20 C -3.509127 2.955175 2.063495 0
M  V30 21 S -2.209422 1.973836 3.028817 0
M  V30 22 N -0.252569 -0.429774 2.885401 0
M  V30 23 C 0.638722 -1.431528 2.988895 0
M  V30 24 H 2.924271 -3.517952 4.120934 0
M  V30 25 H -0.447347 -3.603102 -0.272897 0
M  V30 26 H 1.502629 -3.077039 -2.109627 0
M  V30 27 H 2.412911 -2.714820 -0.637108 0
M  V30 28 H 2.441184 -0.521556 0.294406 0
M  V30 29 H 2.471523 1.849601 -0.139779 0
M  V30 30 H 1.439049 2.666453 -2.245247 0
M  V30 31 H 0.388214 -1.318536 -3.396593 0
M  V30 32 H -1.309898 -0.873122 -0.210993 0
M  V30 33 H -2.672345 0.673446 -0.253376 0
M  V30 34 H -4.225931 2.660390 0.038074 0
M  V30 35 H -4.250196 3.921959 2.239970 0
M  V30 END ATOM
M  V30 BEGIN BOND
M  V30 1 1 1 2
M  V30 2 1 2 3
M  V30 3 2 3 4
M  V30 4 1 4 5
M  V30 5 1 5 6
M  V30 6 1 6 7
M  V30 7 1 7 8
M  V30 8 1 8 9
M  V30 9 2 9 10
M  V30 10 1 10 11
M  V30 11 2 11 12
M  V30 12 1 12 13
M  V30 13 2 13 14
M  V30 14 2 6 15
M  V30 15 1 15 16
M  V30 16 1 16 17
M  V30 17 2 17 18
M  V30 18 1 18 19
M  V30 19 2 19 20
M  V30 20 1 20 21
M  V30 21 2 16 22
M  V30 22 1 22 23
M  V30 23 2 23 2
M  V30 24 1 23 5
M  V30 25 1 14 9
M  V30 26 1 21 17
M  V30 27 1 3 24
M  V30 28 1 7 25
M  V30 29 1 8 26
M  V30 30 1 8 27
M  V30 31 1 10 28
M  V30 32 1 11 29
M  V30 33 1 12 30
M  V30 34 1 14 31
M  V30 35 1 15 32
M  V30 36 1 18 33
M  V30 37 1 19 34
M  V30 38 1 20 35
M  V30 END BOND
M  V30 END CTAB
M  END
>  <Dataset>  (520) 
ChEMBL_Kinases

>  <Ligand_Instance>  (520) 
nan

>  <PDB_ID>  (520) 
nan

>  <Standardized_SMILES>  (520) 
Brc1cnn2c(NCc3cccnc3)cc(-c3cccs3)nc12

>  <Name>  (520) 
nan

>  <Pocket>  (520) 
nan

>  <ATP_Site>  (520) 
nan

>  <Peripheral>  (520) 
nan

>  <Num_H_Atoms_ProtBoundConf>  (520) 
nan

>  <Num_Resolved_Atoms>  (520) 
nan

>  <Num_Not_Resolved_Atoms>  (520) 
nan

$$$$
CHEMBL404189
     RDKit          3D

  0  0  0  0  0  0  0  0  0  0999 V3000
M  V30 BEGIN CTAB
M  V30 COUNTS 50 53 0 0 0
M  V30 BEGIN ATOM
M  V30 1 C 6.284005 3.926873 1.523858 0
M  V30 2 O 5.607950 2.951226 2.253082 0
M  V30 3 C 4.583424 2.146286 1.814479 0
M  V30 4 C 4.141182 2.284810 0.515078 0
M  V30 5 C 3.097757 1.430322 0.146685 0
M  V30 6 C 2.575072 0.525810 1.050222 0
M  V30 7 C 3.047074 0.418936 2.343481 0
M  V30 8 C 4.091320 1.259589 2.745104 0
M  V30 9 O 4.585558 1.180319 4.024389 0
M  V30 10 C 4.116505 0.297080 4.999038 0
M  V30 11 N 1.514425 -0.410730 0.830896 0
M  V30 12 C 0.446524 -0.389188 -0.137616 0
M  V30 13 C -0.638006 -1.149654 0.287946 0
M  V30 14 C -1.739532 -1.225491 -0.536902 0
M  V30 15 C -2.815892 -2.046269 0.008206 0
M  V30 16 C -3.030945 -2.125730 1.369624 0
M  V30 17 C -4.045415 -2.898062 1.931292 0
M  V30 18 C -4.867648 -3.614473 1.052989 0
M  V30 19 N -5.888575 -4.385354 1.705378 0 CHG=1 VAL=4
M  V30 20 O -7.046466 -4.673628 1.284357 0
M  V30 21 O -5.602551 -4.892914 2.955526 0 CHG=-1 VAL=1
M  V30 22 C -4.660543 -3.542864 -0.330154 0
M  V30 23 O -5.564223 -4.310926 -1.005359 0
M  V30 24 C -5.679135 -4.496583 -2.383284 0
M  V30 25 C -3.636457 -2.757702 -0.816339 0
M  V30 26 C -1.752969 -0.561835 -1.746267 0
M  V30 27 C -0.663419 0.186743 -2.145895 0
M  V30 28 C 0.460548 0.286744 -1.345052 0
M  V30 29 C 1.536130 1.119054 -1.906963 0
M  V30 30 O 1.395002 1.387191 -3.117128 0
M  V30 31 N 2.692791 1.634666 -1.220063 0
M  V30 32 H 6.611775 3.553259 0.510753 0
M  V30 33 H 5.764503 4.871823 1.370744 0
M  V30 34 H 7.255788 4.159322 2.037630 0
M  V30 35 H 4.555075 2.992832 -0.181212 0
M  V30 36 H 2.594679 -0.309695 3.001801 0
M  V30 37 H 4.669521 -0.664616 4.918026 0
M  V30 38 H 3.016368 0.105779 4.954224 0
M  V30 39 H 4.382386 0.690921 6.016393 0
M  V30 40 H 1.502555 -1.245495 1.466661 0
M  V30 41 H -0.550383 -1.632686 1.236278 0
M  V30 42 H -2.405535 -1.577626 2.081195 0
M  V30 43 H -4.166746 -2.922262 3.002698 0
M  V30 44 H -6.601501 -3.932154 -2.703452 0
M  V30 45 H -5.938663 -5.568631 -2.627678 0
M  V30 46 H -4.794373 -4.231938 -2.977210 0
M  V30 47 H -3.549936 -2.761095 -1.884056 0
M  V30 48 H -2.641050 -0.662825 -2.339042 0
M  V30 49 H -0.662717 0.709522 -3.087795 0
M  V30 50 H 3.316284 2.229882 -1.777302 0
M  V30 END ATOM
M  V30 BEGIN BOND
M  V30 1 1 1 2
M  V30 2 1 2 3
M  V30 3 2 3 4
M  V30 4 1 4 5
M  V30 5 2 5 6
M  V30 6 1 6 7
M  V30 7 2 7 8
M  V30 8 1 8 9
M  V30 9 1 9 10
M  V30 10 1 6 11
M  V30 11 1 11 12
M  V30 12 2 12 13
M  V30 13 1 13 14
M  V30 14 1 14 15
M  V30 15 2 15 16
M  V30 16 1 16 17
M  V30 17 2 17 18
M  V30 18 1 18 19
M  V30 19 2 19 20
M  V30 20 1 19 21
M  V30 21 1 18 22
M  V30 22 1 22 23
M  V30 23 1 23 24
M  V30 24 2 22 25
M  V30 25 2 14 26
M  V30 26 1 26 27
M  V30 27 2 27 28
M  V30 28 1 28 29
M  V30 29 2 29 30
M  V30 30 1 29 31
M  V30 31 1 8 3
M  V30 32 1 28 12
M  V30 33 1 31 5
M  V30 34 1 25 15
M  V30 35 1 1 32
M  V30 36 1 1 33
M  V30 37 1 1 34
M  V30 38 1 4 35
M  V30 39 1 7 36
M  V30 40 1 10 37
M  V30 41 1 10 38
M  V30 42 1 10 39
M  V30 43 1 11 40
M  V30 44 1 13 41
M  V30 45 1 16 42
M  V30 46 1 17 43
M  V30 47 1 24 44
M  V30 48 1 24 45
M  V30 49 1 24 46
M  V30 50 1 25 47
M  V30 51 1 26 48
M  V30 52 1 27 49
M  V30 53 1 31 50
M  V30 END BOND
M  V30 END CTAB
M  END
>  <Dataset>  (521) 
ChEMBL_Kinases

>  <Ligand_Instance>  (521) 
nan

>  <PDB_ID>  (521) 
nan

>  <Standardized_SMILES>  (521) 
COc1cc2c(cc1OC)Nc1cc(-c3ccc([N+](=O)[O-])c(OC)c3)ccc1C(=O)N2

>  <Name>  (521) 
nan

>  <Pocket>  (521) 
nan

>  <ATP_Site>  (521) 
nan

>  <Peripheral>  (521) 
nan

>  <Num_H_Atoms_ProtBoundConf>  (521) 
nan

>  <Num_Resolved_Atoms>  (521) 
nan

>  <Num_Not_Resolved_Atoms>  (521) 
nan

$$$$
CHEMBL404152
     RDKit          3D

  0  0  0  0  0  0  0  0  0  0999 V3000
M  V30 BEGIN CTAB
M  V30 COUNTS 64 67 0 0 0
M  V30 BEGIN ATOM
M  V30 1 C 4.991002 2.898981 3.806886 0
M  V30 2 O 4.910371 3.057604 5.177382 0
M  V30 3 C 4.543902 1.906356 5.827010 0
M  V30 4 C 3.206770 1.371277 5.422266 0
M  V30 5 O 2.170961 2.248807 5.649916 0
M  V30 6 C 0.921750 1.804736 5.307130 0
M  V30 7 C 0.765812 1.458723 3.864737 0
M  V30 8 O 1.014760 2.555941 2.987553 0
M  V30 9 C 0.889281 2.310338 1.604988 0
M  V30 10 C 0.532769 1.017361 1.204778 0
M  V30 11 C 0.409492 0.774619 -0.144763 0
M  V30 12 C 0.620086 1.740247 -1.106265 0
M  V30 13 C 0.973630 3.014165 -0.660824 0
M  V30 14 C 1.109600 3.307228 0.679986 0
M  V30 15 O 1.460329 4.568301 1.139755 0
M  V30 16 C 1.707141 5.657177 0.280749 0
M  V30 17 N 0.528498 1.626807 -2.520948 0
M  V30 18 C -0.185363 0.632294 -3.276877 0
M  V30 19 O -0.347074 0.921028 -4.478334 0
M  V30 20 C -0.712118 -0.633093 -2.769516 0
M  V30 21 C -1.382464 -1.314190 -3.766327 0
M  V30 22 C -1.951708 -2.540180 -3.467953 0
M  V30 23 C -1.866600 -3.092325 -2.212404 0
M  V30 24 C -2.448955 -4.379129 -1.850032 0
M  V30 25 C -1.877172 -5.173658 -0.896682 0
M  V30 26 C -2.378615 -6.404833 -0.506561 0
M  V30 27 C -3.536356 -6.880463 -1.111296 0
M  V30 28 N -4.063871 -8.142604 -0.721656 0 CHG=1 VAL=4
M  V30 29 O -3.817538 -8.536470 0.454182 0
M  V30 30 O -4.825677 -9.007286 -1.483344 0 CHG=-1 VAL=1
M  V30 31 C -4.124582 -6.069580 -2.087980 0
M  V30 32 O -5.274589 -6.625010 -2.636070 0
M  V30 33 C -6.049358 -6.002709 -3.638949 0
M  V30 34 C -3.599367 -4.849682 -2.452188 0
M  V30 35 C -1.197174 -2.420122 -1.203075 0
M  V30 36 C -0.628268 -1.198086 -1.495493 0
M  V30 37 N 0.043935 -0.580306 -0.382345 0
M  V30 38 H 5.312073 3.913415 3.415695 0
M  V30 39 H 5.772129 2.186371 3.486608 0
M  V30 40 H 4.001485 2.690511 3.342378 0
M  V30 41 H 5.306910 1.132921 5.551520 0
M  V30 42 H 4.617554 2.088918 6.927489 0
M  V30 43 H 3.043972 0.384796 5.936744 0
M  V30 44 H 3.234126 1.129719 4.342335 0
M  V30 45 H 0.592520 0.905162 5.886208 0
M  V30 46 H 0.215075 2.653517 5.542314 0
M  V30 47 H -0.270126 1.060558 3.707267 0
M  V30 48 H 1.428772 0.615353 3.591427 0
M  V30 49 H 0.355574 0.223576 1.901039 0
M  V30 50 H 1.138193 3.766808 -1.407252 0
M  V30 51 H 1.533347 6.632605 0.819595 0
M  V30 52 H 1.078459 5.653095 -0.639245 0
M  V30 53 H 2.777505 5.652009 -0.002901 0
M  V30 54 H 1.059467 2.377851 -3.035797 0
M  V30 55 H -1.461948 -0.901676 -4.757024 0
M  V30 56 H -2.492253 -3.119584 -4.219013 0
M  V30 57 H -0.965046 -4.885002 -0.365594 0
M  V30 58 H -1.892291 -7.015821 0.263751 0
M  V30 59 H -7.128184 -6.305334 -3.550759 0
M  V30 60 H -6.027662 -4.907246 -3.465914 0
M  V30 61 H -5.672475 -6.225535 -4.651621 0
M  V30 62 H -4.104707 -4.275210 -3.212980 0
M  V30 63 H -1.066732 -2.762033 -0.171451 0
M  V30 64 H 0.291491 -1.277388 0.361462 0
M  V30 END ATOM
M  V30 BEGIN BOND
M  V30 1 1 1 2
M  V30 2 1 2 3
M  V30 3 1 3 4
M  V30 4 1 4 5
M  V30 5 1 5 6
M  V30 6 1 6 7
M  V30 7 1 7 8
M  V30 8 1 8 9
M  V30 9 2 9 10
M  V30 10 1 10 11
M  V30 11 2 11 12
M  V30 12 1 12 13
M  V30 13 2 13 14
M  V30 14 1 14 15
M  V30 15 1 15 16
M  V30 16 1 12 17
M  V30 17 1 17 18
M  V30 18 2 18 19
M  V30 19 1 18 20
M  V30 20 2 20 21
M  V30 21 1 21 22
M  V30 22 2 22 23
M  V30 23 1 23 24
M  V30 24 2 24 25
M  V30 25 1 25 26
M  V30 26 2 26 27
M  V30 27 1 27 28
M  V30 28 2 28 29
M  V30 29 1 28 30
M  V30 30 1 27 31
M  V30 31 1 31 32
M  V30 32 1 32 33
M  V30 33 2 31 34
M  V30 34 1 23 35
M  V30 35 2 35 36
M  V30 36 1 36 37
M  V30 37 1 14 9
M  V30 38 1 36 20
M  V30 39 1 37 11
M  V30 40 1 34 24
M  V30 41 1 1 38
M  V30 42 1 1 39
M  V30 43 1 1 40
M  V30 44 1 3 41
M  V30 45 1 3 42
M  V30 46 1 4 43
M  V30 47 1 4 44
M  V30 48 1 6 45
M  V30 49 1 6 46
M  V30 50 1 7 47
M  V30 51 1 7 48
M  V30 52 1 10 49
M  V30 53 1 13 50
M  V30 54 1 16 51
M  V30 55 1 16 52
M  V30 56 1 16 53
M  V30 57 1 17 54
M  V30 58 1 21 55
M  V30 59 1 22 56
M  V30 60 1 25 57
M  V30 61 1 26 58
M  V30 62 1 33 59
M  V30 63 1 33 60
M  V30 64 1 33 61
M  V30 65 1 34 62
M  V30 66 1 35 63
M  V30 67 1 37 64
M  V30 END BOND
M  V30 END CTAB
M  END
>  <Dataset>  (522) 
ChEMBL_Kinases

>  <Ligand_Instance>  (522) 
nan

>  <PDB_ID>  (522) 
nan

>  <Standardized_SMILES>  (522) 
COCCOCCOc1cc2c(cc1OC)NC(=O)c1ccc(-c3ccc([N+](=O)[O-])c(OC)c3)cc1N2

>  <Name>  (522) 
nan

>  <Pocket>  (522) 
nan

>  <ATP_Site>  (522) 
nan

>  <Peripheral>  (522) 
nan

>  <Num_H_Atoms_ProtBoundConf>  (522) 
nan

>  <Num_Resolved_Atoms>  (522) 
nan

>  <Num_Not_Resolved_Atoms>  (522) 
nan

$$$$
CHEMBL404118
     RDKit          3D

  0  0  0  0  0  0  0  0  0  0999 V3000
M  V30 BEGIN CTAB
M  V30 COUNTS 56 60 0 0 0
M  V30 BEGIN ATOM
M  V30 1 C 3.381969 -0.537068 4.668308 0
M  V30 2 C 3.394420 -0.819484 3.179406 0
M  V30 3 C 2.110831 -1.569573 2.883286 0
M  V30 4 C 4.624043 -1.606390 2.850636 0
M  V30 5 C 3.398566 0.485579 2.378209 0
M  V30 6 N 3.410558 0.227823 0.963061 0
M  V30 7 C 4.572981 0.105247 0.283101 0
M  V30 8 N 4.269494 -0.129414 -1.004989 0
M  V30 9 C 2.925420 -0.155380 -1.140466 0
M  V30 10 C 2.142374 -0.359421 -2.257143 0
M  V30 11 C 0.784648 -0.318884 -2.026172 0
M  V30 12 C 0.215072 -0.091408 -0.772491 0
M  V30 13 C -1.241405 -0.079365 -0.694164 0
M  V30 14 N -2.111208 0.872196 -0.357419 0
M  V30 15 C -3.374357 0.419973 -0.431296 0
M  V30 16 C -4.640220 1.091919 -0.159736 0
M  V30 17 C -5.842929 0.429769 -0.301310 0
M  V30 18 F -5.833692 -0.880830 -0.704631 0
M  V30 19 C -7.074958 0.959121 -0.075054 0
M  V30 20 C -7.159431 2.280556 0.335541 0
M  V30 21 C -5.976731 2.971167 0.486875 0
M  V30 22 C -4.730775 2.390652 0.244188 0
M  V30 23 F -3.639993 3.136595 0.417329 0
M  V30 24 N -3.261226 -0.859457 -0.829799 0
M  V30 25 C -1.978042 -1.204990 -1.001784 0
M  V30 26 C -1.472954 -2.523207 -1.432045 0
M  V30 27 C -0.684097 -3.105651 -0.436673 0
M  V30 28 C -0.101035 -4.345905 -0.615541 0
M  V30 29 C -0.326898 -4.995559 -1.822559 0
M  V30 30 F 0.235962 -6.213693 -2.018484 0
M  V30 31 C -1.106950 -4.416389 -2.803134 0
M  V30 32 C -1.688375 -3.180625 -2.625931 0
M  V30 33 N 1.058537 0.101779 0.283876 0
M  V30 34 C 2.391358 0.073941 0.122835 0
M  V30 35 H 4.402873 -0.266434 5.036144 0
M  V30 36 H 2.659639 0.230172 4.971388 0
M  V30 37 H 3.099217 -1.484052 5.179968 0
M  V30 38 H 1.280821 -0.821472 2.917820 0
M  V30 39 H 1.868374 -2.301086 3.689235 0
M  V30 40 H 2.142136 -2.083589 1.905508 0
M  V30 41 H 4.905723 -2.327247 3.662962 0
M  V30 42 H 5.477982 -0.901876 2.714273 0
M  V30 43 H 4.485831 -2.234236 1.936294 0
M  V30 44 H 4.310192 1.025081 2.713007 0
M  V30 45 H 2.535669 1.118464 2.709883 0
M  V30 46 H 5.631231 0.155541 0.554058 0
M  V30 47 H 2.538171 -0.539072 -3.247065 0
M  V30 48 H 0.128233 -0.474800 -2.879086 0
M  V30 49 H -1.830529 1.832237 -0.077137 0
M  V30 50 H -7.985247 0.388838 -0.203486 0
M  V30 51 H -8.124824 2.725207 0.521994 0
M  V30 52 H -6.024703 4.017105 0.810831 0
M  V30 53 H -0.457706 -2.667081 0.533115 0
M  V30 54 H 0.520142 -4.824787 0.145116 0
M  V30 55 H -1.301047 -4.896814 -3.752079 0
M  V30 56 H -2.309630 -2.629589 -3.305732 0
M  V30 END ATOM
M  V30 BEGIN BOND
M  V30 1 1 1 2
M  V30 2 1 2 3
M  V30 3 1 2 4
M  V30 4 1 2 5
M  V30 5 1 5 6
M  V30 6 1 6 7
M  V30 7 2 7 8
M  V30 8 1 8 9
M  V30 9 2 9 10
M  V30 10 1 10 11
M  V30 11 2 11 12
M  V30 12 1 12 13
M  V30 13 1 13 14
M  V30 14 1 14 15
M  V30 15 1 15 16
M  V30 16 2 16 17
M  V30 17 1 17 18
M  V30 18 1 17 19
M  V30 19 2 19 20
M  V30 20 1 20 21
M  V30 21 2 21 22
M  V30 22 1 22 23
M  V30 23 2 15 24
M  V30 24 1 24 25
M  V30 25 1 25 26
M  V30 26 2 26 27
M  V30 27 1 27 28
M  V30 28 2 28 29
M  V30 29 1 29 30
M  V30 30 1 29 31
M  V30 31 2 31 32
M  V30 32 1 12 33
M  V30 33 2 33 34
M  V30 34 1 34 6
M  V30 35 1 34 9
M  V30 36 2 25 13
M  V30 37 1 32 26
M  V30 38 1 22 16
M  V30 39 1 1 35
M  V30 40 1 1 36
M  V30 41 1 1 37
M  V30 42 1 3 38
M  V30 43 1 3 39
M  V30 44 1 3 40
M  V30 45 1 4 41
M  V30 46 1 4 42
M  V30 47 1 4 43
M  V30 48 1 5 44
M  V30 49 1 5 45
M  V30 50 1 7 46
M  V30 51 1 10 47
M  V30 52 1 11 48
M  V30 53 1 14 49
M  V30 54 1 19 50
M  V30 55 1 20 51
M  V30 56 1 21 52
M  V30 57 1 27 53
M  V30 58 1 28 54
M  V30 59 1 31 55
M  V30 60 1 32 56
M  V30 END BOND
M  V30 END CTAB
M  END
>  <Dataset>  (523) 
ChEMBL_Kinases

>  <Ligand_Instance>  (523) 
nan

>  <PDB_ID>  (523) 
nan

>  <Standardized_SMILES>  (523) 
CC(C)(C)Cn1cnc2ccc(-c3[nH]c(-c4c(F)cccc4F)nc3-c3ccc(F)cc3)nc21

>  <Name>  (523) 
nan

>  <Pocket>  (523) 
nan

>  <ATP_Site>  (523) 
nan

>  <Peripheral>  (523) 
nan

>  <Num_H_Atoms_ProtBoundConf>  (523) 
nan

>  <Num_Resolved_Atoms>  (523) 
nan

>  <Num_Not_Resolved_Atoms>  (523) 
nan

$$$$
CHEMBL4059699
     RDKit          3D

  0  0  0  0  0  0  0  0  0  0999 V3000
M  V30 BEGIN CTAB
M  V30 COUNTS 55 59 0 0 0
M  V30 BEGIN ATOM
M  V30 1 C 0.772315 -2.471855 6.060181 0
M  V30 2 C 0.936124 -2.196784 4.611168 0
M  V30 3 C 0.729966 -3.211688 3.704883 0
M  V30 4 C 0.878216 -2.969006 2.366006 0
M  V30 5 C 1.222453 -1.775387 1.797237 0
M  V30 6 C 1.340178 -1.449018 0.378828 0
M  V30 7 N 1.851697 -0.284961 0.029726 0
M  V30 8 C 2.055920 0.215562 -1.298125 0
M  V30 9 C 2.481052 -0.513512 -2.428993 0
M  V30 10 N 2.635138 0.064077 -3.637416 0
M  V30 11 C 2.364404 1.394060 -3.742596 0
M  V30 12 N 1.961371 2.103845 -2.689308 0
M  V30 13 C 1.806423 1.551668 -1.496886 0
M  V30 14 S 1.313626 2.608313 -0.222800 0
M  V30 15 O 1.716736 4.042137 -0.572877 0
M  V30 16 O 2.087397 2.288869 1.012943 0
M  V30 17 C -0.417213 2.553182 0.047406 0
M  V30 18 C -1.060304 1.690687 0.921696 0
M  V30 19 C -2.434337 1.723838 1.065329 0
M  V30 20 C -3.213623 2.598798 0.359798 0
M  V30 21 C -4.691330 2.619367 0.528124 0
M  V30 22 C -2.625041 3.478403 -0.523313 0
M  V30 23 C -1.233009 3.433749 -0.658646 0
M  V30 24 S 2.837150 -2.270139 -2.445695 0 CHG=1 VAL=3
M  V30 25 O 3.988553 -2.454111 -1.209836 0 CHG=-1 VAL=1
M  V30 26 C 1.337437 -2.944531 -1.736718 0
M  V30 27 C 0.686245 -3.909846 -2.444620 0
M  V30 28 C -0.509103 -4.375745 -1.942356 0
M  V30 29 C -1.079891 -3.922753 -0.772188 0
M  V30 30 C -2.370845 -4.436624 -0.246724 0
M  V30 31 C -0.443491 -2.948877 -0.037330 0
M  V30 32 C 0.782200 -2.471437 -0.546668 0
M  V30 33 C 1.414660 -0.804691 2.762982 0
M  V30 34 C 1.289655 -0.955727 4.127223 0
M  V30 35 H -0.260804 -2.169430 6.369088 0
M  V30 36 H 1.454625 -1.809827 6.667130 0
M  V30 37 H 0.907799 -3.521673 6.316911 0
M  V30 38 H 0.452603 -4.187917 4.073987 0
M  V30 39 H 0.746793 -3.832425 1.744692 0
M  V30 40 H 2.504221 1.816096 -4.744330 0
M  V30 41 H -0.418154 1.021815 1.455220 0
M  V30 42 H -2.893840 1.024342 1.766531 0
M  V30 43 H -4.978029 3.269421 1.384507 0
M  V30 44 H -5.106468 1.617081 0.727178 0
M  V30 45 H -5.208498 2.984198 -0.397049 0
M  V30 46 H -3.181051 4.208845 -1.124259 0
M  V30 47 H -0.775515 4.126549 -1.353445 0
M  V30 48 H 1.170900 -4.219441 -3.335969 0
M  V30 49 H -1.010925 -5.146494 -2.523719 0
M  V30 50 H -2.724585 -5.289622 -0.844448 0
M  V30 51 H -2.262039 -4.662580 0.833200 0
M  V30 52 H -3.168190 -3.662495 -0.324884 0
M  V30 53 H -0.848704 -2.510967 0.888361 0
M  V30 54 H 1.696191 0.210411 2.538023 0
M  V30 55 H 1.438021 -0.206687 4.870086 0
M  V30 END ATOM
M  V30 BEGIN BOND
M  V30 1 1 1 2
M  V30 2 2 2 3
M  V30 3 1 3 4
M  V30 4 2 4 5
M  V30 5 1 5 6
M  V30 6 2 6 7
M  V30 7 1 7 8
M  V30 8 2 8 9
M  V30 9 1 9 10
M  V30 10 2 10 11
M  V30 11 1 11 12
M  V30 12 2 12 13
M  V30 13 1 13 14
M  V30 14 2 14 15
M  V30 15 2 14 16
M  V30 16 1 14 17
M  V30 17 2 17 18
M  V30 18 1 18 19
M  V30 19 2 19 20
M  V30 20 1 20 21
M  V30 21 1 20 22
M  V30 22 2 22 23
M  V30 23 1 9 24
M  V30 24 1 24 25
M  V30 25 1 24 26
M  V30 26 2 26 27
M  V30 27 1 27 28
M  V30 28 2 28 29
M  V30 29 1 29 30
M  V30 30 1 29 31
M  V30 31 2 31 32
M  V30 32 1 5 33
M  V30 33 2 33 34
M  V30 34 1 34 2
M  V30 35 1 32 6
M  V30 36 1 13 8
M  V30 37 1 23 17
M  V30 38 1 32 26
M  V30 39 1 1 35
M  V30 40 1 1 36
M  V30 41 1 1 37
M  V30 42 1 3 38
M  V30 43 1 4 39
M  V30 44 1 11 40
M  V30 45 1 18 41
M  V30 46 1 19 42
M  V30 47 1 21 43
M  V30 48 1 21 44
M  V30 49 1 21 45
M  V30 50 1 22 46
M  V30 51 1 23 47
M  V30 52 1 27 48
M  V30 53 1 28 49
M  V30 54 1 30 50
M  V30 55 1 30 51
M  V30 56 1 30 52
M  V30 57 1 31 53
M  V30 58 1 33 54
M  V30 59 1 34 55
M  V30 END BOND
M  V30 END CTAB
M  END
>  <Dataset>  (524) 
ChEMBL_Kinases

>  <Ligand_Instance>  (524) 
nan

>  <PDB_ID>  (524) 
nan

>  <Standardized_SMILES>  (524) 
Cc1ccc(C2=Nc3c(ncnc3S(=O)(=O)c3ccc(C)cc3)[S+]([O-])c3ccc(C)cc32)cc1

>  <Name>  (524) 
nan

>  <Pocket>  (524) 
nan

>  <ATP_Site>  (524) 
nan

>  <Peripheral>  (524) 
nan

>  <Num_H_Atoms_ProtBoundConf>  (524) 
nan

>  <Num_Resolved_Atoms>  (524) 
nan

>  <Num_Not_Resolved_Atoms>  (524) 
nan

$$$$
CHEMBL404022
     RDKit          3D

  0  0  0  0  0  0  0  0  0  0999 V3000
M  V30 BEGIN CTAB
M  V30 COUNTS 63 67 0 0 0
M  V30 BEGIN ATOM
M  V30 1 O 2.608751 1.598463 5.431173 0
M  V30 2 C 3.223598 1.653272 4.181148 0
M  V30 3 C 2.792202 0.393471 3.420454 0 CFG=2
M  V30 4 C 3.485254 -0.857397 3.870412 0
M  V30 5 C 3.984742 -0.932813 2.440823 0
M  V30 6 N 3.348182 0.313466 2.099925 0
M  V30 7 C 2.414726 0.284825 0.991056 0
M  V30 8 C 1.780483 1.643586 0.771855 0
M  V30 9 N 0.847776 1.716861 -0.281188 0
M  V30 10 C 1.381419 1.590236 -1.581256 0
M  V30 11 C 0.331868 1.666265 -2.670207 0
M  V30 12 C -1.056416 1.687914 -2.157753 0
M  V30 13 C -1.540945 0.398472 -1.627938 0
M  V30 14 C -2.853466 0.026237 -1.432679 0
M  V30 15 C -2.915577 -1.279076 -0.936957 0
M  V30 16 C -4.026778 -2.155103 -0.552893 0
M  V30 17 C -3.998315 -2.498255 0.788802 0
M  V30 18 C -4.991637 -3.332345 1.319524 0
M  V30 19 N -5.957702 -3.782930 0.503930 0
M  V30 20 C -5.968737 -3.442733 -0.781203 0
M  V30 21 C -5.040950 -2.637499 -1.374825 0
M  V30 22 C -1.605711 -1.715780 -0.826890 0
M  V30 23 C -1.059458 -3.001655 -0.372692 0
M  V30 24 C -1.450017 -4.008436 -1.239109 0
M  V30 25 C -1.050262 -5.324882 -1.020240 0
M  V30 26 C -0.263748 -5.633305 0.059280 0
M  V30 27 F 0.152627 -6.904227 0.313715 0
M  V30 28 C 0.113104 -4.604942 0.911498 0
M  V30 29 C -0.275048 -3.302954 0.706183 0
M  V30 30 N -0.830662 -0.688912 -1.247025 0
M  V30 31 C -1.211187 2.759615 -1.095853 0
M  V30 32 C -0.111308 2.725808 -0.077344 0
M  V30 33 H 1.625120 1.649646 5.304097 0
M  V30 34 H 2.821624 2.526090 3.620352 0
M  V30 35 H 4.314653 1.733601 4.267708 0
M  V30 36 H 1.696371 0.299719 3.516988 0
M  V30 37 H 2.790255 -1.694216 4.093044 0
M  V30 38 H 4.265172 -0.723699 4.644216 0
M  V30 39 H 3.560093 -1.786305 1.876250 0
M  V30 40 H 5.102583 -0.881854 2.462551 0
M  V30 41 H 1.685721 -0.497067 1.201336 0
M  V30 42 H 3.001599 0.025132 0.082335 0
M  V30 43 H 2.547903 2.440020 0.674735 0
M  V30 44 H 1.227353 1.872758 1.732183 0
M  V30 45 H 2.055975 2.483661 -1.746578 0
M  V30 46 H 2.038997 0.729700 -1.747512 0
M  V30 47 H 0.435660 0.729233 -3.282909 0
M  V30 48 H 0.487671 2.534591 -3.331973 0
M  V30 49 H -1.745784 2.024591 -2.987000 0
M  V30 50 H -3.744151 0.582756 -1.605485 0
M  V30 51 H -3.262238 -2.178285 1.498648 0
M  V30 52 H -5.004988 -3.619390 2.347219 0
M  V30 53 H -6.750015 -3.813977 -1.413282 0
M  V30 54 H -4.975215 -2.313854 -2.403007 0
M  V30 55 H -2.070388 -3.934894 -2.139203 0
M  V30 56 H -1.322147 -6.168170 -1.664543 0
M  V30 57 H 0.733141 -4.792601 1.775986 0
M  V30 58 H -0.040588 -2.434348 1.302778 0
M  V30 59 H 0.216525 -0.761816 -1.270428 0
M  V30 60 H -1.336867 3.774303 -1.515419 0
M  V30 61 H -2.162073 2.514973 -0.582360 0
M  V30 62 H 0.426390 3.715792 -0.146803 0
M  V30 63 H -0.530625 2.676099 0.922643 0
M  V30 END ATOM
M  V30 BEGIN BOND
M  V30 1 1 1 2
M  V30 2 1 2 3
M  V30 3 1 3 4
M  V30 4 1 4 5
M  V30 5 1 5 6
M  V30 6 1 6 7
M  V30 7 1 7 8
M  V30 8 1 8 9
M  V30 9 1 9 10
M  V30 10 1 10 11
M  V30 11 1 11 12
M  V30 12 1 12 13
M  V30 13 2 13 14
M  V30 14 1 14 15
M  V30 15 1 15 16
M  V30 16 2 16 17
M  V30 17 1 17 18
M  V30 18 2 18 19
M  V30 19 1 19 20
M  V30 20 2 20 21
M  V30 21 2 15 22
M  V30 22 1 22 23
M  V30 23 2 23 24
M  V30 24 1 24 25
M  V30 25 2 25 26
M  V30 26 1 26 27
M  V30 27 1 26 28
M  V30 28 2 28 29
M  V30 29 1 22 30
M  V30 30 1 12 31
M  V30 31 1 31 32
M  V30 32 1 6 3
M  V30 33 1 32 9
M  V30 34 1 30 13
M  V30 35 1 21 16
M  V30 36 1 29 23
M  V30 37 1 1 33
M  V30 38 1 2 34
M  V30 39 1 2 35
M  V30 40 1 3 36 CFG=3
M  V30 41 1 4 37
M  V30 42 1 4 38
M  V30 43 1 5 39
M  V30 44 1 5 40
M  V30 45 1 7 41
M  V30 46 1 7 42
M  V30 47 1 8 43
M  V30 48 1 8 44
M  V30 49 1 10 45
M  V30 50 1 10 46
M  V30 51 1 11 47
M  V30 52 1 11 48
M  V30 53 1 12 49
M  V30 54 1 14 50
M  V30 55 1 17 51
M  V30 56 1 18 52
M  V30 57 1 20 53
M  V30 58 1 21 54
M  V30 59 1 24 55
M  V30 60 1 25 56
M  V30 61 1 28 57
M  V30 62 1 29 58
M  V30 63 1 30 59
M  V30 64 1 31 60
M  V30 65 1 31 61
M  V30 66 1 32 62
M  V30 67 1 32 63
M  V30 END BOND
M  V30 END CTAB
M  END
>  <Dataset>  (525) 
ChEMBL_Kinases

>  <Ligand_Instance>  (525) 
nan

>  <PDB_ID>  (525) 
nan

>  <Standardized_SMILES>  (525) 
OC[C@@H]1CCN1CCN1CCC(c2cc(-c3ccncc3)c(-c3ccc(F)cc3)[nH]2)CC1

>  <Name>  (525) 
nan

>  <Pocket>  (525) 
nan

>  <ATP_Site>  (525) 
nan

>  <Peripheral>  (525) 
nan

>  <Num_H_Atoms_ProtBoundConf>  (525) 
nan

>  <Num_Resolved_Atoms>  (525) 
nan

>  <Num_Not_Resolved_Atoms>  (525) 
nan

$$$$
CHEMBL4864439
     RDKit          3D

  0  0  0  0  0  0  0  0  0  0999 V3000
M  V30 BEGIN CTAB
M  V30 COUNTS 44 46 0 0 0
M  V30 BEGIN ATOM
M  V30 1 C 3.092219 -4.514021 0.736262 0
M  V30 2 O 2.565688 -3.349775 0.190567 0
M  V30 3 C 2.215438 -3.233699 -1.193447 0
M  V30 4 N 2.146825 -3.807036 -2.387321 0
M  V30 5 N 1.645570 -2.931240 -3.264751 0
M  V30 6 C 1.566786 -3.546063 -4.574487 0
M  V30 7 C 1.448894 -1.836869 -2.447004 0
M  V30 8 C 1.805625 -1.938545 -1.015423 0
M  V30 9 C 1.369709 -0.560924 -0.826103 0
M  V30 10 O 1.744103 -0.786046 0.370438 0
M  V30 11 N 0.850867 0.713228 -1.122516 0
M  V30 12 C 0.845090 1.554020 0.028540 0
M  V30 13 C 1.964998 2.318858 0.274053 0
M  V30 14 C 1.874180 3.100975 1.403859 0
M  V30 15 C 0.734152 3.073377 2.175929 0
M  V30 16 C -0.383551 2.286808 1.899918 0
M  V30 17 C -1.467710 2.422445 2.855694 0
M  V30 18 N -1.973742 3.627069 3.176330 0
M  V30 19 N -2.944283 3.489602 4.060958 0
M  V30 20 C -3.049290 2.151291 4.302284 0
M  V30 21 N -2.141101 1.499655 3.560487 0
M  V30 22 C -1.921819 0.087504 3.517825 0 CFG=2
M  V30 23 C -0.499120 -0.329603 3.282533 0
M  V30 24 C -2.747842 -0.552104 2.405199 0
M  V30 25 F -4.092962 -0.345545 2.582024 0
M  V30 26 F -2.539255 -1.928760 2.550058 0
M  V30 27 N -0.274270 1.527904 0.788811 0
M  V30 28 H 3.982403 -4.279396 1.391996 0
M  V30 29 H 2.362112 -4.998204 1.413938 0
M  V30 30 H 3.372170 -5.204338 -0.094197 0
M  V30 31 H 2.535971 -3.914894 -4.903473 0
M  V30 32 H 1.125458 -2.792117 -5.268651 0
M  V30 33 H 0.837543 -4.380513 -4.536837 0
M  V30 34 H 1.036436 -1.214238 -3.320372 0
M  V30 35 H 0.661643 0.515010 -2.153253 0
M  V30 36 H 2.836429 2.323563 -0.338107 0
M  V30 37 H 2.730526 3.728159 1.647789 0
M  V30 38 H 0.776424 3.727476 3.036093 0
M  V30 39 H -3.752678 1.695472 4.982409 0
M  V30 40 H -2.255886 -0.356688 4.487525 0
M  V30 41 H -0.201289 -1.139922 4.013780 0
M  V30 42 H -0.354673 -0.824310 2.291269 0
M  V30 43 H 0.227133 0.479565 3.455670 0
M  V30 44 H -2.357040 -0.227949 1.441290 0
M  V30 END ATOM
M  V30 BEGIN BOND
M  V30 1 1 1 2
M  V30 2 1 2 3
M  V30 3 2 3 4
M  V30 4 1 4 5
M  V30 5 1 5 6
M  V30 6 1 5 7
M  V30 7 2 7 8
M  V30 8 1 8 9
M  V30 9 2 9 10
M  V30 10 1 9 11
M  V30 11 1 11 12
M  V30 12 2 12 13
M  V30 13 1 13 14
M  V30 14 2 14 15
M  V30 15 1 15 16
M  V30 16 1 16 17
M  V30 17 2 17 18
M  V30 18 1 18 19
M  V30 19 2 19 20
M  V30 20 1 20 21
M  V30 21 1 21 22
M  V30 22 1 22 23
M  V30 23 1 22 24
M  V30 24 1 24 25
M  V30 25 1 24 26
M  V30 26 2 16 27
M  V30 27 1 8 3
M  V30 28 1 27 12
M  V30 29 1 21 17
M  V30 30 1 1 28
M  V30 31 1 1 29
M  V30 32 1 1 30
M  V30 33 1 6 31
M  V30 34 1 6 32
M  V30 35 1 6 33
M  V30 36 1 7 34
M  V30 37 1 11 35
M  V30 38 1 13 36
M  V30 39 1 14 37
M  V30 40 1 15 38
M  V30 41 1 20 39
M  V30 42 1 22 40 CFG=1
M  V30 43 1 23 41
M  V30 44 1 23 42
M  V30 45 1 23 43
M  V30 46 1 24 44
M  V30 END BOND
M  V30 END CTAB
M  END
>  <Dataset>  (526) 
ChEMBL_Kinases

>  <Ligand_Instance>  (526) 
nan

>  <PDB_ID>  (526) 
nan

>  <Standardized_SMILES>  (526) 
COc1nn(C)cc1C(=O)Nc1cccc(-c2nncn2[C@H](C)C(F)F)n1

>  <Name>  (526) 
nan

>  <Pocket>  (526) 
nan

>  <ATP_Site>  (526) 
nan

>  <Peripheral>  (526) 
nan

>  <Num_H_Atoms_ProtBoundConf>  (526) 
nan

>  <Num_Resolved_Atoms>  (526) 
nan

>  <Num_Not_Resolved_Atoms>  (526) 
nan

$$$$
CHEMBL403851
     RDKit          3D

  0  0  0  0  0  0  0  0  0  0999 V3000
M  V30 BEGIN CTAB
M  V30 COUNTS 50 54 0 0 0
M  V30 BEGIN ATOM
M  V30 1 C 2.683892 -6.807548 2.693783 0
M  V30 2 C 3.811874 -6.552586 1.728200 0
M  V30 3 N 3.278194 -5.861036 0.561783 0
M  V30 4 C 2.664063 -4.600027 0.810082 0
M  V30 5 N 2.540284 -4.010409 2.018171 0
M  V30 6 C 1.918896 -2.833216 1.917939 0
M  V30 7 C 1.495008 -1.780070 2.710995 0
M  V30 8 C 0.841978 -0.666716 2.173010 0
M  V30 9 C 0.605683 -0.606519 0.793231 0
M  V30 10 C -0.076882 0.637192 0.458196 0
M  V30 11 N 0.413524 1.873062 0.577897 0
M  V30 12 C -0.466555 2.806003 0.182405 0
M  V30 13 C -0.347074 4.257809 0.144167 0
M  V30 14 C 0.787401 4.926731 0.542247 0
M  V30 15 F 1.865707 4.269662 0.995359 0
M  V30 16 C 0.796993 6.317471 0.465665 0
M  V30 17 C -0.268429 7.065664 0.012164 0
M  V30 18 C -1.419750 6.393015 -0.392232 0
M  V30 19 C -1.401034 5.017686 -0.305539 0
M  V30 20 F -2.552903 4.406366 -0.713936 0
M  V30 21 N -1.533075 2.098159 -0.191426 0
M  V30 22 C -1.350441 0.783593 -0.045080 0
M  V30 23 C -2.335979 -0.236561 -0.370625 0
M  V30 24 C -3.467653 -0.167066 0.437877 0
M  V30 25 C -4.542662 -1.024987 0.321037 0
M  V30 26 C -4.458287 -1.994196 -0.662497 0
M  V30 27 C -3.349467 -2.103464 -1.494046 0
M  V30 28 C -2.302677 -1.219672 -1.334202 0
M  V30 29 C 1.023714 -1.648972 -0.001173 0
M  V30 30 C 1.661870 -2.725048 0.567399 0
M  V30 31 N 2.105294 -3.786130 -0.124684 0
M  V30 32 H 1.719228 -6.660071 2.187107 0
M  V30 33 H 2.696730 -7.856512 3.078893 0
M  V30 34 H 2.780050 -6.139516 3.568055 0
M  V30 35 H 4.575558 -5.916897 2.226268 0
M  V30 36 H 4.309136 -7.513651 1.421170 0
M  V30 37 H 3.320844 -6.228722 -0.415547 0
M  V30 38 H 1.709337 -1.891287 3.764794 0
M  V30 39 H 0.566267 0.084528 2.923643 0
M  V30 40 H 1.372477 2.054022 0.940060 0
M  V30 41 H 1.721928 6.806164 0.793624 0
M  V30 42 H -0.193661 8.144959 -0.021044 0
M  V30 43 H -2.279850 6.938050 -0.754618 0
M  V30 44 H -3.607042 0.571018 1.236843 0
M  V30 45 H -5.420912 -0.973222 0.947738 0
M  V30 46 H -5.226219 -2.722417 -0.856797 0
M  V30 47 H -3.238005 -2.842726 -2.274730 0
M  V30 48 H -1.395992 -1.208786 -1.922504 0
M  V30 49 H 0.793830 -1.495633 -1.024311 0
M  V30 50 H 2.076309 -4.018929 -1.125547 0
M  V30 END ATOM
M  V30 BEGIN BOND
M  V30 1 1 1 2
M  V30 2 1 2 3
M  V30 3 1 3 4
M  V30 4 2 4 5
M  V30 5 1 5 6
M  V30 6 2 6 7
M  V30 7 1 7 8
M  V30 8 2 8 9
M  V30 9 1 9 10
M  V30 10 1 10 11
M  V30 11 1 11 12
M  V30 12 1 12 13
M  V30 13 2 13 14
M  V30 14 1 14 15
M  V30 15 1 14 16
M  V30 16 2 16 17
M  V30 17 1 17 18
M  V30 18 2 18 19
M  V30 19 1 19 20
M  V30 20 2 12 21
M  V30 21 1 21 22
M  V30 22 1 22 23
M  V30 23 2 23 24
M  V30 24 1 24 25
M  V30 25 2 25 26
M  V30 26 1 26 27
M  V30 27 2 27 28
M  V30 28 1 9 29
M  V30 29 2 29 30
M  V30 30 1 30 31
M  V30 31 1 31 4
M  V30 32 1 30 6
M  V30 33 2 22 10
M  V30 34 1 28 23
M  V30 35 1 19 13
M  V30 36 1 1 32
M  V30 37 1 1 33
M  V30 38 1 1 34
M  V30 39 1 2 35
M  V30 40 1 2 36
M  V30 41 1 3 37
M  V30 42 1 7 38
M  V30 43 1 8 39
M  V30 44 1 11 40
M  V30 45 1 16 41
M  V30 46 1 17 42
M  V30 47 1 18 43
M  V30 48 1 24 44
M  V30 49 1 25 45
M  V30 50 1 26 46
M  V30 51 1 27 47
M  V30 52 1 28 48
M  V30 53 1 29 49
M  V30 54 1 31 50
M  V30 END BOND
M  V30 END CTAB
M  END
>  <Dataset>  (527) 
ChEMBL_Kinases

>  <Ligand_Instance>  (527) 
nan

>  <PDB_ID>  (527) 
nan

>  <Standardized_SMILES>  (527) 
CCNc1nc2ccc(-c3[nH]c(-c4c(F)cccc4F)nc3-c3ccccc3)cc2[nH]1

>  <Name>  (527) 
nan

>  <Pocket>  (527) 
nan

>  <ATP_Site>  (527) 
nan

>  <Peripheral>  (527) 
nan

>  <Num_H_Atoms_ProtBoundConf>  (527) 
nan

>  <Num_Resolved_Atoms>  (527) 
nan

>  <Num_Not_Resolved_Atoms>  (527) 
nan

$$$$
CHEMBL4864447
     RDKit          3D

  0  0  0  0  0  0  0  0  0  0999 V3000
M  V30 BEGIN CTAB
M  V30 COUNTS 31 33 0 0 0
M  V30 BEGIN ATOM
M  V30 1 C -2.243088 -1.741779 -1.743867 0
M  V30 2 N -1.639326 -2.266913 -0.519071 0
M  V30 3 C -2.672199 -2.756671 0.372956 0
M  V30 4 C -0.289267 -2.366828 -0.099292 0
M  V30 5 C 0.569207 -3.447782 -0.198751 0
M  V30 6 C 1.869818 -3.469182 0.231722 0
M  V30 7 C 2.413516 -2.328997 0.824751 0
M  V30 8 C 1.556615 -1.247640 0.924654 0
M  V30 9 C 2.027821 -0.003285 1.525714 0
M  V30 10 C 3.246382 0.321012 2.073204 0
M  V30 11 N 3.228717 1.604366 2.512156 0
M  V30 12 N 2.012944 2.129923 2.258990 0
M  V30 13 N 1.628892 3.358301 2.545292 0
M  V30 14 C 0.360912 3.755496 2.227159 0
M  V30 15 C -0.437124 2.805719 1.613014 0
M  V30 16 C -0.011185 1.529673 1.324917 0
M  V30 17 C 1.295804 1.158021 1.665919 0
M  V30 18 N 0.307885 -1.323233 0.477079 0
M  V30 19 H -2.518710 -2.599935 -2.372204 0
M  V30 20 H -3.132742 -1.105316 -1.509244 0
M  V30 21 H -1.524225 -1.135644 -2.334311 0
M  V30 22 H -2.204602 -3.238995 1.234314 0
M  V30 23 H -3.307360 -3.479407 -0.219117 0
M  V30 24 H -3.332638 -1.940642 0.731691 0
M  V30 25 H 0.117572 -4.340326 -0.670739 0
M  V30 26 H 2.419042 -4.377630 0.091279 0
M  V30 27 H 3.431174 -2.324269 1.168872 0
M  V30 28 H 4.096459 -0.357354 2.139514 0
M  V30 29 H 0.022037 4.756904 2.452056 0
M  V30 30 H -1.462082 3.100933 1.348546 0
M  V30 31 H -0.675610 0.807164 0.838261 0
M  V30 END ATOM
M  V30 BEGIN BOND
M  V30 1 1 1 2
M  V30 2 1 2 3
M  V30 3 1 2 4
M  V30 4 2 4 5
M  V30 5 1 5 6
M  V30 6 2 6 7
M  V30 7 1 7 8
M  V30 8 1 8 9
M  V30 9 1 9 10
M  V30 10 2 10 11
M  V30 11 1 11 12
M  V30 12 1 12 13
M  V30 13 2 13 14
M  V30 14 1 14 15
M  V30 15 2 15 16
M  V30 16 1 16 17
M  V30 17 2 8 18
M  V30 18 1 18 4
M  V30 19 2 17 9
M  V30 20 1 17 12
M  V30 21 1 1 19
M  V30 22 1 1 20
M  V30 23 1 1 21
M  V30 24 1 3 22
M  V30 25 1 3 23
M  V30 26 1 3 24
M  V30 27 1 5 25
M  V30 28 1 6 26
M  V30 29 1 7 27
M  V30 30 1 10 28
M  V30 31 1 14 29
M  V30 32 1 15 30
M  V30 33 1 16 31
M  V30 END BOND
M  V30 END CTAB
M  END
>  <Dataset>  (528) 
ChEMBL_Kinases

>  <Ligand_Instance>  (528) 
nan

>  <PDB_ID>  (528) 
nan

>  <Standardized_SMILES>  (528) 
CN(C)c1cccc(-c2cnn3ncccc23)n1

>  <Name>  (528) 
nan

>  <Pocket>  (528) 
nan

>  <ATP_Site>  (528) 
nan

>  <Peripheral>  (528) 
nan

>  <Num_H_Atoms_ProtBoundConf>  (528) 
nan

>  <Num_Resolved_Atoms>  (528) 
nan

>  <Num_Not_Resolved_Atoms>  (528) 
nan

$$$$
CHEMBL4864450
     RDKit          3D

  0  0  0  0  0  0  0  0  0  0999 V3000
M  V30 BEGIN CTAB
M  V30 COUNTS 51 53 0 0 0
M  V30 BEGIN ATOM
M  V30 1 C -2.146464 -2.089298 3.380027 0
M  V30 2 O -1.204696 -3.087425 3.596503 0
M  V30 3 C -0.276678 -3.072555 2.541749 0 CFG=1
M  V30 4 C 1.094175 -2.907954 3.122214 0
M  V30 5 C 2.146457 -3.652641 2.339091 0
M  V30 6 C 1.815333 -3.463706 0.846845 0 CFG=2
M  V30 7 N 1.645192 -2.106401 0.482182 0
M  V30 8 C 1.511992 -1.246726 -0.641512 0
M  V30 9 C 1.293061 0.134059 -0.533515 0
M  V30 10 C 1.191848 0.884379 -1.676523 0
M  V30 11 N 0.956182 2.261747 -1.461506 0
M  V30 12 C 0.088011 3.397489 -1.221966 0
M  V30 13 C -0.658302 3.344065 0.035393 0
M  V30 14 C -0.088154 4.004377 1.134795 0
M  V30 15 N -0.556466 4.073743 2.408823 0
M  V30 16 C -1.712118 3.435495 2.671998 0
M  V30 17 C -2.335532 2.763445 1.644824 0
M  V30 18 C -1.832917 2.712915 0.359586 0
M  V30 19 C -2.545053 2.015888 -0.735196 0
M  V30 20 F -1.881677 1.012074 -1.341552 0
M  V30 21 F -3.025091 2.930636 -1.673925 0
M  V30 22 F -3.707063 1.452910 -0.188326 0
M  V30 23 N 1.290814 0.370395 -2.879648 0
M  V30 24 C 1.500182 -0.935640 -3.082641 0
M  V30 25 C 1.603795 -1.700538 -1.944074 0
M  V30 26 C 1.854576 -3.097201 -2.231232 0
M  V30 27 N 2.067593 -4.228090 -2.445941 0
M  V30 28 C 0.622778 -4.365451 0.630030 0
M  V30 29 C -0.395374 -4.328539 1.730518 0
M  V30 30 H -2.923743 -2.031346 4.170701 0
M  V30 31 H -1.616212 -1.099597 3.326445 0
M  V30 32 H -2.610323 -2.229087 2.364116 0
M  V30 33 H -0.613119 -2.248993 1.884429 0
M  V30 34 H 1.057186 -3.420854 4.133995 0
M  V30 35 H 1.368010 -1.866686 3.336103 0
M  V30 36 H 3.149688 -3.217416 2.556628 0
M  V30 37 H 2.106857 -4.742621 2.502036 0
M  V30 38 H 2.656390 -3.905261 0.234184 0
M  V30 39 H 1.605848 -1.530770 1.368029 0
M  V30 40 H 1.210535 0.570903 0.454804 0
M  V30 41 H 1.996127 2.511831 -1.519729 0
M  V30 42 H -0.603900 3.547519 -2.099946 0
M  V30 43 H 0.715172 4.309253 -1.228531 0
M  V30 44 H 0.857732 4.550947 1.004233 0
M  V30 45 H -2.165088 3.429994 3.650009 0
M  V30 46 H -3.269088 2.248999 1.866464 0
M  V30 47 H 1.574387 -1.310214 -4.091749 0
M  V30 48 H 1.058666 -5.411585 0.684097 0
M  V30 49 H 0.180638 -4.317898 -0.369479 0
M  V30 50 H -0.391687 -5.204854 2.390954 0
M  V30 51 H -1.412775 -4.270421 1.239847 0
M  V30 END ATOM
M  V30 BEGIN BOND
M  V30 1 1 1 2
M  V30 2 1 2 3
M  V30 3 1 3 4
M  V30 4 1 4 5
M  V30 5 1 5 6
M  V30 6 1 6 7
M  V30 7 1 7 8
M  V30 8 2 8 9
M  V30 9 1 9 10
M  V30 10 1 10 11
M  V30 11 1 11 12
M  V30 12 1 12 13
M  V30 13 2 13 14
M  V30 14 1 14 15
M  V30 15 2 15 16
M  V30 16 1 16 17
M  V30 17 2 17 18
M  V30 18 1 18 19
M  V30 19 1 19 20
M  V30 20 1 19 21
M  V30 21 1 19 22
M  V30 22 2 10 23
M  V30 23 1 23 24
M  V30 24 2 24 25
M  V30 25 1 25 26
M  V30 26 3 26 27
M  V30 27 1 6 28
M  V30 28 1 28 29
M  V30 29 1 29 3
M  V30 30 1 25 8
M  V30 31 1 18 13
M  V30 32 1 1 30
M  V30 33 1 1 31
M  V30 34 1 1 32
M  V30 35 1 3 33 CFG=3
M  V30 36 1 4 34
M  V30 37 1 4 35
M  V30 38 1 5 36
M  V30 39 1 5 37
M  V30 40 1 6 38 CFG=3
M  V30 41 1 7 39
M  V30 42 1 9 40
M  V30 43 1 11 41
M  V30 44 1 12 42
M  V30 45 1 12 43
M  V30 46 1 14 44
M  V30 47 1 16 45
M  V30 48 1 17 46
M  V30 49 1 24 47
M  V30 50 1 28 48
M  V30 51 1 28 49
M  V30 52 1 29 50
M  V30 53 1 29 51
M  V30 END BOND
M  V30 END CTAB
M  END
>  <Dataset>  (529) 
ChEMBL_Kinases

>  <Ligand_Instance>  (529) 
nan

>  <PDB_ID>  (529) 
nan

>  <Standardized_SMILES>  (529) 
CO[C@H]1CC[C@H](Nc2cc(NCc3cnccc3C(F)(F)F)ncc2C#N)CC1

>  <Name>  (529) 
nan

>  <Pocket>  (529) 
nan

>  <ATP_Site>  (529) 
nan

>  <Peripheral>  (529) 
nan

>  <Num_H_Atoms_ProtBoundConf>  (529) 
nan

>  <Num_Resolved_Atoms>  (529) 
nan

>  <Num_Not_Resolved_Atoms>  (529) 
nan

$$$$
CHEMBL4864463
     RDKit          3D

  0  0  0  0  0  0  0  0  0  0999 V3000
M  V30 BEGIN CTAB
M  V30 COUNTS 48 50 0 0 0
M  V30 BEGIN ATOM
M  V30 1 C 6.976965 -2.265774 -3.227110 0
M  V30 2 C 7.573667 -2.827565 -1.961766 0
M  V30 3 N 6.578710 -3.676983 -1.337952 0
M  V30 4 C 5.327309 -3.174447 -0.895816 0
M  V30 5 C 4.966442 -1.850745 -1.000878 0
M  V30 6 C 3.725725 -1.458157 -0.544508 0
M  V30 7 O 3.372099 -0.114811 -0.656652 0
M  V30 8 C 2.166894 0.387107 -0.236790 0
M  V30 9 C 1.925083 0.880787 1.044358 0
M  V30 10 C 0.705949 1.383785 1.454804 0
M  V30 11 C -0.347236 1.406945 0.556559 0
M  V30 12 N -1.599918 1.927292 0.988827 0
M  V30 13 C -2.560145 1.079894 1.569534 0
M  V30 14 O -2.205105 -0.120058 1.657744 0
M  V30 15 N -3.821245 1.456763 2.033989 0
M  V30 16 C -4.843395 0.678957 2.627484 0
M  V30 17 C -4.809116 -0.669865 2.884080 0
M  V30 18 C -5.827235 -1.392708 3.464586 0
M  V30 19 C -6.982793 -0.745839 3.828395 0
M  V30 20 C -7.050877 0.607202 3.585391 0
M  V30 21 C -8.266784 1.377845 3.950100 0
M  V30 22 F -8.073650 1.890384 5.230023 0
M  V30 23 F -9.363719 0.549126 3.954045 0
M  V30 24 F -8.402745 2.412535 3.060730 0
M  V30 25 C -6.011641 1.297480 3.002404 0
M  V30 26 C -0.176548 0.929900 -0.739332 0
M  V30 27 C 1.067106 0.441462 -1.082943 0
M  V30 28 N 2.883508 -2.357694 -0.005384 0
M  V30 29 C 3.226352 -3.671439 0.105570 0
M  V30 30 N 4.427193 -4.006789 -0.344955 0
M  V30 31 H 5.937747 -2.574139 -3.311190 0
M  V30 32 H 7.126402 -1.168632 -3.312371 0
M  V30 33 H 7.551483 -2.718825 -4.086621 0
M  V30 34 H 7.891980 -2.003766 -1.282888 0
M  V30 35 H 8.497987 -3.381632 -2.195075 0
M  V30 36 H 6.806029 -4.680462 -1.219329 0
M  V30 37 H 5.642972 -1.127308 -1.431922 0
M  V30 38 H 2.757345 0.856844 1.737094 0
M  V30 39 H 0.588363 1.747433 2.454033 0
M  V30 40 H -1.839628 2.954805 0.885806 0
M  V30 41 H -3.976271 2.480247 1.895341 0
M  V30 42 H -3.932208 -1.232665 2.622500 0
M  V30 43 H -5.731401 -2.456420 3.637574 0
M  V30 44 H -7.830645 -1.223133 4.286758 0
M  V30 45 H -6.119606 2.379169 2.831027 0
M  V30 46 H -1.001529 0.955750 -1.419444 0
M  V30 47 H 1.233349 0.058083 -2.097652 0
M  V30 48 H 2.560809 -4.407153 0.536547 0
M  V30 END ATOM
M  V30 BEGIN BOND
M  V30 1 1 1 2
M  V30 2 1 2 3
M  V30 3 1 3 4
M  V30 4 2 4 5
M  V30 5 1 5 6
M  V30 6 1 6 7
M  V30 7 1 7 8
M  V30 8 2 8 9
M  V30 9 1 9 10
M  V30 10 2 10 11
M  V30 11 1 11 12
M  V30 12 1 12 13
M  V30 13 2 13 14
M  V30 14 1 13 15
M  V30 15 1 15 16
M  V30 16 2 16 17
M  V30 17 1 17 18
M  V30 18 2 18 19
M  V30 19 1 19 20
M  V30 20 1 20 21
M  V30 21 1 21 22
M  V30 22 1 21 23
M  V30 23 1 21 24
M  V30 24 2 20 25
M  V30 25 1 11 26
M  V30 26 2 26 27
M  V30 27 2 6 28
M  V30 28 1 28 29
M  V30 29 2 29 30
M  V30 30 1 30 4
M  V30 31 1 27 8
M  V30 32 1 25 16
M  V30 33 1 1 31
M  V30 34 1 1 32
M  V30 35 1 1 33
M  V30 36 1 2 34
M  V30 37 1 2 35
M  V30 38 1 3 36
M  V30 39 1 5 37
M  V30 40 1 9 38
M  V30 41 1 10 39
M  V30 42 1 12 40
M  V30 43 1 15 41
M  V30 44 1 17 42
M  V30 45 1 18 43
M  V30 46 1 19 44
M  V30 47 1 25 45
M  V30 48 1 26 46
M  V30 49 1 27 47
M  V30 50 1 29 48
M  V30 END BOND
M  V30 END CTAB
M  END
>  <Dataset>  (530) 
ChEMBL_Kinases

>  <Ligand_Instance>  (530) 
nan

>  <PDB_ID>  (530) 
nan

>  <Standardized_SMILES>  (530) 
CCNc1cc(Oc2ccc(NC(=O)Nc3cccc(C(F)(F)F)c3)cc2)ncn1

>  <Name>  (530) 
nan

>  <Pocket>  (530) 
nan

>  <ATP_Site>  (530) 
nan

>  <Peripheral>  (530) 
nan

>  <Num_H_Atoms_ProtBoundConf>  (530) 
nan

>  <Num_Resolved_Atoms>  (530) 
nan

>  <Num_Not_Resolved_Atoms>  (530) 
nan

$$$$
CHEMBL403615
     RDKit          3D

  0  0  0  0  0  0  0  0  0  0999 V3000
M  V30 BEGIN CTAB
M  V30 COUNTS 53 57 0 0 0
M  V30 BEGIN ATOM
M  V30 1 O -0.667686 -2.838922 0.844939 0
M  V30 2 C -1.111968 -3.679050 1.735356 0
M  V30 3 N -0.162006 -3.577352 2.767088 0
M  V30 4 C 0.771511 -2.597557 2.269294 0
M  V30 5 C 1.931143 -2.868180 1.605758 0
M  V30 6 C 2.644192 -1.781542 1.177116 0
M  V30 7 C 2.193983 -0.511954 1.416255 0
M  V30 8 C 2.919992 0.681389 0.939011 0
M  V30 9 C 4.085892 0.639952 0.211336 0
M  V30 10 C 4.655345 1.837784 -0.195379 0
M  V30 11 N 4.091154 3.034367 0.107777 0
M  V30 12 C 2.934029 3.077556 0.830144 0
M  V30 13 N 2.290375 4.330959 1.173982 0
M  V30 14 C 0.949331 4.142526 0.738403 0
M  V30 15 C 0.002588 3.562777 1.571578 0
M  V30 16 C -1.329206 3.322888 1.231169 0
M  V30 17 C -1.768122 3.679252 -0.027545 0
M  V30 18 N -2.949951 3.547944 -0.582469 0
M  V30 19 C -3.312007 3.836821 -1.644445 0
M  V30 20 S -1.685954 4.569690 -2.374264 0
M  V30 21 C -0.833007 4.252054 -0.854520 0
M  V30 22 C 0.508227 4.496892 -0.520721 0
M  V30 23 N 2.467738 1.894024 1.171929 0
M  V30 24 C 1.002110 -0.236637 2.099361 0
M  V30 25 C 0.276464 -1.330495 2.535189 0
M  V30 26 C -2.354349 -4.317175 1.261471 0
M  V30 27 C -2.319530 -5.770714 1.014375 0
M  V30 28 C -1.889286 -6.183769 -0.349784 0
M  V30 29 N -1.688536 -5.160410 -1.291117 0
M  V30 30 C -2.303071 -3.910917 -1.191640 0
M  V30 31 C -2.959553 -3.585808 0.079959 0
M  V30 32 H -0.497987 -4.256458 3.493565 0
M  V30 33 H 2.193875 -3.888974 1.467527 0
M  V30 34 H 3.561172 -1.947620 0.659529 0
M  V30 35 H 4.534199 -0.310988 -0.029500 0
M  V30 36 H 5.578746 1.856190 -0.774373 0
M  V30 37 H 2.719938 5.153198 1.632592 0
M  V30 38 H 0.350825 3.273028 2.573070 0
M  V30 39 H -1.955420 2.856584 1.998939 0
M  V30 40 H -4.455297 3.635774 -1.982708 0
M  V30 41 H 1.124825 4.936945 -1.256276 0
M  V30 42 H 0.657519 0.794365 2.282937 0
M  V30 43 H -0.631841 -1.074457 3.056058 0
M  V30 44 H -3.111362 -4.134644 2.089996 0
M  V30 45 H -3.380154 -6.154685 1.147841 0
M  V30 46 H -1.737324 -6.271662 1.813336 0
M  V30 47 H -0.937332 -6.749346 -0.236188 0
M  V30 48 H -2.600199 -6.913032 -0.797960 0
M  V30 49 H -0.767511 -5.197239 -1.744724 0
M  V30 50 H -3.080684 -3.824816 -2.005649 0
M  V30 51 H -1.551168 -3.117667 -1.458713 0
M  V30 52 H -4.038570 -3.742730 0.084380 0
M  V30 53 H -2.780027 -2.492145 0.304316 0
M  V30 END ATOM
M  V30 BEGIN BOND
M  V30 1 2 1 2
M  V30 2 1 2 3
M  V30 3 1 3 4
M  V30 4 2 4 5
M  V30 5 1 5 6
M  V30 6 2 6 7
M  V30 7 1 7 8
M  V30 8 2 8 9
M  V30 9 1 9 10
M  V30 10 2 10 11
M  V30 11 1 11 12
M  V30 12 1 12 13
M  V30 13 1 13 14
M  V30 14 2 14 15
M  V30 15 1 15 16
M  V30 16 2 16 17
M  V30 17 1 17 18
M  V30 18 2 18 19
M  V30 19 1 19 20
M  V30 20 1 20 21
M  V30 21 2 21 22
M  V30 22 2 12 23
M  V30 23 1 7 24
M  V30 24 2 24 25
M  V30 25 1 2 26
M  V30 26 1 26 27
M  V30 27 1 27 28
M  V30 28 1 28 29
M  V30 29 1 29 30
M  V30 30 1 30 31
M  V30 31 1 25 4
M  V30 32 1 31 26
M  V30 33 1 23 8
M  V30 34 1 22 14
M  V30 35 1 21 17
M  V30 36 1 3 32
M  V30 37 1 5 33
M  V30 38 1 6 34
M  V30 39 1 9 35
M  V30 40 1 10 36
M  V30 41 1 13 37
M  V30 42 1 15 38
M  V30 43 1 16 39
M  V30 44 1 19 40
M  V30 45 1 22 41
M  V30 46 1 24 42
M  V30 47 1 25 43
M  V30 48 1 26 44
M  V30 49 1 27 45
M  V30 50 1 27 46
M  V30 51 1 28 47
M  V30 52 1 28 48
M  V30 53 1 29 49
M  V30 54 1 30 50
M  V30 55 1 30 51
M  V30 56 1 31 52
M  V30 57 1 31 53
M  V30 END BOND
M  V30 END CTAB
M  END
>  <Dataset>  (531) 
ChEMBL_Kinases

>  <Ligand_Instance>  (531) 
nan

>  <PDB_ID>  (531) 
nan

>  <Standardized_SMILES>  (531) 
O=C(Nc1ccc(-c2ccnc(Nc3ccc4ncsc4c3)n2)cc1)C1CCNCC1

>  <Name>  (531) 
nan

>  <Pocket>  (531) 
nan

>  <ATP_Site>  (531) 
nan

>  <Peripheral>  (531) 
nan

>  <Num_H_Atoms_ProtBoundConf>  (531) 
nan

>  <Num_Resolved_Atoms>  (531) 
nan

>  <Num_Not_Resolved_Atoms>  (531) 
nan

$$$$
CHEMBL403560
     RDKit          3D

  0  0  0  0  0  0  0  0  0  0999 V3000
M  V30 BEGIN CTAB
M  V30 COUNTS 86 93 0 0 0
M  V30 BEGIN ATOM
M  V30 1 O 3.252173 -1.270381 -5.668737 0
M  V30 2 C 2.937215 -2.615335 -5.524128 0
M  V30 3 C 3.357624 -3.509723 -6.484934 0
M  V30 4 C 3.047955 -4.849483 -6.347623 0
M  V30 5 C 2.323980 -5.323937 -5.268023 0
M  V30 6 C 1.935341 -4.349104 -4.338035 0
M  V30 7 C 2.209014 -2.999240 -4.411982 0
M  V30 8 N 1.671672 -2.415354 -3.343590 0
M  V30 9 C 1.040661 -3.276418 -2.531984 0
M  V30 10 C 0.388413 -3.060171 -1.366106 0
M  V30 11 C 0.187210 -1.766024 -0.715739 0
M  V30 12 C -0.451915 -1.868286 0.461317 0
M  V30 13 C -1.434329 -0.883368 1.048636 0 CFG=1
M  V30 14 O -2.638818 -1.257550 0.314286 0
M  V30 15 C -1.820949 -1.235877 2.388855 0
M  V30 16 C -1.248434 -0.923897 3.662947 0
M  V30 17 C 0.081089 -1.386765 4.035022 0
M  V30 18 C 1.157577 -0.755887 4.495802 0
M  V30 19 C 1.287019 0.674237 4.756157 0
M  V30 20 C 2.472750 1.390976 4.342457 0
M  V30 21 C 3.142021 1.450918 3.066939 0
M  V30 22 C 2.487378 1.934095 1.834158 0
M  V30 23 N 1.550740 0.990249 1.285048 0
M  V30 24 C 2.235117 -0.177080 0.765919 0
M  V30 25 C 2.020857 -0.263527 -0.721492 0
M  V30 26 C 0.515110 -0.412204 -1.040090 0
M  V30 27 C -0.197794 0.729235 -0.411716 0 CFG=1
M  V30 28 C -0.870738 1.597606 -1.459755 0
M  V30 29 C -2.336246 1.626131 -1.128884 0 CFG=2
M  V30 30 C -2.862697 2.944161 -1.495531 0
M  V30 31 C -3.957980 3.688965 -1.529856 0
M  V30 32 C -5.403790 3.503037 -1.148829 0
M  V30 33 C -5.439471 2.400596 -0.113529 0
M  V30 34 C -4.316643 2.571735 0.894498 0
M  V30 35 C -3.477814 1.328760 1.013102 0
M  V30 36 N -2.412501 1.173581 0.159076 0
M  V30 37 C -1.227700 0.504126 0.627451 0 CFG=1
M  V30 38 C 0.858427 1.670238 0.213059 0
M  V30 39 N -0.104596 -4.200507 -0.849351 0
M  V30 40 C -0.002805 -5.419317 -1.364317 0
M  V30 41 C 0.667349 -5.575480 -2.545896 0
M  V30 42 C 1.216428 -4.482028 -3.169678 0
M  V30 43 H 3.185876 -0.569259 -4.965505 0
M  V30 44 H 3.926114 -3.168071 -7.339864 0
M  V30 45 H 3.359716 -5.580596 -7.079840 0
M  V30 46 H 2.041215 -6.347497 -5.085077 0
M  V30 47 H 1.808942 -1.410784 -3.273352 0
M  V30 48 H -0.260530 -2.766351 1.090026 0
M  V30 49 H -2.707077 -2.230772 0.356550 0
M  V30 50 H -1.886894 -2.400353 2.364914 0
M  V30 51 H -2.983259 -1.088463 2.546682 0
M  V30 52 H -1.413475 0.153435 4.008174 0
M  V30 53 H -1.909169 -1.432778 4.469812 0
M  V30 54 H 0.167293 -2.472737 3.890520 0
M  V30 55 H 2.034487 -1.325241 4.706980 0
M  V30 56 H 0.316411 1.221198 4.498992 0
M  V30 57 H 1.245498 0.753365 5.906947 0
M  V30 58 H 2.357338 2.490998 4.747906 0
M  V30 59 H 3.340881 1.096493 5.106034 0
M  V30 60 H 4.160138 2.020907 3.190907 0
M  V30 61 H 3.603661 0.420223 2.782357 0
M  V30 62 H 3.229715 2.283468 1.085841 0
M  V30 63 H 1.860710 2.830570 2.128098 0
M  V30 64 H 3.323349 -0.006335 0.882956 0
M  V30 65 H 1.977183 -1.122929 1.218740 0
M  V30 66 H 2.468874 0.578976 -1.214804 0
M  V30 67 H 2.574205 -1.196913 -0.992919 0
M  V30 68 H 0.414739 -0.254964 -2.124341 0
M  V30 69 H -0.466610 2.601152 -1.571446 0
M  V30 70 H -0.723188 1.106155 -2.466133 0
M  V30 71 H -2.863386 0.891570 -1.809525 0
M  V30 72 H -2.105650 3.635678 -1.912862 0
M  V30 73 H -3.907882 4.699960 -1.909557 0
M  V30 74 H -5.931323 3.194476 -2.062773 0
M  V30 75 H -5.813903 4.433557 -0.708700 0
M  V30 76 H -5.398242 1.385647 -0.608162 0
M  V30 77 H -6.451520 2.452939 0.340094 0
M  V30 78 H -4.826007 2.725576 1.870927 0
M  V30 79 H -3.736468 3.503931 0.748429 0
M  V30 80 H -3.104047 1.310945 2.073373 0
M  V30 81 H -4.213735 0.491639 0.851384 0
M  V30 82 H -0.980947 1.080340 1.561624 0
M  V30 83 H 0.238532 2.473775 0.705462 0
M  V30 84 H 1.469063 2.154467 -0.533905 0
M  V30 85 H -0.441301 -6.254885 -0.855547 0
M  V30 86 H 0.749008 -6.550846 -2.960320 0
M  V30 END ATOM
M  V30 BEGIN BOND
M  V30 1 1 1 2
M  V30 2 2 2 3
M  V30 3 1 3 4
M  V30 4 2 4 5
M  V30 5 1 5 6
M  V30 6 2 6 7
M  V30 7 1 7 8
M  V30 8 1 8 9
M  V30 9 2 9 10
M  V30 10 1 10 11
M  V30 11 2 11 12
M  V30 12 1 12 13
M  V30 13 1 13 14 CFG=3
M  V30 14 1 13 15
M  V30 15 1 15 16
M  V30 16 1 16 17
M  V30 17 2 17 18
M  V30 18 1 18 19
M  V30 19 1 19 20
M  V30 20 1 20 21
M  V30 21 1 21 22
M  V30 22 1 22 23
M  V30 23 1 23 24
M  V30 24 1 24 25
M  V30 25 1 25 26
M  V30 26 1 26 27
M  V30 27 1 27 28 CFG=3
M  V30 28 1 28 29
M  V30 29 1 29 30
M  V30 30 2 30 31
M  V30 31 1 31 32
M  V30 32 1 32 33
M  V30 33 1 33 34
M  V30 34 1 34 35
M  V30 35 1 35 36
M  V30 36 1 36 37
M  V30 37 1 27 38
M  V30 38 1 10 39
M  V30 39 2 39 40
M  V30 40 1 40 41
M  V30 41 2 41 42
M  V30 42 1 7 2
M  V30 43 1 42 9
M  V30 44 1 42 6
M  V30 45 1 26 11
M  V30 46 1 37 27
M  V30 47 1 37 13
M  V30 48 1 38 23
M  V30 49 1 36 29
M  V30 50 1 1 43
M  V30 51 1 3 44
M  V30 52 1 4 45
M  V30 53 1 5 46
M  V30 54 1 8 47
M  V30 55 1 12 48
M  V30 56 1 14 49
M  V30 57 1 15 50
M  V30 58 1 15 51
M  V30 59 1 16 52
M  V30 60 1 16 53
M  V30 61 1 17 54
M  V30 62 1 18 55
M  V30 63 1 19 56
M  V30 64 1 19 57
M  V30 65 1 20 58
M  V30 66 1 20 59
M  V30 67 1 21 60
M  V30 68 1 21 61
M  V30 69 1 22 62
M  V30 70 1 22 63
M  V30 71 1 24 64
M  V30 72 1 24 65
M  V30 73 1 25 66
M  V30 74 1 25 67
M  V30 75 1 26 68
M  V30 76 1 28 69
M  V30 77 1 28 70
M  V30 78 1 29 71 CFG=3
M  V30 79 1 30 72
M  V30 80 1 31 73
M  V30 81 1 32 74
M  V30 82 1 32 75
M  V30 83 1 33 76
M  V30 84 1 33 77
M  V30 85 1 34 78
M  V30 86 1 34 79
M  V30 87 1 35 80
M  V30 88 1 35 81
M  V30 89 1 37 82 CFG=1
M  V30 90 1 38 83
M  V30 91 1 38 84
M  V30 92 1 40 85
M  V30 93 1 41 86
M  V30 END BOND
M  V30 END CTAB
M  END
>  <Dataset>  (532) 
ChEMBL_Kinases

>  <Ligand_Instance>  (532) 
nan

>  <PDB_ID>  (532) 
nan

>  <Standardized_SMILES>  (532) 
Oc1cccc2c1[nH]c1c(C3=C[C@@]4(O)CC/C=C\CCCCN5CCC3[C@]3(C[C@@H]6/C=C\CCCCN6[C@H]34)C5)nccc12

>  <Name>  (532) 
nan

>  <Pocket>  (532) 
nan

>  <ATP_Site>  (532) 
nan

>  <Peripheral>  (532) 
nan

>  <Num_H_Atoms_ProtBoundConf>  (532) 
nan

>  <Num_Resolved_Atoms>  (532) 
nan

>  <Num_Not_Resolved_Atoms>  (532) 
nan

$$$$
CHEMBL97218
     RDKit          3D

  0  0  0  0  0  0  0  0  0  0999 V3000
M  V30 BEGIN CTAB
M  V30 COUNTS 36 38 0 0 0
M  V30 BEGIN ATOM
M  V30 1 O -0.345280 -3.499544 2.805680 0
M  V30 2 C 0.388541 -4.657414 2.839928 0
M  V30 3 C 1.179954 -4.955228 1.614858 0
M  V30 4 O 2.138844 -4.067182 1.206978 0
M  V30 5 C 2.078814 -2.795586 0.781846 0
M  V30 6 C 3.429202 -2.456119 0.547081 0
M  V30 7 C 3.811575 -1.185462 0.081883 0
M  V30 8 C 2.841101 -0.228890 -0.156984 0
M  V30 9 C 1.511742 -0.526532 0.061233 0
M  V30 10 C 0.372010 0.360639 -0.139123 0
M  V30 11 C 0.336725 1.681980 0.277611 0
M  V30 12 C -0.794705 2.448027 0.041226 0
M  V30 13 C -0.835168 3.768445 0.455396 0
M  V30 14 C -1.948094 4.590379 0.245207 0
M  V30 15 C -3.040097 4.047858 -0.401948 0
M  V30 16 C -3.035239 2.731162 -0.830223 0
M  V30 17 C -1.916358 1.955563 -0.602328 0
M  V30 18 N -1.849825 0.664396 -0.995757 0
M  V30 19 C -0.764432 -0.106173 -0.780663 0
M  V30 20 O -0.886856 -1.379658 -1.249632 0
M  V30 21 C 1.196354 -1.778312 0.513695 0
M  V30 22 H -1.061846 -3.566091 3.508154 0
M  V30 23 H 0.988133 -4.752310 3.780336 0
M  V30 24 H -0.375939 -5.493025 2.922184 0
M  V30 25 H 0.397532 -5.091904 0.787469 0
M  V30 26 H 1.647328 -5.989586 1.682442 0
M  V30 27 H 4.379439 -3.012525 0.651858 0
M  V30 28 H 4.793608 -0.795805 -0.137292 0
M  V30 29 H 3.020765 0.775908 -0.513650 0
M  V30 30 H 1.206844 2.078357 0.781543 0
M  V30 31 H 0.017908 4.194545 0.961701 0
M  V30 32 H -1.979655 5.618831 0.567767 0
M  V30 33 H -3.953548 4.592343 -0.616989 0
M  V30 34 H -3.888858 2.291492 -1.341207 0
M  V30 35 H -1.052215 -1.493905 -2.243866 0
M  V30 36 H 0.205362 -2.095549 0.688568 0
M  V30 END ATOM
M  V30 BEGIN BOND
M  V30 1 1 1 2
M  V30 2 1 2 3
M  V30 3 1 3 4
M  V30 4 1 4 5
M  V30 5 2 5 6
M  V30 6 1 6 7
M  V30 7 2 7 8
M  V30 8 1 8 9
M  V30 9 1 9 10
M  V30 10 2 10 11
M  V30 11 1 11 12
M  V30 12 2 12 13
M  V30 13 1 13 14
M  V30 14 2 14 15
M  V30 15 1 15 16
M  V30 16 2 16 17
M  V30 17 1 17 18
M  V30 18 2 18 19
M  V30 19 1 19 20
M  V30 20 2 9 21
M  V30 21 1 21 5
M  V30 22 1 19 10
M  V30 23 1 17 12
M  V30 24 1 1 22
M  V30 25 1 2 23
M  V30 26 1 2 24
M  V30 27 1 3 25
M  V30 28 1 3 26
M  V30 29 1 6 27
M  V30 30 1 7 28
M  V30 31 1 8 29
M  V30 32 1 11 30
M  V30 33 1 13 31
M  V30 34 1 14 32
M  V30 35 1 15 33
M  V30 36 1 16 34
M  V30 37 1 20 35
M  V30 38 1 21 36
M  V30 END BOND
M  V30 END CTAB
M  END
>  <Dataset>  (533) 
ChEMBL_Kinases

>  <Ligand_Instance>  (533) 
nan

>  <PDB_ID>  (533) 
nan

>  <Standardized_SMILES>  (533) 
OCCOc1cccc(-c2cc3ccccc3nc2O)c1

>  <Name>  (533) 
nan

>  <Pocket>  (533) 
nan

>  <ATP_Site>  (533) 
nan

>  <Peripheral>  (533) 
nan

>  <Num_H_Atoms_ProtBoundConf>  (533) 
nan

>  <Num_Resolved_Atoms>  (533) 
nan

>  <Num_Not_Resolved_Atoms>  (533) 
nan

$$$$
CHEMBL403294
     RDKit          3D

  0  0  0  0  0  0  0  0  0  0999 V3000
M  V30 BEGIN CTAB
M  V30 COUNTS 58 62 0 0 0
M  V30 BEGIN ATOM
M  V30 1 C 3.567764 -0.266705 3.733100 0
M  V30 2 C 2.691243 0.733752 3.005660 0
M  V30 3 C 2.906836 2.072026 3.632270 0
M  V30 4 C 1.255386 0.259980 3.150572 0
M  V30 5 C 3.048100 0.684329 1.548111 0
M  V30 6 N 2.269799 1.603725 0.749820 0
M  V30 7 C 2.604815 2.880558 0.477276 0
M  V30 8 N 3.750994 3.621921 0.881330 0
M  V30 9 N 1.638005 3.430693 -0.296433 0
M  V30 10 C 0.684839 2.531921 -0.528305 0
M  V30 11 C -0.480593 2.611457 -1.246105 0
M  V30 12 C -1.262350 1.477091 -1.290099 0
M  V30 13 C -0.865236 0.329748 -0.632826 0
M  V30 14 C -1.584477 -0.942840 -0.589128 0
M  V30 15 N -2.812724 -1.194205 -0.095663 0
M  V30 16 C -3.160345 -2.474012 -0.219448 0
M  V30 17 C -4.349395 -3.200436 0.152678 0
M  V30 18 C -4.500870 -4.555182 -0.074352 0
M  V30 19 F -3.487462 -5.242023 -0.675106 0
M  V30 20 C -5.629823 -5.265766 0.274161 0
M  V30 21 C -6.686140 -4.632799 0.882397 0
M  V30 22 C -6.577111 -3.266875 1.130738 0
M  V30 23 C -5.433183 -2.606727 0.764587 0
M  V30 24 F -5.428038 -1.299359 1.046451 0
M  V30 25 N -2.094158 -3.044627 -0.819733 0
M  V30 26 C -1.139895 -2.144584 -1.049520 0
M  V30 27 C 0.134736 -2.452722 -1.685927 0
M  V30 28 C 1.144593 -3.303514 -1.289893 0
M  V30 29 C 2.269007 -3.423250 -2.077694 0
M  V30 30 C 2.411973 -2.718052 -3.247531 0
M  V30 31 C 1.416020 -1.863956 -3.660411 0
M  V30 32 C 0.280526 -1.734219 -2.877973 0
M  V30 33 N 0.297995 0.293918 0.067597 0
M  V30 34 C 1.092752 1.390535 0.133145 0
M  V30 35 H 3.625880 0.071860 4.808294 0
M  V30 36 H 4.594052 -0.175359 3.329349 0
M  V30 37 H 3.153341 -1.301585 3.662443 0
M  V30 38 H 4.007208 2.270741 3.606963 0
M  V30 39 H 2.662999 1.970546 4.710772 0
M  V30 40 H 2.304910 2.877965 3.166438 0
M  V30 41 H 0.981926 0.016330 4.197777 0
M  V30 42 H 0.540049 1.059642 2.836384 0
M  V30 43 H 1.098455 -0.673608 2.574766 0
M  V30 44 H 4.132394 0.952599 1.468760 0
M  V30 45 H 2.971995 -0.372380 1.219623 0
M  V30 46 H 4.775750 3.558736 0.694676 0
M  V30 47 H 3.586483 4.443705 1.523864 0
M  V30 48 H -0.798926 3.502745 -1.762396 0
M  V30 49 H -2.185197 1.413033 -1.811781 0
M  V30 50 H -3.418317 -0.461160 0.334446 0
M  V30 51 H -5.692693 -6.334107 0.069917 0
M  V30 52 H -7.545568 -5.230984 1.135268 0
M  V30 53 H -7.423326 -2.778137 1.614025 0
M  V30 54 H 0.916327 -3.799978 -0.356817 0
M  V30 55 H 3.022672 -4.112883 -1.700927 0
M  V30 56 H 3.332412 -2.865974 -3.818366 0
M  V30 57 H 1.569347 -1.329030 -4.586413 0
M  V30 58 H -0.441147 -1.030373 -3.303545 0
M  V30 END ATOM
M  V30 BEGIN BOND
M  V30 1 1 1 2
M  V30 2 1 2 3
M  V30 3 1 2 4
M  V30 4 1 2 5
M  V30 5 1 5 6
M  V30 6 1 6 7
M  V30 7 1 7 8
M  V30 8 2 7 9
M  V30 9 1 9 10
M  V30 10 2 10 11
M  V30 11 1 11 12
M  V30 12 2 12 13
M  V30 13 1 13 14
M  V30 14 1 14 15
M  V30 15 1 15 16
M  V30 16 1 16 17
M  V30 17 2 17 18
M  V30 18 1 18 19
M  V30 19 1 18 20
M  V30 20 2 20 21
M  V30 21 1 21 22
M  V30 22 2 22 23
M  V30 23 1 23 24
M  V30 24 2 16 25
M  V30 25 1 25 26
M  V30 26 1 26 27
M  V30 27 2 27 28
M  V30 28 1 28 29
M  V30 29 2 29 30
M  V30 30 1 30 31
M  V30 31 2 31 32
M  V30 32 1 13 33
M  V30 33 2 33 34
M  V30 34 1 34 6
M  V30 35 1 34 10
M  V30 36 2 26 14
M  V30 37 1 32 27
M  V30 38 1 23 17
M  V30 39 1 1 35
M  V30 40 1 1 36
M  V30 41 1 1 37
M  V30 42 1 3 38
M  V30 43 1 3 39
M  V30 44 1 3 40
M  V30 45 1 4 41
M  V30 46 1 4 42
M  V30 47 1 4 43
M  V30 48 1 5 44
M  V30 49 1 5 45
M  V30 50 1 8 46
M  V30 51 1 8 47
M  V30 52 1 11 48
M  V30 53 1 12 49
M  V30 54 1 15 50
M  V30 55 1 20 51
M  V30 56 1 21 52
M  V30 57 1 22 53
M  V30 58 1 28 54
M  V30 59 1 29 55
M  V30 60 1 30 56
M  V30 61 1 31 57
M  V30 62 1 32 58
M  V30 END BOND
M  V30 END CTAB
M  END
>  <Dataset>  (534) 
ChEMBL_Kinases

>  <Ligand_Instance>  (534) 
nan

>  <PDB_ID>  (534) 
nan

>  <Standardized_SMILES>  (534) 
CC(C)(C)Cn1c(N)nc2ccc(-c3[nH]c(-c4c(F)cccc4F)nc3-c3ccccc3)nc21

>  <Name>  (534) 
nan

>  <Pocket>  (534) 
nan

>  <ATP_Site>  (534) 
nan

>  <Peripheral>  (534) 
nan

>  <Num_H_Atoms_ProtBoundConf>  (534) 
nan

>  <Num_Resolved_Atoms>  (534) 
nan

>  <Num_Not_Resolved_Atoms>  (534) 
nan

$$$$
CHEMBL403238
     RDKit          3D

  0  0  0  0  0  0  0  0  0  0999 V3000
M  V30 BEGIN CTAB
M  V30 COUNTS 41 44 0 0 0
M  V30 BEGIN ATOM
M  V30 1 C 3.057560 -4.711094 4.324586 0
M  V30 2 C 2.501778 -3.693977 3.368323 0
M  V30 3 O 1.384441 -3.273895 3.812708 0
M  V30 4 N 3.029631 -3.186670 2.130355 0
M  V30 5 C 2.074366 -2.241230 1.656400 0
M  V30 6 C 2.162687 -0.912148 2.014599 0
M  V30 7 C 1.198766 -0.058697 1.513680 0
M  V30 8 C 0.204314 -0.550344 0.692419 0
M  V30 9 C -0.852950 0.264690 0.115331 0
M  V30 10 C -0.840896 1.335933 -0.775962 0
M  V30 11 C 0.414382 1.860970 -1.330734 0
M  V30 12 C 0.656075 3.190725 -1.009257 0
M  V30 13 C 1.804401 3.799190 -1.471688 0
M  V30 14 C 2.697226 3.086687 -2.244424 0
M  V30 15 N 2.421903 1.805206 -2.529319 0
M  V30 16 C 1.311355 1.174221 -2.096924 0
M  V30 17 O -2.062839 1.751559 -1.005907 0
M  V30 18 C -2.930481 1.022031 -0.317689 0
M  V30 19 N -4.264844 1.058059 -0.221446 0
M  V30 20 C -4.985662 0.229859 0.534928 0
M  V30 21 N -4.298462 -0.694396 1.237966 0
M  V30 22 C -2.945778 -0.744234 1.151410 0
M  V30 23 N -2.319022 -1.751481 1.927338 0
M  V30 24 C -2.193303 0.103474 0.375909 0
M  V30 25 C 0.128416 -1.901399 0.338262 0
M  V30 26 C 1.102951 -2.767941 0.843850 0
M  V30 27 H 2.372724 -5.566562 4.434551 0
M  V30 28 H 4.080527 -4.992453 3.988373 0
M  V30 29 H 3.126013 -4.226060 5.340811 0
M  V30 30 H 3.938516 -3.635643 1.925047 0
M  V30 31 H 2.960156 -0.559633 2.663944 0
M  V30 32 H 1.200572 0.997320 1.749433 0
M  V30 33 H 0.014488 3.837185 -0.407226 0
M  V30 34 H 2.026406 4.851065 -1.235528 0
M  V30 35 H 3.600417 3.569595 -2.606611 0
M  V30 36 H 1.041914 0.161739 -2.291420 0
M  V30 37 H -6.053273 0.238144 0.629042 0
M  V30 38 H -1.700212 -1.274000 2.640992 0
M  V30 39 H -1.932407 -2.556871 2.412477 0
M  V30 40 H -0.636085 -2.315964 -0.301212 0
M  V30 41 H 1.057066 -3.819007 0.577696 0
M  V30 END ATOM
M  V30 BEGIN BOND
M  V30 1 1 1 2
M  V30 2 2 2 3
M  V30 3 1 2 4
M  V30 4 1 4 5
M  V30 5 2 5 6
M  V30 6 1 6 7
M  V30 7 2 7 8
M  V30 8 1 8 9
M  V30 9 2 9 10
M  V30 10 1 10 11
M  V30 11 2 11 12
M  V30 12 1 12 13
M  V30 13 2 13 14
M  V30 14 1 14 15
M  V30 15 2 15 16
M  V30 16 1 10 17
M  V30 17 1 17 18
M  V30 18 2 18 19
M  V30 19 1 19 20
M  V30 20 2 20 21
M  V30 21 1 21 22
M  V30 22 1 22 23
M  V30 23 2 22 24
M  V30 24 1 8 25
M  V30 25 2 25 26
M  V30 26 1 26 5
M  V30 27 1 24 9
M  V30 28 1 16 11
M  V30 29 1 24 18
M  V30 30 1 1 27
M  V30 31 1 1 28
M  V30 32 1 1 29
M  V30 33 1 4 30
M  V30 34 1 6 31
M  V30 35 1 7 32
M  V30 36 1 12 33
M  V30 37 1 13 34
M  V30 38 1 14 35
M  V30 39 1 16 36
M  V30 40 1 20 37
M  V30 41 1 23 38
M  V30 42 1 23 39
M  V30 43 1 25 40
M  V30 44 1 26 41
M  V30 END BOND
M  V30 END CTAB
M  END
>  <Dataset>  (535) 
ChEMBL_Kinases

>  <Ligand_Instance>  (535) 
nan

>  <PDB_ID>  (535) 
nan

>  <Standardized_SMILES>  (535) 
CC(=O)Nc1ccc(-c2c(-c3cccnc3)oc3ncnc(N)c23)cc1

>  <Name>  (535) 
nan

>  <Pocket>  (535) 
nan

>  <ATP_Site>  (535) 
nan

>  <Peripheral>  (535) 
nan

>  <Num_H_Atoms_ProtBoundConf>  (535) 
nan

>  <Num_Resolved_Atoms>  (535) 
nan

>  <Num_Not_Resolved_Atoms>  (535) 
nan

$$$$
CHEMBL404024
     RDKit          3D

  0  0  0  0  0  0  0  0  0  0999 V3000
M  V30 BEGIN CTAB
M  V30 COUNTS 48 52 0 0 0
M  V30 BEGIN ATOM
M  V30 1 C 0.628584 -0.056593 -4.642073 0
M  V30 2 C 0.549137 -0.979161 -3.438601 0
M  V30 3 C -0.804794 -1.501541 -3.253808 0
M  V30 4 N -1.890434 -1.904741 -3.094012 0
M  V30 5 C 0.957727 -0.215855 -2.234122 0
M  V30 6 C 2.066560 -0.560018 -1.493886 0
M  V30 7 C 2.367629 0.207186 -0.392040 0
M  V30 8 C 1.635283 1.321166 0.047152 0
M  V30 9 N 2.027799 2.062371 1.188327 0
M  V30 10 C 2.867923 3.089283 0.989134 0
M  V30 11 N 3.122460 3.666113 2.183286 0
M  V30 12 C 2.452694 3.016576 3.140679 0
M  V30 13 C 2.378382 3.210934 4.504835 0
M  V30 14 N 1.587702 2.344368 5.164015 0
M  V30 15 C 0.913452 1.359519 4.565144 0
M  V30 16 C 0.137074 0.540620 5.363359 0
M  V30 17 C -0.545042 -0.465638 4.710596 0
M  V30 18 C -0.484189 -0.678436 3.340239 0
M  V30 19 C -1.246946 -1.770881 2.764865 0
M  V30 20 C -1.877227 -2.673854 2.266423 0
M  V30 21 C -2.625250 -3.743475 1.650735 0
M  V30 22 C -2.761007 -4.976926 2.204215 0
M  V30 23 C -3.514102 -5.904744 1.488975 0
M  V30 24 C -4.093888 -5.591193 0.280463 0
M  V30 25 N -3.936156 -4.346888 -0.241769 0
M  V30 26 C -3.215375 -3.449660 0.436880 0
M  V30 27 C 0.305485 0.166783 2.586415 0
M  V30 28 C 0.982420 1.159796 3.207764 0
M  V30 29 C 1.772428 2.014899 2.498539 0
M  V30 30 C 0.534010 1.608380 -0.745191 0
M  V30 31 C 0.193138 0.868324 -1.858119 0
M  V30 32 H 1.473117 0.645989 -4.469389 0
M  V30 33 H 0.902024 -0.658561 -5.542926 0
M  V30 34 H -0.296839 0.529639 -4.795761 0
M  V30 35 H 1.238521 -1.822578 -3.637412 0
M  V30 36 H 2.681992 -1.398449 -1.760686 0
M  V30 37 H 3.239899 -0.057498 0.196596 0
M  V30 38 H 3.348669 3.516807 0.119185 0
M  V30 39 H 2.941719 4.023212 4.955295 0
M  V30 40 H 0.069426 0.678772 6.422067 0
M  V30 41 H -1.153850 -1.110936 5.321648 0
M  V30 42 H -2.285225 -5.181998 3.162515 0
M  V30 43 H -3.639041 -6.894308 1.905164 0
M  V30 44 H -4.676111 -6.355837 -0.242197 0
M  V30 45 H -3.121349 -2.476597 -0.022474 0
M  V30 46 H 0.291772 -0.071953 1.541665 0
M  V30 47 H -0.053764 2.466140 -0.430711 0
M  V30 48 H -0.702417 1.184229 -2.416272 0
M  V30 END ATOM
M  V30 BEGIN BOND
M  V30 1 1 1 2
M  V30 2 1 2 3
M  V30 3 3 3 4
M  V30 4 1 2 5
M  V30 5 2 5 6
M  V30 6 1 6 7
M  V30 7 2 7 8
M  V30 8 1 8 9
M  V30 9 1 9 10
M  V30 10 2 10 11
M  V30 11 1 11 12
M  V30 12 2 12 13
M  V30 13 1 13 14
M  V30 14 2 14 15
M  V30 15 1 15 16
M  V30 16 2 16 17
M  V30 17 1 17 18
M  V30 18 1 18 19
M  V30 19 3 19 20
M  V30 20 1 20 21
M  V30 21 2 21 22
M  V30 22 1 22 23
M  V30 23 2 23 24
M  V30 24 1 24 25
M  V30 25 2 25 26
M  V30 26 2 18 27
M  V30 27 1 27 28
M  V30 28 2 28 29
M  V30 29 1 8 30
M  V30 30 2 30 31
M  V30 31 1 31 5
M  V30 32 1 29 9
M  V30 33 1 29 12
M  V30 34 1 28 15
M  V30 35 1 26 21
M  V30 36 1 1 32
M  V30 37 1 1 33
M  V30 38 1 1 34
M  V30 39 1 2 35
M  V30 40 1 6 36
M  V30 41 1 7 37
M  V30 42 1 10 38
M  V30 43 1 13 39
M  V30 44 1 16 40
M  V30 45 1 17 41
M  V30 46 1 22 42
M  V30 47 1 23 43
M  V30 48 1 24 44
M  V30 49 1 26 45
M  V30 50 1 27 46
M  V30 51 1 30 47
M  V30 52 1 31 48
M  V30 END BOND
M  V30 END CTAB
M  END
>  <Dataset>  (536) 
ChEMBL_Kinases

>  <Ligand_Instance>  (536) 
nan

>  <PDB_ID>  (536) 
nan

>  <Standardized_SMILES>  (536) 
CC(C#N)c1ccc(-n2cnc3cnc4ccc(C#Cc5cccnc5)cc4c32)cc1

>  <Name>  (536) 
nan

>  <Pocket>  (536) 
nan

>  <ATP_Site>  (536) 
nan

>  <Peripheral>  (536) 
nan

>  <Num_H_Atoms_ProtBoundConf>  (536) 
nan

>  <Num_Resolved_Atoms>  (536) 
nan

>  <Num_Not_Resolved_Atoms>  (536) 
nan

$$$$
CHEMBL4059604
     RDKit          3D

  0  0  0  0  0  0  0  0  0  0999 V3000
M  V30 BEGIN CTAB
M  V30 COUNTS 53 58 0 0 0
M  V30 BEGIN ATOM
M  V30 1 F -3.792553 -2.317134 4.237199 0
M  V30 2 C -2.571800 -1.895224 3.891361 0
M  V30 3 C -1.534005 -1.906347 4.794633 0
M  V30 4 C -0.287647 -1.465540 4.403951 0
M  V30 5 C -0.137995 -1.022641 3.091646 0
M  V30 6 N 1.079287 -0.603662 2.776363 0
M  V30 7 C 1.381743 -0.150634 1.588416 0
M  V30 8 N 2.605599 0.343739 1.057619 0
M  V30 9 C 2.942681 1.725231 1.025827 0
M  V30 10 C 4.184680 2.120970 0.536639 0
M  V30 11 C 4.561948 3.471263 0.478468 0
M  V30 12 C 3.577610 4.307731 0.950961 0
M  V30 13 N 3.674454 5.670852 1.010239 0
M  V30 14 N 2.546488 6.182748 1.518140 0
M  V30 15 C 1.675934 5.189246 1.808497 0
M  V30 16 C 2.331564 4.032422 1.450542 0
M  V30 17 C 2.050141 2.681801 1.468580 0
M  V30 18 N 0.426001 -0.108828 0.654821 0
M  V30 19 C -0.830613 -0.505664 0.865877 0
M  V30 20 N -2.041886 -0.613313 0.086471 0
M  V30 21 C -3.090455 -0.628820 -0.820116 0
M  V30 22 C -2.876881 -1.419220 -2.081390 0
M  V30 23 C -2.602119 -2.840017 -1.884945 0
M  V30 24 C -3.575779 -3.834670 -2.005870 0
M  V30 25 N -2.995023 -5.037591 -1.730555 0
M  V30 26 C -1.696826 -4.908526 -1.434308 0
M  V30 27 C -0.694786 -5.795218 -1.097974 0
M  V30 28 C 0.588479 -5.269828 -0.855790 0
M  V30 29 C 0.852013 -3.920707 -0.947667 0
M  V30 30 C -0.204398 -3.104336 -1.288562 0
M  V30 31 C -1.474392 -3.551320 -1.535096 0
M  V30 32 C -1.135141 -0.986467 2.144323 0
M  V30 33 C -2.359787 -1.449356 2.622084 0
M  V30 34 H -1.752072 -2.265251 5.778651 0
M  V30 35 H 0.519143 -1.478280 5.116800 0
M  V30 36 H 3.272149 -0.362201 0.679756 0
M  V30 37 H 4.915708 1.379694 0.177076 0
M  V30 38 H 5.506814 3.815802 0.110259 0
M  V30 39 H 4.416627 6.354961 0.749053 0
M  V30 40 H 0.677098 5.185069 2.223379 0
M  V30 41 H 1.078057 2.338994 1.850643 0
M  V30 42 H -1.491581 -0.180510 -0.729743 0
M  V30 43 H -3.408527 0.411103 -1.133572 0
M  V30 44 H -4.054017 -1.005905 -0.309318 0
M  V30 45 H -1.988486 -0.938162 -2.583341 0
M  V30 46 H -3.716997 -1.286076 -2.773195 0
M  V30 47 H -4.610144 -3.675412 -2.272791 0
M  V30 48 H -3.555940 -5.925881 -1.764628 0
M  V30 49 H -0.898260 -6.834921 -1.027355 0
M  V30 50 H 1.413127 -5.932120 -0.586266 0
M  V30 51 H 1.834739 -3.511359 -0.764308 0
M  V30 52 H 0.024949 -2.054117 -1.365128 0
M  V30 53 H -3.172856 -1.440346 1.911249 0
M  V30 END ATOM
M  V30 BEGIN BOND
M  V30 1 1 1 2
M  V30 2 2 2 3
M  V30 3 1 3 4
M  V30 4 2 4 5
M  V30 5 1 5 6
M  V30 6 2 6 7
M  V30 7 1 7 8
M  V30 8 1 8 9
M  V30 9 2 9 10
M  V30 10 1 10 11
M  V30 11 2 11 12
M  V30 12 1 12 13
M  V30 13 1 13 14
M  V30 14 2 14 15
M  V30 15 1 15 16
M  V30 16 2 16 17
M  V30 17 1 7 18
M  V30 18 2 18 19
M  V30 19 1 19 20
M  V30 20 1 20 21
M  V30 21 1 21 22
M  V30 22 1 22 23
M  V30 23 2 23 24
M  V30 24 1 24 25
M  V30 25 1 25 26
M  V30 26 2 26 27
M  V30 27 1 27 28
M  V30 28 2 28 29
M  V30 29 1 29 30
M  V30 30 2 30 31
M  V30 31 1 19 32
M  V30 32 2 32 33
M  V30 33 1 33 2
M  V30 34 1 32 5
M  V30 35 1 17 9
M  V30 36 1 31 23
M  V30 37 1 16 12
M  V30 38 1 31 26
M  V30 39 1 3 34
M  V30 40 1 4 35
M  V30 41 1 8 36
M  V30 42 1 10 37
M  V30 43 1 11 38
M  V30 44 1 13 39
M  V30 45 1 15 40
M  V30 46 1 17 41
M  V30 47 1 20 42
M  V30 48 1 21 43
M  V30 49 1 21 44
M  V30 50 1 22 45
M  V30 51 1 22 46
M  V30 52 1 24 47
M  V30 53 1 25 48
M  V30 54 1 27 49
M  V30 55 1 28 50
M  V30 56 1 29 51
M  V30 57 1 30 52
M  V30 58 1 33 53
M  V30 END BOND
M  V30 END CTAB
M  END
>  <Dataset>  (537) 
ChEMBL_Kinases

>  <Ligand_Instance>  (537) 
nan

>  <PDB_ID>  (537) 
nan

>  <Standardized_SMILES>  (537) 
Fc1ccc2nc(Nc3ccc4[nH]ncc4c3)nc(NCCc3c[nH]c4ccccc34)c2c1

>  <Name>  (537) 
nan

>  <Pocket>  (537) 
nan

>  <ATP_Site>  (537) 
nan

>  <Peripheral>  (537) 
nan

>  <Num_H_Atoms_ProtBoundConf>  (537) 
nan

>  <Num_Resolved_Atoms>  (537) 
nan

>  <Num_Not_Resolved_Atoms>  (537) 
nan

$$$$
CHEMBL4059523
     RDKit          3D

  0  0  0  0  0  0  0  0  0  0999 V3000
M  V30 BEGIN CTAB
M  V30 COUNTS 55 59 0 0 0
M  V30 BEGIN ATOM
M  V30 1 O 0.566801 -2.353992 -0.407170 0
M  V30 2 C 0.368215 -1.221718 0.103710 0
M  V30 3 C 1.487271 -0.474238 0.661685 0
M  V30 4 C 2.752904 -0.804092 0.725800 0
M  V30 5 C 4.029589 -0.318774 1.181824 0
M  V30 6 C 5.134422 -1.143503 1.161895 0
M  V30 7 N 6.317842 -0.692496 1.596114 0
M  V30 8 C 6.488063 0.555220 2.062369 0
M  V30 9 C 5.393146 1.389694 2.086424 0
M  V30 10 C 4.132709 0.964725 1.641347 0
M  V30 11 C 3.208626 2.069736 1.701099 0
M  V30 12 C 2.439200 2.901947 0.864317 0
M  V30 13 N 1.739201 3.781248 1.594681 0
M  V30 14 N 1.979327 3.605698 2.882243 0
M  V30 15 C 1.389472 4.383963 3.951295 0
M  V30 16 C 1.439627 3.805330 5.319072 0
M  V30 17 C 0.147649 3.940771 4.626979 0
M  V30 18 C 2.859442 2.582117 2.962417 0
M  V30 19 N -0.901784 -0.591668 0.183224 0
M  V30 20 C -2.006266 -1.310259 -0.358390 0
M  V30 21 C -2.761406 -2.178716 0.389256 0
M  V30 22 C -3.822939 -2.839912 -0.219155 0
M  V30 23 C -4.178107 -2.683411 -1.543013 0
M  V30 24 C -5.300751 -3.397364 -2.140853 0
M  V30 25 N -5.021013 -4.662968 -2.726063 0
M  V30 26 C -4.089562 -4.720705 -3.795985 0
M  V30 27 C -3.170568 -5.551304 -2.911225 0
M  V30 28 F -2.763126 -6.745226 -3.457405 0
M  V30 29 F -2.117359 -4.841016 -2.381406 0
M  V30 30 C -4.356007 -5.659339 -1.950741 0
M  V30 31 C -3.374332 -1.792225 -2.240086 0
M  V30 32 C -2.300028 -1.094739 -1.708329 0
M  V30 33 H 1.379476 0.471745 1.132237 0
M  V30 34 H 2.799904 -1.800270 0.246678 0
M  V30 35 H 5.069423 -2.154658 0.801350 0
M  V30 36 H 7.484387 0.809586 2.386459 0
M  V30 37 H 5.665204 2.370204 2.485764 0
M  V30 38 H 2.564183 2.667978 -0.205679 0
M  V30 39 H 1.511715 5.487694 3.841275 0
M  V30 40 H 1.759562 4.510290 6.118679 0
M  V30 41 H 1.881116 2.790758 5.438247 0
M  V30 42 H -0.585131 4.710405 4.989641 0
M  V30 43 H -0.353470 2.987948 4.363159 0
M  V30 44 H 3.195970 2.270083 3.958453 0
M  V30 45 H -1.080782 0.337280 0.599655 0
M  V30 46 H -2.512776 -2.328450 1.434816 0
M  V30 47 H -4.357858 -3.497439 0.440133 0
M  V30 48 H -5.684961 -2.732392 -2.970678 0
M  V30 49 H -6.141052 -3.421420 -1.415248 0
M  V30 50 H -4.480196 -5.370821 -4.608671 0
M  V30 51 H -3.618868 -3.816491 -4.170231 0
M  V30 52 H -4.844653 -6.652152 -2.142362 0
M  V30 53 H -4.137924 -5.469109 -0.899302 0
M  V30 54 H -3.563506 -1.595843 -3.275850 0
M  V30 55 H -1.714939 -0.418644 -2.297205 0
M  V30 END ATOM
M  V30 BEGIN BOND
M  V30 1 2 1 2
M  V30 2 1 2 3
M  V30 3 2 3 4
M  V30 4 1 4 5
M  V30 5 2 5 6
M  V30 6 1 6 7
M  V30 7 2 7 8
M  V30 8 1 8 9
M  V30 9 2 9 10
M  V30 10 1 10 11
M  V30 11 1 11 12
M  V30 12 2 12 13
M  V30 13 1 13 14
M  V30 14 1 14 15
M  V30 15 1 15 16
M  V30 16 1 16 17
M  V30 17 1 14 18
M  V30 18 1 2 19
M  V30 19 1 19 20
M  V30 20 2 20 21
M  V30 21 1 21 22
M  V30 22 2 22 23
M  V30 23 1 23 24
M  V30 24 1 24 25
M  V30 25 1 25 26
M  V30 26 1 26 27
M  V30 27 1 27 28
M  V30 28 1 27 29
M  V30 29 1 27 30
M  V30 30 1 23 31
M  V30 31 2 31 32
M  V30 32 1 10 5
M  V30 33 2 18 11
M  V30 34 1 32 20
M  V30 35 1 17 15
M  V30 36 1 30 25
M  V30 37 1 3 33
M  V30 38 1 4 34
M  V30 39 1 6 35
M  V30 40 1 8 36
M  V30 41 1 9 37
M  V30 42 1 12 38
M  V30 43 1 15 39
M  V30 44 1 16 40
M  V30 45 1 16 41
M  V30 46 1 17 42
M  V30 47 1 17 43
M  V30 48 1 18 44
M  V30 49 1 19 45
M  V30 50 1 21 46
M  V30 51 1 22 47
M  V30 52 1 24 48
M  V30 53 1 24 49
M  V30 54 1 26 50
M  V30 55 1 26 51
M  V30 56 1 30 52
M  V30 57 1 30 53
M  V30 58 1 31 54
M  V30 59 1 32 55
M  V30 END BOND
M  V30 END CTAB
M  END
>  <Dataset>  (538) 
ChEMBL_Kinases

>  <Ligand_Instance>  (538) 
nan

>  <PDB_ID>  (538) 
nan

>  <Standardized_SMILES>  (538) 
O=C(/C=C/c1cnccc1-c1cnn(C2CC2)c1)Nc1ccc(CN2CC(F)(F)C2)cc1

>  <Name>  (538) 
nan

>  <Pocket>  (538) 
nan

>  <ATP_Site>  (538) 
nan

>  <Peripheral>  (538) 
nan

>  <Num_H_Atoms_ProtBoundConf>  (538) 
nan

>  <Num_Resolved_Atoms>  (538) 
nan

>  <Num_Not_Resolved_Atoms>  (538) 
nan

$$$$
CHEMBL4863974
     RDKit          3D

  0  0  0  0  0  0  0  0  0  0999 V3000
M  V30 BEGIN CTAB
M  V30 COUNTS 40 43 0 0 0
M  V30 BEGIN ATOM
M  V30 1 O -3.187542 -2.276240 -1.575440 0
M  V30 2 C -2.763330 -2.526320 -0.420623 0
M  V30 3 O -3.581477 -3.524962 0.071577 0
M  V30 4 C -1.649970 -1.955644 0.356572 0
M  V30 5 C -1.445077 -2.533873 1.614731 0
M  V30 6 C -0.383566 -2.060252 2.384520 0
M  V30 7 C 0.441052 -1.047283 1.913553 0
M  V30 8 C 1.455780 -0.750117 2.904613 0
M  V30 9 C 2.150632 -1.717317 3.589012 0
M  V30 10 C 3.102957 -1.425729 4.538089 0
M  V30 11 N 3.407651 -0.145788 4.849629 0
M  V30 12 C 2.740405 0.836480 4.193206 0
M  V30 13 N 2.890655 2.169705 4.354760 0
M  V30 14 C 2.001232 2.754260 3.476720 0
M  V30 15 N 1.394202 1.748275 2.864167 0
M  V30 16 C 1.788730 0.540948 3.244900 0
M  V30 17 C 0.206722 -0.505290 0.674391 0
M  V30 18 C -0.840657 -0.944008 -0.130509 0
M  V30 19 C -1.071187 -0.328931 -1.439759 0
M  V30 20 C -0.440404 -1.022619 -2.582699 0
M  V30 21 C 0.806997 -0.273193 -2.879737 0
M  V30 22 C 0.297345 1.168108 -2.770654 0
M  V30 23 C -0.627151 1.100215 -1.568304 0
M  V30 24 H -4.578583 -3.479683 -0.094991 0
M  V30 25 H -2.115046 -3.335351 1.959862 0
M  V30 26 H -0.322570 -2.583803 3.346449 0
M  V30 27 H 1.945261 -2.765406 3.376837 0
M  V30 28 H 3.670910 -2.172862 5.097172 0
M  V30 29 H 3.510232 2.730031 4.978110 0
M  V30 30 H 1.893243 3.821757 3.377660 0
M  V30 31 H 0.907768 0.256975 0.420003 0
M  V30 32 H -2.191019 -0.288041 -1.644365 0
M  V30 33 H -0.291778 -2.110911 -2.449042 0
M  V30 34 H -1.099814 -0.929902 -3.478708 0
M  V30 35 H 1.261719 -0.491216 -3.857408 0
M  V30 36 H 1.619857 -0.365139 -2.133852 0
M  V30 37 H 1.131425 1.882583 -2.628065 0
M  V30 38 H -0.249257 1.366680 -3.707042 0
M  V30 39 H -0.107627 1.525899 -0.718596 0
M  V30 40 H -1.475244 1.809518 -1.800914 0
M  V30 END ATOM
M  V30 BEGIN BOND
M  V30 1 2 1 2
M  V30 2 1 2 3
M  V30 3 1 2 4
M  V30 4 2 4 5
M  V30 5 1 5 6
M  V30 6 2 6 7
M  V30 7 1 7 8
M  V30 8 2 8 9
M  V30 9 1 9 10
M  V30 10 2 10 11
M  V30 11 1 11 12
M  V30 12 1 12 13
M  V30 13 1 13 14
M  V30 14 2 14 15
M  V30 15 1 15 16
M  V30 16 1 7 17
M  V30 17 2 17 18
M  V30 18 1 18 19
M  V30 19 1 19 20
M  V30 20 1 20 21
M  V30 21 1 21 22
M  V30 22 1 22 23
M  V30 23 1 18 4
M  V30 24 1 23 19
M  V30 25 1 16 8
M  V30 26 2 16 12
M  V30 27 1 3 24
M  V30 28 1 5 25
M  V30 29 1 6 26
M  V30 30 1 9 27
M  V30 31 1 10 28
M  V30 32 1 13 29
M  V30 33 1 14 30
M  V30 34 1 17 31
M  V30 35 1 19 32
M  V30 36 1 20 33
M  V30 37 1 20 34
M  V30 38 1 21 35
M  V30 39 1 21 36
M  V30 40 1 22 37
M  V30 41 1 22 38
M  V30 42 1 23 39
M  V30 43 1 23 40
M  V30 END BOND
M  V30 END CTAB
M  END
>  <Dataset>  (539) 
ChEMBL_Kinases

>  <Ligand_Instance>  (539) 
nan

>  <PDB_ID>  (539) 
nan

>  <Standardized_SMILES>  (539) 
O=C(O)c1ccc(-c2ccnc3[nH]cnc23)cc1C1CCCC1

>  <Name>  (539) 
nan

>  <Pocket>  (539) 
nan

>  <ATP_Site>  (539) 
nan

>  <Peripheral>  (539) 
nan

>  <Num_H_Atoms_ProtBoundConf>  (539) 
nan

>  <Num_Resolved_Atoms>  (539) 
nan

>  <Num_Not_Resolved_Atoms>  (539) 
nan

$$$$
CHEMBL405845
     RDKit          3D

  0  0  0  0  0  0  0  0  0  0999 V3000
M  V30 BEGIN CTAB
M  V30 COUNTS 31 33 0 0 0
M  V30 BEGIN ATOM
M  V30 1 C 0.442624 -2.521993 4.532085 0
M  V30 2 C 0.652414 -2.126866 3.109752 0
M  V30 3 N 0.569860 -0.892281 2.554777 0
M  V30 4 C 0.831934 -0.970807 1.236768 0
M  V30 5 C 1.084493 -2.297985 0.970171 0
M  V30 6 N 0.974564 -3.010971 2.121153 0
M  V30 7 C 1.384977 -2.657260 -0.325111 0
M  V30 8 O 1.629307 -3.864961 -0.644165 0
M  V30 9 N 1.417146 -1.694683 -1.266485 0
M  V30 10 C 1.736976 -2.103215 -2.624186 0
M  V30 11 C 1.164584 -0.413642 -0.962867 0
M  V30 12 O 1.202587 0.449536 -1.855274 0
M  V30 13 N 0.865050 -0.011114 0.292710 0
M  V30 14 C 0.602506 1.393916 0.549522 0
M  V30 15 C -0.852242 1.665684 0.378043 0
M  V30 16 C -1.808205 1.576553 1.393791 0
M  V30 17 C -3.030935 1.909822 0.807736 0
M  V30 18 C -2.746893 2.178676 -0.515668 0
M  V30 19 O -1.462315 2.023798 -0.722940 0
M  V30 20 H 1.347335 -2.351592 5.115813 0
M  V30 21 H 0.072126 -3.582152 4.573836 0
M  V30 22 H -0.390550 -1.935209 5.004677 0
M  V30 23 H 1.125088 -4.050041 2.161144 0
M  V30 24 H 1.098000 -2.973146 -2.921984 0
M  V30 25 H 1.427279 -1.264593 -3.296487 0
M  V30 26 H 2.808426 -2.262454 -2.755939 0
M  V30 27 H 1.217152 1.976305 -0.168081 0
M  V30 28 H 0.907702 1.588649 1.599876 0
M  V30 29 H -1.624315 1.303415 2.421981 0
M  V30 30 H -3.956029 1.921782 1.376699 0
M  V30 31 H -3.536008 2.472518 -1.225885 0
M  V30 END ATOM
M  V30 BEGIN BOND
M  V30 1 1 1 2
M  V30 2 2 2 3
M  V30 3 1 3 4
M  V30 4 2 4 5
M  V30 5 1 5 6
M  V30 6 1 5 7
M  V30 7 2 7 8
M  V30 8 1 7 9
M  V30 9 1 9 10
M  V30 10 1 9 11
M  V30 11 2 11 12
M  V30 12 1 11 13
M  V30 13 1 13 14
M  V30 14 1 14 15
M  V30 15 2 15 16
M  V30 16 1 16 17
M  V30 17 2 17 18
M  V30 18 1 18 19
M  V30 19 1 6 2
M  V30 20 1 19 15
M  V30 21 1 13 4
M  V30 22 1 1 20
M  V30 23 1 1 21
M  V30 24 1 1 22
M  V30 25 1 6 23
M  V30 26 1 10 24
M  V30 27 1 10 25
M  V30 28 1 10 26
M  V30 29 1 14 27
M  V30 30 1 14 28
M  V30 31 1 16 29
M  V30 32 1 17 30
M  V30 33 1 18 31
M  V30 END BOND
M  V30 END CTAB
M  END
>  <Dataset>  (540) 
ChEMBL_Kinases

>  <Ligand_Instance>  (540) 
nan

>  <PDB_ID>  (540) 
nan

>  <Standardized_SMILES>  (540) 
Cc1nc2c([nH]1)c(=O)n(C)c(=O)n2Cc1ccco1

>  <Name>  (540) 
FURAFYLLINE

>  <Pocket>  (540) 
nan

>  <ATP_Site>  (540) 
nan

>  <Peripheral>  (540) 
nan

>  <Num_H_Atoms_ProtBoundConf>  (540) 
nan

>  <Num_Resolved_Atoms>  (540) 
nan

>  <Num_Not_Resolved_Atoms>  (540) 
nan

$$$$
CHEMBL97463
     RDKit          3D

  0  0  0  0  0  0  0  0  0  0999 V3000
M  V30 BEGIN CTAB
M  V30 COUNTS 49 52 0 0 0
M  V30 BEGIN ATOM
M  V30 1 C -0.483534 -5.675382 4.895147 0
M  V30 2 O 0.190418 -4.467894 4.692475 0
M  V30 3 C 0.569586 -3.932200 3.486899 0
M  V30 4 C 1.235682 -2.722171 3.413235 0
M  V30 5 C 1.607458 -2.202048 2.192108 0
M  V30 6 O 2.275889 -0.994874 2.064299 0
M  V30 7 C 2.606571 -0.239243 3.205169 0
M  V30 8 C 1.281937 -2.945484 1.072050 0
M  V30 9 C 1.657688 -2.418031 -0.148723 0
M  V30 10 N 2.350000 -1.175815 -0.343006 0
M  V30 11 C 1.669786 0.076857 -0.524812 0
M  V30 12 C 2.282082 1.286877 -0.713313 0
M  V30 13 C 1.521900 2.432429 -0.878182 0
M  V30 14 C 0.142692 2.394320 -0.858451 0
M  V30 15 O -0.607271 3.562663 -1.026860 0
M  V30 16 C -1.994600 3.506606 -1.004138 0
M  V30 17 C -2.468824 3.680688 0.288211 0
M  V30 18 C -3.834815 3.666905 0.585855 0
M  V30 19 C -4.702393 3.470924 -0.469687 0
M  V30 20 C -4.242162 3.296724 -1.758826 0
M  V30 21 C -2.889859 3.313075 -2.035494 0
M  V30 22 C -0.476645 1.180333 -0.669279 0
M  V30 23 C 0.273033 0.020803 -0.502200 0
M  V30 24 C 1.376123 -3.088069 -1.322756 0
M  V30 25 C 1.739253 -2.594373 -2.624525 0
M  V30 26 N 2.020354 -2.195433 -3.667301 0
M  V30 27 C 0.705030 -4.309900 -1.269272 0
M  V30 28 N 0.345658 -4.809021 -0.061087 0
M  V30 29 C 0.620258 -4.155453 1.084696 0
M  V30 30 C 0.265695 -4.639756 2.338481 0
M  V30 31 H -1.595594 -5.523907 5.019508 0
M  V30 32 H -0.166043 -6.077648 5.891237 0
M  V30 33 H -0.285591 -6.461699 4.155044 0
M  V30 34 H 1.464019 -2.183148 4.332193 0
M  V30 35 H 1.764585 -0.151052 3.937445 0
M  V30 36 H 3.510951 -0.636881 3.706570 0
M  V30 37 H 2.854452 0.784053 2.857226 0
M  V30 38 H 3.389876 -1.095699 -0.365715 0
M  V30 39 H 3.349509 1.308697 -0.727417 0
M  V30 40 H 1.989675 3.395514 -1.028034 0
M  V30 41 H -1.864946 3.842801 1.193793 0
M  V30 42 H -4.234582 3.798703 1.575929 0
M  V30 43 H -5.767746 3.456912 -0.259165 0
M  V30 44 H -4.899033 3.141457 -2.603762 0
M  V30 45 H -2.409291 3.190995 -2.983906 0
M  V30 46 H -1.542139 1.154535 -0.654589 0
M  V30 47 H -0.228051 -0.935549 -0.353041 0
M  V30 48 H 0.483643 -4.836854 -2.193279 0
M  V30 49 H -0.257784 -5.602738 2.304853 0
M  V30 END ATOM
M  V30 BEGIN BOND
M  V30 1 1 1 2
M  V30 2 1 2 3
M  V30 3 2 3 4
M  V30 4 1 4 5
M  V30 5 1 5 6
M  V30 6 1 6 7
M  V30 7 2 5 8
M  V30 8 1 8 9
M  V30 9 1 9 10
M  V30 10 1 10 11
M  V30 11 2 11 12
M  V30 12 1 12 13
M  V30 13 2 13 14
M  V30 14 1 14 15
M  V30 15 1 15 16
M  V30 16 2 16 17
M  V30 17 1 17 18
M  V30 18 2 18 19
M  V30 19 1 19 20
M  V30 20 2 20 21
M  V30 21 1 14 22
M  V30 22 2 22 23
M  V30 23 2 9 24
M  V30 24 1 24 25
M  V30 25 3 25 26
M  V30 26 1 24 27
M  V30 27 2 27 28
M  V30 28 1 28 29
M  V30 29 2 29 30
M  V30 30 1 30 3
M  V30 31 1 29 8
M  V30 32 1 23 11
M  V30 33 1 21 16
M  V30 34 1 1 31
M  V30 35 1 1 32
M  V30 36 1 1 33
M  V30 37 1 4 34
M  V30 38 1 7 35
M  V30 39 1 7 36
M  V30 40 1 7 37
M  V30 41 1 10 38
M  V30 42 1 12 39
M  V30 43 1 13 40
M  V30 44 1 17 41
M  V30 45 1 18 42
M  V30 46 1 19 43
M  V30 47 1 20 44
M  V30 48 1 21 45
M  V30 49 1 22 46
M  V30 50 1 23 47
M  V30 51 1 27 48
M  V30 52 1 30 49
M  V30 END BOND
M  V30 END CTAB
M  END
>  <Dataset>  (541) 
ChEMBL_Kinases

>  <Ligand_Instance>  (541) 
nan

>  <PDB_ID>  (541) 
nan

>  <Standardized_SMILES>  (541) 
COc1cc(OC)c2c(Nc3ccc(Oc4ccccc4)cc3)c(C#N)cnc2c1

>  <Name>  (541) 
nan

>  <Pocket>  (541) 
nan

>  <ATP_Site>  (541) 
nan

>  <Peripheral>  (541) 
nan

>  <Num_H_Atoms_ProtBoundConf>  (541) 
nan

>  <Num_Resolved_Atoms>  (541) 
nan

>  <Num_Not_Resolved_Atoms>  (541) 
nan

$$$$
CHEMBL405358
     RDKit          3D

  0  0  0  0  0  0  0  0  0  0999 V3000
M  V30 BEGIN CTAB
M  V30 COUNTS 27 28 0 0 0
M  V30 BEGIN ATOM
M  V30 1 C -0.845738 -2.995271 0.898237 0
M  V30 2 C 0.044308 -1.957792 1.504796 0
M  V30 3 C -0.163619 -1.544356 2.817416 0
M  V30 4 C 0.645324 -0.589349 3.395462 0
M  V30 5 C 1.676616 -0.020598 2.693709 0
M  V30 6 O 2.581780 0.944765 3.111559 0
M  V30 7 C 1.858468 -0.452552 1.389660 0
M  V30 8 N 2.892693 0.040078 0.513531 0
M  V30 9 N 2.473182 0.455882 -0.628159 0
M  V30 10 C 1.067984 0.397244 -0.922854 0
M  V30 11 C 0.583171 -0.441660 -1.897114 0
M  V30 12 C -0.766603 -0.451367 -2.130486 0
M  V30 13 C -1.631332 0.363557 -1.404774 0
M  V30 14 C -1.145887 1.207348 -0.425202 0
M  V30 15 C 0.207707 1.205843 -0.203149 0
M  V30 16 N 1.056418 -1.394910 0.826547 0
M  V30 17 H -1.249950 -3.677003 1.691141 0
M  V30 18 H -1.730824 -2.449153 0.493886 0
M  V30 19 H -0.339768 -3.529990 0.076768 0
M  V30 20 H -0.959161 -1.954081 3.423091 0
M  V30 21 H 0.541096 -0.217853 4.417678 0
M  V30 22 H 2.956388 0.994751 4.046947 0
M  V30 23 H 1.272695 -1.082718 -2.466457 0
M  V30 24 H -1.212491 -1.088326 -2.883101 0
M  V30 25 H -2.709023 0.376260 -1.569286 0
M  V30 26 H -1.845802 1.836876 0.130124 0
M  V30 27 H 0.588025 1.880014 0.578266 0
M  V30 END ATOM
M  V30 BEGIN BOND
M  V30 1 1 1 2
M  V30 2 2 2 3
M  V30 3 1 3 4
M  V30 4 2 4 5
M  V30 5 1 5 6
M  V30 6 1 5 7
M  V30 7 1 7 8
M  V30 8 2 8 9
M  V30 9 1 9 10
M  V30 10 2 10 11
M  V30 11 1 11 12
M  V30 12 2 12 13
M  V30 13 1 13 14
M  V30 14 2 14 15
M  V30 15 2 7 16
M  V30 16 1 16 2
M  V30 17 1 15 10
M  V30 18 1 1 17
M  V30 19 1 1 18
M  V30 20 1 1 19
M  V30 21 1 3 20
M  V30 22 1 4 21
M  V30 23 1 6 22
M  V30 24 1 11 23
M  V30 25 1 12 24
M  V30 26 1 13 25
M  V30 27 1 14 26
M  V30 28 1 15 27
M  V30 END BOND
M  V30 END CTAB
M  END
>  <Dataset>  (542) 
ChEMBL_Kinases

>  <Ligand_Instance>  (542) 
nan

>  <PDB_ID>  (542) 
nan

>  <Standardized_SMILES>  (542) 
Cc1ccc(O)c(/N=N\c2ccccc2)n1

>  <Name>  (542) 
nan

>  <Pocket>  (542) 
nan

>  <ATP_Site>  (542) 
nan

>  <Peripheral>  (542) 
nan

>  <Num_H_Atoms_ProtBoundConf>  (542) 
nan

>  <Num_Resolved_Atoms>  (542) 
nan

>  <Num_Not_Resolved_Atoms>  (542) 
nan

$$$$
CHEMBL405200
     RDKit          3D

  0  0  0  0  0  0  0  0  0  0999 V3000
M  V30 BEGIN CTAB
M  V30 COUNTS 24 26 0 0 0
M  V30 BEGIN ATOM
M  V30 1 O -1.156256 -0.720176 2.220143 0
M  V30 2 C -0.372594 -1.642739 1.602948 0
M  V30 3 C -0.670406 -2.943758 1.938549 0
M  V30 4 C 0.065832 -3.994707 1.378615 0
M  V30 5 N 1.048386 -3.658381 0.522166 0
M  V30 6 C 1.337908 -2.389202 0.195366 0
M  V30 7 N 2.241335 -1.810787 -0.579521 0
M  V30 8 C 2.109279 -0.478925 -0.537209 0
M  V30 9 C 1.050424 -0.124383 0.317138 0
M  V30 10 C 0.742371 1.265985 0.533939 0
M  V30 11 C -0.423890 1.913472 0.827876 0
M  V30 12 C -0.602586 3.256839 0.956898 0
M  V30 13 N 0.474679 4.050874 0.777467 0
M  V30 14 C 1.654118 3.479601 0.483861 0
M  V30 15 N 1.746530 2.147349 0.374952 0
M  V30 16 C 0.628386 -1.340666 0.730328 0
M  V30 17 H -0.824182 -0.130754 2.964792 0
M  V30 18 H -1.439525 -3.231281 2.611087 0
M  V30 19 H -0.156202 -5.025432 1.632097 0
M  V30 20 H 2.952206 -2.350748 -1.140089 0
M  V30 21 H 2.781487 0.163416 -1.123411 0
M  V30 22 H -1.310670 1.354626 0.938228 0
M  V30 23 H -1.558918 3.694577 1.192767 0
M  V30 24 H 2.534426 4.106945 0.335026 0
M  V30 END ATOM
M  V30 BEGIN BOND
M  V30 1 1 1 2
M  V30 2 2 2 3
M  V30 3 1 3 4
M  V30 4 2 4 5
M  V30 5 1 5 6
M  V30 6 1 6 7
M  V30 7 1 7 8
M  V30 8 2 8 9
M  V30 9 1 9 10
M  V30 10 2 10 11
M  V30 11 1 11 12
M  V30 12 2 12 13
M  V30 13 1 13 14
M  V30 14 2 14 15
M  V30 15 1 9 16
M  V30 16 1 16 2
M  V30 17 2 16 6
M  V30 18 1 15 10
M  V30 19 1 1 17
M  V30 20 1 3 18
M  V30 21 1 4 19
M  V30 22 1 7 20
M  V30 23 1 8 21
M  V30 24 1 11 22
M  V30 25 1 12 23
M  V30 26 1 14 24
M  V30 END BOND
M  V30 END CTAB
M  END
>  <Dataset>  (543) 
ChEMBL_Kinases

>  <Ligand_Instance>  (543) 
nan

>  <PDB_ID>  (543) 
nan

>  <Standardized_SMILES>  (543) 
Oc1ccnc2[nH]cc(-c3ccncn3)c12

>  <Name>  (543) 
nan

>  <Pocket>  (543) 
nan

>  <ATP_Site>  (543) 
nan

>  <Peripheral>  (543) 
nan

>  <Num_H_Atoms_ProtBoundConf>  (543) 
nan

>  <Num_Resolved_Atoms>  (543) 
nan

>  <Num_Not_Resolved_Atoms>  (543) 
nan

$$$$
CHEMBL4864059
     RDKit          3D

  0  0  0  0  0  0  0  0  0  0999 V3000
M  V30 BEGIN CTAB
M  V30 COUNTS 70 74 0 0 0
M  V30 BEGIN ATOM
M  V30 1 O 0.190293 -1.782620 0.296617 0
M  V30 2 C 0.406697 -2.655912 1.203569 0
M  V30 3 N 1.497511 -3.472469 0.853029 0
M  V30 4 C 2.516204 -3.798521 -0.079765 0
M  V30 5 C 1.990053 -4.245594 -1.395399 0
M  V30 6 C 1.170911 -3.280292 -2.147173 0
M  V30 7 C 1.080417 -3.544812 -3.634479 0
M  V30 8 N 2.260384 -4.025555 -4.252984 0
M  V30 9 C 1.996611 -4.312823 -5.644737 0
M  V30 10 C 1.606216 -3.090687 -6.378914 0
M  V30 11 C 2.702692 -2.429443 -6.936630 0
M  V30 12 C 2.462590 -1.258394 -7.660376 0
M  V30 13 C 1.220536 -0.700890 -7.867884 0
M  V30 14 C 0.187506 -1.401423 -7.292134 0
M  V30 15 Cl -1.437836 -0.778351 -7.490793 0
M  V30 16 C 0.342212 -2.561661 -6.564962 0
M  V30 17 C 2.713176 -5.187122 -3.536128 0
M  V30 18 C 3.226468 -4.685608 -2.204733 0
M  V30 19 C -0.409439 -2.717437 2.394302 0
M  V30 20 C -0.263535 -3.571120 3.465901 0
M  V30 21 N -1.069730 -3.556703 4.540651 0
M  V30 22 C -2.101402 -2.707527 4.679948 0
M  V30 23 C -2.250738 -1.854278 3.611974 0
M  V30 24 N -3.307493 -0.860671 3.592119 0
M  V30 25 C -2.733090 0.327141 4.139415 0
M  V30 26 O -1.532573 0.127796 4.459539 0
M  V30 27 C -3.469226 1.586555 4.289473 0
M  V30 28 C -4.820313 1.714077 4.051617 0
M  V30 29 C -5.271679 3.004753 4.228306 0
M  V30 30 N -4.502779 4.039623 4.589415 0
M  V30 31 C -3.188370 3.922920 4.821740 0
M  V30 32 N -2.495088 5.107143 5.171554 0
M  V30 33 C -1.130370 5.253987 5.510653 0
M  V30 34 O -0.370871 4.259493 5.534469 0
M  V30 35 C -0.482033 6.526429 5.852652 0
M  V30 36 C -1.245018 7.573191 6.602645 0
M  V30 37 C -0.860519 7.790951 5.171611 0
M  V30 38 C -2.664012 2.669552 4.668898 0
M  V30 39 C -1.459075 -1.800365 2.455664 0
M  V30 40 H 1.567070 -4.145968 1.690512 0
M  V30 41 H 3.147114 -2.861217 -0.184082 0
M  V30 42 H 3.171184 -4.600161 0.338999 0
M  V30 43 H 1.343133 -5.162100 -1.232180 0
M  V30 44 H 1.464929 -2.230476 -2.018143 0
M  V30 45 H 0.093830 -3.372493 -1.804701 0
M  V30 46 H 0.796667 -2.569247 -4.131851 0
M  V30 47 H 0.234535 -4.236289 -3.874891 0
M  V30 48 H 2.840126 -4.824172 -6.142080 0
M  V30 49 H 1.166037 -5.079265 -5.669642 0
M  V30 50 H 3.741670 -2.756369 -6.856128 0
M  V30 51 H 3.332336 -0.743103 -8.093672 0
M  V30 52 H 1.091529 0.204814 -8.432708 0
M  V30 53 H -0.433446 -3.133361 -6.102868 0
M  V30 54 H 3.484953 -5.753190 -4.101547 0
M  V30 55 H 1.842706 -5.839635 -3.343854 0
M  V30 56 H 3.735892 -5.446875 -1.600781 0
M  V30 57 H 3.825336 -3.744691 -2.318143 0
M  V30 58 H 0.547360 -4.281681 3.417072 0
M  V30 59 H -2.785477 -2.637173 5.503384 0
M  V30 60 H -4.326461 -0.835361 3.280461 0
M  V30 61 H -5.384155 0.856637 3.766977 0
M  V30 62 H -6.323438 3.198798 4.064555 0
M  V30 63 H -2.984947 6.031020 5.202430 0
M  V30 64 H 0.605143 6.429438 6.099955 0
M  V30 65 H -2.320337 7.351612 6.841571 0
M  V30 66 H -0.737527 8.189806 7.370845 0
M  V30 67 H -0.064817 8.533641 4.964606 0
M  V30 68 H -1.635552 7.775795 4.384203 0
M  V30 69 H -1.621840 2.526014 4.844323 0
M  V30 70 H -1.637072 -1.102401 1.657211 0
M  V30 END ATOM
M  V30 BEGIN BOND
M  V30 1 2 1 2
M  V30 2 1 2 3
M  V30 3 1 3 4
M  V30 4 1 4 5
M  V30 5 1 5 6
M  V30 6 1 6 7
M  V30 7 1 7 8
M  V30 8 1 8 9
M  V30 9 1 9 10
M  V30 10 2 10 11
M  V30 11 1 11 12
M  V30 12 2 12 13
M  V30 13 1 13 14
M  V30 14 1 14 15
M  V30 15 2 14 16
M  V30 16 1 8 17
M  V30 17 1 17 18
M  V30 18 1 2 19
M  V30 19 2 19 20
M  V30 20 1 20 21
M  V30 21 2 21 22
M  V30 22 1 22 23
M  V30 23 1 23 24
M  V30 24 1 24 25
M  V30 25 2 25 26
M  V30 26 1 25 27
M  V30 27 2 27 28
M  V30 28 1 28 29
M  V30 29 2 29 30
M  V30 30 1 30 31
M  V30 31 1 31 32
M  V30 32 1 32 33
M  V30 33 2 33 34
M  V30 34 1 33 35
M  V30 35 1 35 36
M  V30 36 1 36 37
M  V30 37 2 31 38
M  V30 38 2 23 39
M  V30 39 1 18 5
M  V30 40 1 39 19
M  V30 41 1 16 10
M  V30 42 1 38 27
M  V30 43 1 37 35
M  V30 44 1 3 40
M  V30 45 1 4 41
M  V30 46 1 4 42
M  V30 47 1 5 43
M  V30 48 1 6 44
M  V30 49 1 6 45
M  V30 50 1 7 46
M  V30 51 1 7 47
M  V30 52 1 9 48
M  V30 53 1 9 49
M  V30 54 1 11 50
M  V30 55 1 12 51
M  V30 56 1 13 52
M  V30 57 1 16 53
M  V30 58 1 17 54
M  V30 59 1 17 55
M  V30 60 1 18 56
M  V30 61 1 18 57
M  V30 62 1 20 58
M  V30 63 1 22 59
M  V30 64 1 24 60
M  V30 65 1 28 61
M  V30 66 1 29 62
M  V30 67 1 32 63
M  V30 68 1 35 64
M  V30 69 1 36 65
M  V30 70 1 36 66
M  V30 71 1 37 67
M  V30 72 1 37 68
M  V30 73 1 38 69
M  V30 74 1 39 70
M  V30 END BOND
M  V30 END CTAB
M  END
>  <Dataset>  (544) 
ChEMBL_Kinases

>  <Ligand_Instance>  (544) 
nan

>  <PDB_ID>  (544) 
nan

>  <Standardized_SMILES>  (544) 
O=C(NCC1CCN(Cc2cccc(Cl)c2)CC1)c1cncc(NC(=O)c2ccnc(NC(=O)C3CC3)c2)c1

>  <Name>  (544) 
nan

>  <Pocket>  (544) 
nan

>  <ATP_Site>  (544) 
nan

>  <Peripheral>  (544) 
nan

>  <Num_H_Atoms_ProtBoundConf>  (544) 
nan

>  <Num_Resolved_Atoms>  (544) 
nan

>  <Num_Not_Resolved_Atoms>  (544) 
nan

$$$$
CHEMBL4864119
     RDKit          3D

  0  0  0  0  0  0  0  0  0  0999 V3000
M  V30 BEGIN CTAB
M  V30 COUNTS 58 64 0 0 0
M  V30 BEGIN ATOM
M  V30 1 C 2.259743 -4.511240 3.002304 0
M  V30 2 C 2.997300 -3.352161 2.836439 0
M  V30 3 C 2.566588 -2.433643 1.872604 0
M  V30 4 C 3.369699 -1.224234 1.726996 0
M  V30 5 N 4.733225 -1.252585 1.679485 0
M  V30 6 N 5.207753 -0.013865 1.543136 0
M  V30 7 C 4.194313 0.865050 1.496128 0
M  V30 8 C 4.041835 2.232188 1.370546 0
M  V30 9 C 2.776197 2.780205 1.364581 0
M  V30 10 C 1.613014 2.005621 1.481770 0
M  V30 11 C 0.375218 2.755724 1.455399 0
M  V30 12 N 0.173268 3.951376 2.084333 0
M  V30 13 N -1.049314 4.370725 1.868564 0
M  V30 14 C -1.694227 3.475638 1.096123 0
M  V30 15 N -0.801761 2.496696 0.856665 0
M  V30 16 C -1.079075 1.334757 0.066053 0
M  V30 17 C -1.876248 0.292203 0.809898 0
M  V30 18 C -3.314927 0.462305 0.387202 0
M  V30 19 C -3.321087 1.301347 -0.859349 0
M  V30 20 C -1.896903 1.672614 -1.176774 0
M  V30 21 C 1.767428 0.647999 1.606369 0
M  V30 22 C 3.035676 0.108411 1.611423 0
M  V30 23 C 1.460245 -2.621318 1.090245 0
M  V30 24 C 0.747383 -3.790265 1.282911 0
M  V30 25 N -0.414172 -4.033269 0.492025 0
M  V30 26 C -1.415178 -4.903577 0.692828 0
M  V30 27 N -2.338853 -4.834311 -0.286604 0
M  V30 28 C -1.929772 -3.882541 -1.164567 0
M  V30 29 C -2.584616 -3.404126 -2.432183 0
M  V30 30 C -2.679928 -1.877276 -2.532666 0
M  V30 31 C -1.740599 -2.681640 -3.384249 0
M  V30 32 C -0.726955 -3.393879 -0.662017 0
M  V30 33 C 1.123231 -4.733213 2.218008 0
M  V30 34 H 2.560224 -5.234763 3.729713 0
M  V30 35 H 3.886689 -3.161790 3.439114 0
M  V30 36 H 6.217496 0.275067 1.478213 0
M  V30 37 H 4.933525 2.837796 1.279587 0
M  V30 38 H 2.727153 3.869561 1.261848 0
M  V30 39 H -2.722159 3.604485 0.782693 0
M  V30 40 H -0.175784 0.824713 -0.331552 0
M  V30 41 H -1.745887 0.347863 1.913149 0
M  V30 42 H -1.610073 -0.751335 0.542109 0
M  V30 43 H -3.861793 0.914027 1.238825 0
M  V30 44 H -3.829987 -0.492393 0.150510 0
M  V30 45 H -3.976420 2.176809 -0.683031 0
M  V30 46 H -3.777293 0.775395 -1.739810 0
M  V30 47 H -1.867901 2.722937 -1.458152 0
M  V30 48 H -1.573040 1.109681 -2.077770 0
M  V30 49 H 0.877955 0.083848 1.693308 0
M  V30 50 H 1.142418 -1.903851 0.352630 0
M  V30 51 H -1.436647 -5.569073 1.560771 0
M  V30 52 H -3.530336 -3.903153 -2.674218 0
M  V30 53 H -3.571705 -1.425084 -3.008889 0
M  V30 54 H -2.296603 -1.279694 -1.696037 0
M  V30 55 H -1.985921 -2.773120 -4.468592 0
M  V30 56 H -0.650632 -2.621004 -3.144463 0
M  V30 57 H -0.116319 -2.624180 -1.103354 0
M  V30 58 H 0.549148 -5.650305 2.357034 0
M  V30 END ATOM
M  V30 BEGIN BOND
M  V30 1 2 1 2
M  V30 2 1 2 3
M  V30 3 1 3 4
M  V30 4 2 4 5
M  V30 5 1 5 6
M  V30 6 1 6 7
M  V30 7 2 7 8
M  V30 8 1 8 9
M  V30 9 2 9 10
M  V30 10 1 10 11
M  V30 11 2 11 12
M  V30 12 1 12 13
M  V30 13 2 13 14
M  V30 14 1 14 15
M  V30 15 1 15 16
M  V30 16 1 16 17
M  V30 17 1 17 18
M  V30 18 1 18 19
M  V30 19 1 19 20
M  V30 20 1 10 21
M  V30 21 2 21 22
M  V30 22 2 3 23
M  V30 23 1 23 24
M  V30 24 1 24 25
M  V30 25 1 25 26
M  V30 26 2 26 27
M  V30 27 1 27 28
M  V30 28 1 28 29
M  V30 29 1 29 30
M  V30 30 1 30 31
M  V30 31 2 28 32
M  V30 32 2 24 33
M  V30 33 1 33 1
M  V30 34 1 22 4
M  V30 35 1 32 25
M  V30 36 1 22 7
M  V30 37 1 31 29
M  V30 38 1 15 11
M  V30 39 1 20 16
M  V30 40 1 1 34
M  V30 41 1 2 35
M  V30 42 1 6 36
M  V30 43 1 8 37
M  V30 44 1 9 38
M  V30 45 1 14 39
M  V30 46 1 16 40
M  V30 47 1 17 41
M  V30 48 1 17 42
M  V30 49 1 18 43
M  V30 50 1 18 44
M  V30 51 1 19 45
M  V30 52 1 19 46
M  V30 53 1 20 47
M  V30 54 1 20 48
M  V30 55 1 21 49
M  V30 56 1 23 50
M  V30 57 1 26 51
M  V30 58 1 29 52
M  V30 59 1 30 53
M  V30 60 1 30 54
M  V30 61 1 31 55
M  V30 62 1 31 56
M  V30 63 1 32 57
M  V30 64 1 33 58
M  V30 END BOND
M  V30 END CTAB
M  END
>  <Dataset>  (545) 
ChEMBL_Kinases

>  <Ligand_Instance>  (545) 
nan

>  <PDB_ID>  (545) 
nan

>  <Standardized_SMILES>  (545) 
c1cc(-c2n[nH]c3ccc(-c4nncn4C4CCCC4)cc23)cc(-n2cnc(C3CC3)c2)c1

>  <Name>  (545) 
nan

>  <Pocket>  (545) 
nan

>  <ATP_Site>  (545) 
nan

>  <Peripheral>  (545) 
nan

>  <Num_H_Atoms_ProtBoundConf>  (545) 
nan

>  <Num_Resolved_Atoms>  (545) 
nan

>  <Num_Not_Resolved_Atoms>  (545) 
nan

$$$$
CHEMBL405110
     RDKit          3D

  0  0  0  0  0  0  0  0  0  0999 V3000
M  V30 BEGIN CTAB
M  V30 COUNTS 38 40 0 0 0
M  V30 BEGIN ATOM
M  V30 1 C -0.493836 -3.741421 5.249311 0
M  V30 2 N -0.536537 -4.385549 3.932557 0
M  V30 3 C -0.750925 -5.800051 3.858574 0
M  V30 4 C -0.371075 -3.640952 2.742770 0
M  V30 5 C -0.403412 -4.203584 1.476504 0
M  V30 6 C -0.237850 -3.446150 0.330532 0
M  V30 7 C -0.028579 -2.063937 0.408432 0
M  V30 8 N 0.121980 -1.400841 -0.726287 0
M  V30 9 C 0.329079 -0.103164 -0.901768 0
M  V30 10 C 0.458015 0.370010 -2.213813 0
M  V30 11 C 0.676845 1.728235 -2.445830 0
M  V30 12 C 0.773293 2.641808 -1.416449 0
M  V30 13 N 0.997289 4.012379 -1.725392 0
M  V30 14 C 1.112130 4.369497 -3.126115 0
M  V30 15 C 1.104493 5.002551 -0.671121 0
M  V30 16 C 0.647895 2.187482 -0.119278 0
M  V30 17 C 0.430176 0.834838 0.106885 0
M  V30 18 S 0.261937 0.176326 1.671257 0 CHG=1 VAL=3
M  V30 19 C -0.001052 -1.529760 1.684843 0
M  V30 20 C -0.165181 -2.277224 2.833211 0
M  V30 21 H 0.539850 -3.420381 5.483654 0
M  V30 22 H -0.860111 -4.423142 6.019378 0
M  V30 23 H -1.180916 -2.861827 5.142801 0
M  V30 24 H 0.191495 -6.383757 3.809013 0
M  V30 25 H -1.274691 -6.172054 4.786649 0
M  V30 26 H -1.434482 -6.105880 3.028662 0
M  V30 27 H -0.562633 -5.265911 1.378638 0
M  V30 28 H -0.274607 -3.954008 -0.635448 0
M  V30 29 H 0.381665 -0.355373 -3.036376 0
M  V30 30 H 0.760073 1.978091 -3.492416 0
M  V30 31 H 2.056553 3.942948 -3.541416 0
M  V30 32 H 1.046274 5.464408 -3.284495 0
M  V30 33 H 0.259376 3.943884 -3.710274 0
M  V30 34 H 0.776905 6.003809 -1.078549 0
M  V30 35 H 2.148817 5.141330 -0.324410 0
M  V30 36 H 0.380091 4.780005 0.124278 0
M  V30 37 H 0.715003 2.853198 0.704967 0
M  V30 38 H -0.118623 -1.716964 3.758702 0
M  V30 END ATOM
M  V30 BEGIN BOND
M  V30 1 1 1 2
M  V30 2 1 2 3
M  V30 3 1 2 4
M  V30 4 2 4 5
M  V30 5 1 5 6
M  V30 6 2 6 7
M  V30 7 1 7 8
M  V30 8 2 8 9
M  V30 9 1 9 10
M  V30 10 2 10 11
M  V30 11 1 11 12
M  V30 12 1 12 13
M  V30 13 1 13 14
M  V30 14 1 13 15
M  V30 15 2 12 16
M  V30 16 1 16 17
M  V30 17 2 17 18
M  V30 18 1 18 19
M  V30 19 2 19 20
M  V30 20 1 20 4
M  V30 21 1 19 7
M  V30 22 1 17 9
M  V30 23 1 1 21
M  V30 24 1 1 22
M  V30 25 1 1 23
M  V30 26 1 3 24
M  V30 27 1 3 25
M  V30 28 1 3 26
M  V30 29 1 5 27
M  V30 30 1 6 28
M  V30 31 1 10 29
M  V30 32 1 11 30
M  V30 33 1 14 31
M  V30 34 1 14 32
M  V30 35 1 14 33
M  V30 36 1 15 34
M  V30 37 1 15 35
M  V30 38 1 15 36
M  V30 39 1 16 37
M  V30 40 1 20 38
M  V30 END BOND
M  V30 END CTAB
M  END
>  <Dataset>  (546) 
ChEMBL_Kinases

>  <Ligand_Instance>  (546) 
nan

>  <PDB_ID>  (546) 
nan

>  <Standardized_SMILES>  (546) 
CN(C)c1ccc2nc3ccc(N(C)C)cc3[s+]c2c1

>  <Name>  (546) 
METHYLENE BLUE ANHYDROUS

>  <Pocket>  (546) 
nan

>  <ATP_Site>  (546) 
nan

>  <Peripheral>  (546) 
nan

>  <Num_H_Atoms_ProtBoundConf>  (546) 
nan

>  <Num_Resolved_Atoms>  (546) 
nan

>  <Num_Not_Resolved_Atoms>  (546) 
nan

$$$$
CHEMBL405072
     RDKit          3D

  0  0  0  0  0  0  0  0  0  0999 V3000
M  V30 BEGIN CTAB
M  V30 COUNTS 28 29 0 0 0
M  V30 BEGIN ATOM
M  V30 1 N -0.268916 -3.397124 1.289687 0
M  V30 2 C -0.887906 -2.520619 2.219551 0
M  V30 3 C -1.538385 -2.980351 3.358563 0
M  V30 4 C -2.130897 -2.095868 4.243318 0
M  V30 5 C -2.099642 -0.732719 4.031401 0
M  V30 6 C -1.471002 -0.244416 2.925472 0
M  V30 7 C -0.887753 -1.146480 2.058232 0
M  V30 8 N -0.241784 -0.596143 0.916141 0
M  V30 9 C 1.107539 -0.178639 0.747644 0
M  V30 10 O 1.844924 -0.316875 1.765235 0
M  V30 11 C 1.552500 0.359453 -0.520622 0
M  V30 12 C 0.784201 0.527701 -1.654281 0
M  V30 13 C 1.300691 1.052719 -2.824819 0
M  V30 14 C 2.633773 1.423531 -2.864996 0
M  V30 15 C 3.437270 1.272139 -1.753792 0
M  V30 16 C 2.894209 0.739229 -0.580940 0
M  V30 17 H 0.004423 -3.007364 0.366466 0
M  V30 18 H -0.126500 -4.382843 1.593135 0
M  V30 19 H -1.556522 -4.054129 3.514678 0
M  V30 20 H -2.611577 -2.553728 5.098852 0
M  V30 21 H -2.572152 -0.096200 4.745039 0
M  V30 22 H -1.464983 0.809665 2.791885 0
M  V30 23 H -0.962242 -0.540537 0.162564 0
M  V30 24 H -0.246668 0.228747 -1.586240 0
M  V30 25 H 0.635655 1.154928 -3.674577 0
M  V30 26 H 3.044378 1.836510 -3.782217 0
M  V30 27 H 4.481431 1.554401 -1.760465 0
M  V30 28 H 3.551541 0.632026 0.277694 0
M  V30 END ATOM
M  V30 BEGIN BOND
M  V30 1 1 1 2
M  V30 2 2 2 3
M  V30 3 1 3 4
M  V30 4 2 4 5
M  V30 5 1 5 6
M  V30 6 2 6 7
M  V30 7 1 7 8
M  V30 8 1 8 9
M  V30 9 2 9 10
M  V30 10 1 9 11
M  V30 11 2 11 12
M  V30 12 1 12 13
M  V30 13 2 13 14
M  V30 14 1 14 15
M  V30 15 2 15 16
M  V30 16 1 7 2
M  V30 17 1 16 11
M  V30 18 1 1 17
M  V30 19 1 1 18
M  V30 20 1 3 19
M  V30 21 1 4 20
M  V30 22 1 5 21
M  V30 23 1 6 22
M  V30 24 1 8 23
M  V30 25 1 12 24
M  V30 26 1 13 25
M  V30 27 1 14 26
M  V30 28 1 15 27
M  V30 29 1 16 28
M  V30 END BOND
M  V30 END CTAB
M  END
>  <Dataset>  (547) 
ChEMBL_Kinases

>  <Ligand_Instance>  (547) 
nan

>  <PDB_ID>  (547) 
nan

>  <Standardized_SMILES>  (547) 
Nc1ccccc1NC(=O)c1ccccc1

>  <Name>  (547) 
nan

>  <Pocket>  (547) 
nan

>  <ATP_Site>  (547) 
nan

>  <Peripheral>  (547) 
nan

>  <Num_H_Atoms_ProtBoundConf>  (547) 
nan

>  <Num_Resolved_Atoms>  (547) 
nan

>  <Num_Not_Resolved_Atoms>  (547) 
nan

$$$$
CHEMBL404488
     RDKit          3D

  0  0  0  0  0  0  0  0  0  0999 V3000
M  V30 BEGIN CTAB
M  V30 COUNTS 42 45 0 0 0
M  V30 BEGIN ATOM
M  V30 1 C 2.068673 -4.931533 3.074161 0
M  V30 2 S 3.208054 -4.713866 1.738426 0
M  V30 3 O 4.514550 -5.365185 2.037747 0
M  V30 4 O 2.663933 -5.271060 0.472846 0
M  V30 5 N 3.438343 -3.008462 1.502158 0
M  V30 6 C 2.334406 -2.185810 1.144050 0
M  V30 7 C 2.246582 -0.995213 1.851284 0
M  V30 8 C 1.203532 -0.118063 1.577141 0
M  V30 9 C 0.263757 -0.440127 0.602686 0
M  V30 10 C -0.807047 0.463062 0.323005 0
M  V30 11 C -0.865241 1.776719 -0.159270 0
M  V30 12 C 0.344933 2.518980 -0.494260 0
M  V30 13 C 1.262436 2.191115 -1.472241 0
M  V30 14 C 2.356236 3.015337 -1.650299 0
M  V30 15 C 2.547125 4.144732 -0.880176 0
M  V30 16 N 1.633289 4.454076 0.079800 0
M  V30 17 C 0.547516 3.666649 0.281539 0
M  V30 18 O -2.114575 2.177534 -0.244515 0
M  V30 19 C -2.942118 1.217772 0.151465 0
M  V30 20 N -4.271512 1.151603 0.242424 0
M  V30 21 C -4.933041 0.075360 0.673020 0
M  V30 22 N -4.197069 -0.979581 1.025802 0
M  V30 23 C -2.848464 -0.937334 0.942594 0
M  V30 24 N -2.179599 -2.116107 1.342830 0
M  V30 25 C -2.139234 0.156215 0.503265 0
M  V30 26 C 0.352446 -1.629066 -0.102557 0
M  V30 27 C 1.393367 -2.490425 0.180189 0
M  V30 28 H 2.518622 -5.615558 3.806117 0
M  V30 29 H 1.904956 -3.969648 3.614574 0
M  V30 30 H 1.122808 -5.348834 2.720783 0
M  V30 31 H 4.368316 -2.565695 1.615439 0
M  V30 32 H 2.955553 -0.700102 2.620740 0
M  V30 33 H 1.076357 0.826495 2.091615 0
M  V30 34 H 1.048432 1.292098 -2.036484 0
M  V30 35 H 3.050494 2.713161 -2.433807 0
M  V30 36 H 3.410800 4.779277 -1.033968 0
M  V30 37 H -0.084650 4.037521 1.073428 0
M  V30 38 H -6.005711 0.012125 0.750422 0
M  V30 39 H -2.060685 -2.770379 2.138508 0
M  V30 40 H -1.659481 -2.980310 1.568488 0
M  V30 41 H -0.358385 -1.916698 -0.868233 0
M  V30 42 H 1.496190 -3.413319 -0.339024 0
M  V30 END ATOM
M  V30 BEGIN BOND
M  V30 1 1 1 2
M  V30 2 2 2 3
M  V30 3 2 2 4
M  V30 4 1 2 5
M  V30 5 1 5 6
M  V30 6 2 6 7
M  V30 7 1 7 8
M  V30 8 2 8 9
M  V30 9 1 9 10
M  V30 10 2 10 11
M  V30 11 1 11 12
M  V30 12 2 12 13
M  V30 13 1 13 14
M  V30 14 2 14 15
M  V30 15 1 15 16
M  V30 16 2 16 17
M  V30 17 1 11 18
M  V30 18 1 18 19
M  V30 19 2 19 20
M  V30 20 1 20 21
M  V30 21 2 21 22
M  V30 22 1 22 23
M  V30 23 1 23 24
M  V30 24 2 23 25
M  V30 25 1 9 26
M  V30 26 2 26 27
M  V30 27 1 27 6
M  V30 28 1 25 10
M  V30 29 1 17 12
M  V30 30 1 25 19
M  V30 31 1 1 28
M  V30 32 1 1 29
M  V30 33 1 1 30
M  V30 34 1 5 31
M  V30 35 1 7 32
M  V30 36 1 8 33
M  V30 37 1 13 34
M  V30 38 1 14 35
M  V30 39 1 15 36
M  V30 40 1 17 37
M  V30 41 1 21 38
M  V30 42 1 24 39
M  V30 43 1 24 40
M  V30 44 1 26 41
M  V30 45 1 27 42
M  V30 END BOND
M  V30 END CTAB
M  END
>  <Dataset>  (548) 
ChEMBL_Kinases

>  <Ligand_Instance>  (548) 
nan

>  <PDB_ID>  (548) 
nan

>  <Standardized_SMILES>  (548) 
CS(=O)(=O)Nc1ccc(-c2c(-c3cccnc3)oc3ncnc(N)c23)cc1

>  <Name>  (548) 
nan

>  <Pocket>  (548) 
nan

>  <ATP_Site>  (548) 
nan

>  <Peripheral>  (548) 
nan

>  <Num_H_Atoms_ProtBoundConf>  (548) 
nan

>  <Num_Resolved_Atoms>  (548) 
nan

>  <Num_Not_Resolved_Atoms>  (548) 
nan

$$$$
CHEMBL404688
     RDKit          3D

  0  0  0  0  0  0  0  0  0  0999 V3000
M  V30 BEGIN CTAB
M  V30 COUNTS 46 50 0 0 0
M  V30 BEGIN ATOM
M  V30 1 O -1.006938 -5.274186 0.483993 0
M  V30 2 S -0.479903 -5.390870 -0.893933 0
M  V30 3 O -0.340508 -6.853933 -1.208760 0
M  V30 4 N 1.072905 -4.672565 -1.106227 0
M  V30 5 C 1.334974 -3.294713 -0.874415 0
M  V30 6 C 0.853987 -2.657645 0.250448 0
M  V30 7 C 1.116938 -1.320175 0.460825 0
M  V30 8 C 1.854324 -0.549864 -0.408356 0
M  V30 9 C 2.135069 0.859694 -0.192941 0
M  V30 10 C 2.874421 1.608064 -1.075938 0
M  V30 11 C 3.134062 2.943231 -0.861081 0
M  V30 12 N 2.636814 3.495048 0.249289 0
M  V30 13 C 1.907161 2.817891 1.150788 0
M  V30 14 N 1.446789 3.535082 2.279618 0
M  V30 15 C 0.671175 3.121181 3.386565 0
M  V30 16 C 0.281273 3.919517 4.437984 0
M  V30 17 C -0.469298 3.480385 5.489931 0
M  V30 18 C -0.906007 2.177899 5.586920 0
M  V30 19 N -1.625850 1.544118 6.491282 0
M  V30 20 C -1.976837 0.460670 6.551266 0
M  V30 21 S -1.224373 -0.251595 4.929661 0
M  V30 22 C -0.500553 1.376195 4.507562 0
M  V30 23 C 0.254715 1.813262 3.446675 0
M  V30 24 N 1.704628 1.546983 0.870882 0
M  V30 25 C 2.318194 -1.211599 -1.516404 0
M  V30 26 C 2.076513 -2.532936 -1.754811 0
M  V30 27 C -1.661539 -4.656734 -1.985672 0
M  V30 28 C -2.818197 -3.990867 -1.648932 0
M  V30 29 C -3.622406 -3.482071 -2.627976 0
M  V30 30 Cl -5.120639 -2.611322 -2.410994 0
M  V30 31 C -3.134900 -3.716587 -3.990046 0
M  V30 32 Cl -3.940788 -3.186841 -5.496007 0
M  V30 33 S -1.531528 -4.668074 -3.704245 0
M  V30 34 H 1.915027 -5.205155 -1.417762 0
M  V30 35 H 0.260218 -3.213904 0.981649 0
M  V30 36 H 0.709589 -0.886677 1.361572 0
M  V30 37 H 3.286958 1.199970 -1.972762 0
M  V30 38 H 3.717852 3.536236 -1.557262 0
M  V30 39 H 1.695684 4.562171 2.362510 0
M  V30 40 H 0.610670 4.958267 4.392466 0
M  V30 41 H -0.700371 4.220547 6.244368 0
M  V30 42 H -2.616550 0.077403 7.443420 0
M  V30 43 H 0.437584 1.029517 2.752123 0
M  V30 44 H 2.906192 -0.749502 -2.283997 0
M  V30 45 H 2.434076 -3.076943 -2.625442 0
M  V30 46 H -3.082306 -3.875041 -0.609932 0
M  V30 END ATOM
M  V30 BEGIN BOND
M  V30 1 2 1 2
M  V30 2 2 2 3
M  V30 3 1 2 4
M  V30 4 1 4 5
M  V30 5 2 5 6
M  V30 6 1 6 7
M  V30 7 2 7 8
M  V30 8 1 8 9
M  V30 9 2 9 10
M  V30 10 1 10 11
M  V30 11 2 11 12
M  V30 12 1 12 13
M  V30 13 1 13 14
M  V30 14 1 14 15
M  V30 15 2 15 16
M  V30 16 1 16 17
M  V30 17 2 17 18
M  V30 18 1 18 19
M  V30 19 2 19 20
M  V30 20 1 20 21
M  V30 21 1 21 22
M  V30 22 2 22 23
M  V30 23 2 13 24
M  V30 24 1 8 25
M  V30 25 2 25 26
M  V30 26 1 2 27
M  V30 27 2 27 28
M  V30 28 1 28 29
M  V30 29 1 29 30
M  V30 30 2 29 31
M  V30 31 1 31 32
M  V30 32 1 31 33
M  V30 33 1 26 5
M  V30 34 1 33 27
M  V30 35 1 24 9
M  V30 36 1 23 15
M  V30 37 1 22 18
M  V30 38 1 4 34
M  V30 39 1 6 35
M  V30 40 1 7 36
M  V30 41 1 10 37
M  V30 42 1 11 38
M  V30 43 1 14 39
M  V30 44 1 16 40
M  V30 45 1 17 41
M  V30 46 1 20 42
M  V30 47 1 23 43
M  V30 48 1 25 44
M  V30 49 1 26 45
M  V30 50 1 28 46
M  V30 END BOND
M  V30 END CTAB
M  END
>  <Dataset>  (549) 
ChEMBL_Kinases

>  <Ligand_Instance>  (549) 
nan

>  <PDB_ID>  (549) 
nan

>  <Standardized_SMILES>  (549) 
O=S(=O)(Nc1ccc(-c2ccnc(Nc3ccc4ncsc4c3)n2)cc1)c1cc(Cl)c(Cl)s1

>  <Name>  (549) 
nan

>  <Pocket>  (549) 
nan

>  <ATP_Site>  (549) 
nan

>  <Peripheral>  (549) 
nan

>  <Num_H_Atoms_ProtBoundConf>  (549) 
nan

>  <Num_Resolved_Atoms>  (549) 
nan

>  <Num_Not_Resolved_Atoms>  (549) 
nan

$$$$
CHEMBL404645
     RDKit          3D

  0  0  0  0  0  0  0  0  0  0999 V3000
M  V30 BEGIN CTAB
M  V30 COUNTS 54 58 0 0 0
M  V30 BEGIN ATOM
M  V30 1 C 4.368382 -0.080721 3.759778 0
M  V30 2 C 3.198489 -0.958364 3.438890 0
M  V30 3 C 2.957152 -1.974457 4.528843 0
M  V30 4 C 3.389153 -1.714654 2.140108 0
M  V30 5 N 3.559669 -0.806772 1.019302 0
M  V30 6 C 4.696757 -0.294739 0.539315 0
M  V30 7 N 4.485949 0.521314 -0.516984 0
M  V30 8 C 3.133340 0.505542 -0.691860 0
M  V30 9 C 2.353709 1.154395 -1.617855 0
M  V30 10 C 0.990576 1.015211 -1.637471 0
M  V30 11 C 0.401282 0.197768 -0.695088 0
M  V30 12 C -1.032118 -0.096145 -0.518000 0
M  V30 13 N -1.925395 0.694998 0.098034 0
M  V30 14 C -3.154763 0.157686 0.107469 0
M  V30 15 C -4.405247 0.660082 0.659311 0
M  V30 16 C -4.523220 1.864821 1.313583 0
M  V30 17 F -3.437989 2.655940 1.473449 0
M  V30 18 C -5.712004 2.338534 1.836470 0
M  V30 19 C -6.850194 1.575971 1.704346 0
M  V30 20 C -6.784353 0.357933 1.055262 0
M  V30 21 C -5.566333 -0.073393 0.547557 0
M  V30 22 F -5.548202 -1.286064 -0.088283 0
M  V30 23 N -3.011640 -1.016271 -0.531302 0
M  V30 24 C -1.750944 -1.201743 -0.920802 0
M  V30 25 C -1.195510 -2.356745 -1.649219 0
M  V30 26 C -0.710320 -1.980227 -2.874187 0
M  V30 27 C -0.136608 -2.919790 -3.733930 0
M  V30 28 C -0.068279 -4.239691 -3.323011 0
M  V30 29 C -0.566842 -4.604207 -2.073969 0
M  V30 30 C -1.134527 -3.666420 -1.226322 0
M  V30 31 C 1.165479 -0.476376 0.260625 0
M  V30 32 C 2.554547 -0.311849 0.252276 0
M  V30 33 H 4.321979 0.144673 4.855695 0
M  V30 34 H 4.286621 0.910012 3.263782 0
M  V30 35 H 5.291761 -0.579147 3.468499 0
M  V30 36 H 2.302701 -0.302642 3.406246 0
M  V30 37 H 2.447866 -2.842826 4.073847 0
M  V30 38 H 2.288693 -1.545744 5.329305 0
M  V30 39 H 3.930677 -2.264003 4.990942 0
M  V30 40 H 4.315703 -2.306042 2.226878 0
M  V30 41 H 2.500276 -2.325660 1.938990 0
M  V30 42 H 5.697559 -0.492370 0.932431 0
M  V30 43 H 2.749825 1.810231 -2.385324 0
M  V30 44 H 0.277740 1.465659 -2.305028 0
M  V30 45 H -1.658651 1.610901 0.507896 0
M  V30 46 H -5.782931 3.293867 2.350794 0
M  V30 47 H -7.819653 1.884555 2.090199 0
M  V30 48 H -7.684989 -0.242783 0.952049 0
M  V30 49 H -0.697595 -0.993922 -3.321069 0
M  V30 50 H 0.280605 -2.756466 -4.718866 0
M  V30 51 H 0.365863 -5.033364 -3.939886 0
M  V30 52 H -0.533167 -5.627630 -1.713295 0
M  V30 53 H -1.539131 -3.841573 -0.263466 0
M  V30 54 H 0.809211 -1.130747 1.031750 0
M  V30 END ATOM
M  V30 BEGIN BOND
M  V30 1 1 1 2
M  V30 2 1 2 3
M  V30 3 1 2 4
M  V30 4 1 4 5
M  V30 5 1 5 6
M  V30 6 2 6 7
M  V30 7 1 7 8
M  V30 8 2 8 9
M  V30 9 1 9 10
M  V30 10 2 10 11
M  V30 11 1 11 12
M  V30 12 1 12 13
M  V30 13 1 13 14
M  V30 14 1 14 15
M  V30 15 2 15 16
M  V30 16 1 16 17
M  V30 17 1 16 18
M  V30 18 2 18 19
M  V30 19 1 19 20
M  V30 20 2 20 21
M  V30 21 1 21 22
M  V30 22 2 14 23
M  V30 23 1 23 24
M  V30 24 1 24 25
M  V30 25 2 25 26
M  V30 26 1 26 27
M  V30 27 2 27 28
M  V30 28 1 28 29
M  V30 29 2 29 30
M  V30 30 1 11 31
M  V30 31 2 31 32
M  V30 32 1 32 5
M  V30 33 1 32 8
M  V30 34 2 24 12
M  V30 35 1 30 25
M  V30 36 1 21 15
M  V30 37 1 1 33
M  V30 38 1 1 34
M  V30 39 1 1 35
M  V30 40 1 2 36
M  V30 41 1 3 37
M  V30 42 1 3 38
M  V30 43 1 3 39
M  V30 44 1 4 40
M  V30 45 1 4 41
M  V30 46 1 6 42
M  V30 47 1 9 43
M  V30 48 1 10 44
M  V30 49 1 13 45
M  V30 50 1 18 46
M  V30 51 1 19 47
M  V30 52 1 20 48
M  V30 53 1 26 49
M  V30 54 1 27 50
M  V30 55 1 28 51
M  V30 56 1 29 52
M  V30 57 1 30 53
M  V30 58 1 31 54
M  V30 END BOND
M  V30 END CTAB
M  END
>  <Dataset>  (550) 
ChEMBL_Kinases

>  <Ligand_Instance>  (550) 
nan

>  <PDB_ID>  (550) 
nan

>  <Standardized_SMILES>  (550) 
CC(C)Cn1cnc2ccc(-c3[nH]c(-c4c(F)cccc4F)nc3-c3ccccc3)cc21

>  <Name>  (550) 
nan

>  <Pocket>  (550) 
nan

>  <ATP_Site>  (550) 
nan

>  <Peripheral>  (550) 
nan

>  <Num_H_Atoms_ProtBoundConf>  (550) 
nan

>  <Num_Resolved_Atoms>  (550) 
nan

>  <Num_Not_Resolved_Atoms>  (550) 
nan

$$$$
CHEMBL404625
     RDKit          3D

  0  0  0  0  0  0  0  0  0  0999 V3000
M  V30 BEGIN CTAB
M  V30 COUNTS 46 49 0 0 0
M  V30 BEGIN ATOM
M  V30 1 C 0.775372 -3.847731 4.666482 0
M  V30 2 N 1.895913 -4.469897 3.968743 0
M  V30 3 C 3.011464 -3.553122 4.116021 0
M  V30 4 C 1.549604 -4.716694 2.583167 0
M  V30 5 C 1.205481 -3.459734 1.847337 0
M  V30 6 C 2.194757 -2.736767 1.187322 0
M  V30 7 C 1.887342 -1.577552 0.506976 0
M  V30 8 N 0.621719 -1.125032 0.470045 0
M  V30 9 C 0.052827 -0.047338 -0.105996 0
M  V30 10 C 0.760730 0.950461 -0.886416 0
M  V30 11 C 1.403173 0.524430 -2.036614 0
M  V30 12 C 2.114867 1.369226 -2.874309 0
M  V30 13 N 2.147397 2.659581 -2.497656 0
M  V30 14 C 1.536478 3.126506 -1.383375 0
M  V30 15 N 1.589509 4.502911 -1.009997 0
M  V30 16 N 0.846088 2.271484 -0.582546 0
M  V30 17 C -1.282221 -0.073277 0.177039 0
M  V30 18 C -2.319307 0.892126 -0.233617 0
M  V30 19 C -2.923122 1.494772 0.872479 0
M  V30 20 C -3.927788 2.434269 0.613953 0
M  V30 21 C -4.262850 2.710805 -0.695205 0
M  V30 22 F -5.234758 3.620614 -0.912606 0
M  V30 23 C -3.663750 2.113109 -1.784929 0
M  V30 24 C -2.669961 1.183494 -1.537861 0
M  V30 25 F -2.005473 0.527691 -2.509469 0
M  V30 26 N -1.475137 -1.177875 0.922329 0
M  V30 27 C -0.317088 -1.840819 1.115398 0
M  V30 28 C -0.118671 -3.010526 1.824199 0
M  V30 29 H 1.067645 -3.733530 5.717477 0
M  V30 30 H -0.161173 -4.429078 4.515288 0
M  V30 31 H 0.698789 -2.824071 4.243070 0
M  V30 32 H 2.984884 -3.245553 5.202114 0
M  V30 33 H 2.786194 -2.601891 3.575917 0
M  V30 34 H 3.986017 -3.984647 3.852234 0
M  V30 35 H 2.411547 -5.168731 2.081894 0
M  V30 36 H 0.656453 -5.384839 2.620252 0
M  V30 37 H 3.180751 -3.137317 1.246796 0
M  V30 38 H 2.707101 -1.051559 0.006826 0
M  V30 39 H 1.374292 -0.520575 -2.337389 0
M  V30 40 H 2.599967 0.989632 -3.762088 0
M  V30 41 H 2.199900 5.040104 -0.334607 0
M  V30 42 H 0.944257 5.240395 -1.415054 0
M  V30 43 H -2.687925 1.303724 1.889886 0
M  V30 44 H -4.415104 2.919315 1.460952 0
M  V30 45 H -3.924491 2.328094 -2.812421 0
M  V30 46 H -0.913399 -3.531059 2.315861 0
M  V30 END ATOM
M  V30 BEGIN BOND
M  V30 1 1 1 2
M  V30 2 1 2 3
M  V30 3 1 2 4
M  V30 4 1 4 5
M  V30 5 1 5 6
M  V30 6 2 6 7
M  V30 7 1 7 8
M  V30 8 1 8 9
M  V30 9 1 9 10
M  V30 10 2 10 11
M  V30 11 1 11 12
M  V30 12 2 12 13
M  V30 13 1 13 14
M  V30 14 1 14 15
M  V30 15 2 14 16
M  V30 16 2 9 17
M  V30 17 1 17 18
M  V30 18 2 18 19
M  V30 19 1 19 20
M  V30 20 2 20 21
M  V30 21 1 21 22
M  V30 22 1 21 23
M  V30 23 2 23 24
M  V30 24 1 24 25
M  V30 25 1 17 26
M  V30 26 2 26 27
M  V30 27 1 27 28
M  V30 28 2 28 5
M  V30 29 1 27 8
M  V30 30 1 16 10
M  V30 31 1 24 18
M  V30 32 1 1 29
M  V30 33 1 1 30
M  V30 34 1 1 31
M  V30 35 1 3 32
M  V30 36 1 3 33
M  V30 37 1 3 34
M  V30 38 1 4 35
M  V30 39 1 4 36
M  V30 40 1 6 37
M  V30 41 1 7 38
M  V30 42 1 11 39
M  V30 43 1 12 40
M  V30 44 1 15 41
M  V30 45 1 15 42
M  V30 46 1 19 43
M  V30 47 1 20 44
M  V30 48 1 23 45
M  V30 49 1 28 46
M  V30 END BOND
M  V30 END CTAB
M  END
>  <Dataset>  (551) 
ChEMBL_Kinases

>  <Ligand_Instance>  (551) 
nan

>  <PDB_ID>  (551) 
nan

>  <Standardized_SMILES>  (551) 
CN(C)Cc1ccn2c(-c3ccnc(N)n3)c(-c3ccc(F)cc3F)nc2c1

>  <Name>  (551) 
nan

>  <Pocket>  (551) 
nan

>  <ATP_Site>  (551) 
nan

>  <Peripheral>  (551) 
nan

>  <Num_H_Atoms_ProtBoundConf>  (551) 
nan

>  <Num_Resolved_Atoms>  (551) 
nan

>  <Num_Not_Resolved_Atoms>  (551) 
nan

$$$$
CHEMBL404609
     RDKit          3D

  0  0  0  0  0  0  0  0  0  0999 V3000
M  V30 BEGIN CTAB
M  V30 COUNTS 29 30 0 0 0
M  V30 BEGIN ATOM
M  V30 1 N 2.862316 -4.211599 3.962305 0
M  V30 2 C 2.375160 -3.115018 3.168591 0
M  V30 3 O 3.112092 -2.125564 2.977614 0
M  V30 4 N 1.072087 -3.220550 2.642351 0
M  V30 5 C 0.610241 -2.107238 1.851161 0
M  V30 6 S 0.810150 -1.922983 0.057422 0
M  V30 7 C -0.008550 -0.355191 -0.043679 0
M  V30 8 C -0.176182 0.350782 -1.299072 0
M  V30 9 C 0.325180 -0.232910 -2.444690 0
M  V30 10 C 0.162136 0.449138 -3.651423 0
M  V30 11 C -0.497197 1.674781 -3.614394 0
M  V30 12 C -0.999803 2.253481 -2.445225 0
M  V30 13 C -0.831685 1.564271 -1.246082 0
M  V30 14 C -0.363237 -0.080723 1.210419 0
M  V30 15 C -0.074551 -0.942726 2.237470 0
M  V30 16 C -0.427309 -0.716862 3.635661 0
M  V30 17 N -1.117739 0.450760 4.046553 0
M  V30 18 O -0.106678 -1.578364 4.468209 0
M  V30 19 H 3.415059 -5.115492 3.969464 0
M  V30 20 H 2.552153 -4.087564 4.964129 0
M  V30 21 H 0.433450 -4.015701 2.775096 0
M  V30 22 H 0.831348 -1.175478 -2.467855 0
M  V30 23 H 0.527981 0.054086 -4.586456 0
M  V30 24 H -0.655364 2.258335 -4.534457 0
M  V30 25 H -1.502452 3.209321 -2.485813 0
M  V30 26 H -1.213818 2.002926 -0.352832 0
M  V30 27 H -0.888668 0.855894 1.368614 0
M  V30 28 H -2.109666 0.795298 3.980475 0
M  V30 29 H -0.393555 1.032492 4.505139 0
M  V30 END ATOM
M  V30 BEGIN BOND
M  V30 1 1 1 2
M  V30 2 2 2 3
M  V30 3 1 2 4
M  V30 4 1 4 5
M  V30 5 1 5 6
M  V30 6 1 6 7
M  V30 7 1 7 8
M  V30 8 2 8 9
M  V30 9 1 9 10
M  V30 10 2 10 11
M  V30 11 1 11 12
M  V30 12 2 12 13
M  V30 13 2 7 14
M  V30 14 1 14 15
M  V30 15 1 15 16
M  V30 16 1 16 17
M  V30 17 2 16 18
M  V30 18 2 15 5
M  V30 19 1 13 8
M  V30 20 1 1 19
M  V30 21 1 1 20
M  V30 22 1 4 21
M  V30 23 1 9 22
M  V30 24 1 10 23
M  V30 25 1 11 24
M  V30 26 1 12 25
M  V30 27 1 13 26
M  V30 28 1 14 27
M  V30 29 1 17 28
M  V30 30 1 17 29
M  V30 END BOND
M  V30 END CTAB
M  END
>  <Dataset>  (552) 
ChEMBL_Kinases

>  <Ligand_Instance>  (552) 
nan

>  <PDB_ID>  (552) 
nan

>  <Standardized_SMILES>  (552) 
NC(=O)Nc1sc(-c2ccccc2)cc1C(N)=O

>  <Name>  (552) 
nan

>  <Pocket>  (552) 
nan

>  <ATP_Site>  (552) 
nan

>  <Peripheral>  (552) 
nan

>  <Num_H_Atoms_ProtBoundConf>  (552) 
nan

>  <Num_Resolved_Atoms>  (552) 
nan

>  <Num_Not_Resolved_Atoms>  (552) 
nan

$$$$
CHEMBL97227
     RDKit          3D

  0  0  0  0  0  0  0  0  0  0999 V3000
M  V30 BEGIN CTAB
M  V30 COUNTS 56 60 0 0 0
M  V30 BEGIN ATOM
M  V30 1 O 2.516012 -4.869997 -0.306317 0
M  V30 2 C 2.335811 -3.658393 0.019977 0
M  V30 3 N 3.376547 -2.939850 0.668762 0
M  V30 4 C 3.282501 -1.577546 1.078729 0
M  V30 5 C 1.978719 -0.957459 0.765043 0
M  V30 6 C 1.798172 0.363204 1.126971 0
M  V30 7 C 2.817298 1.171363 1.796462 0
M  V30 8 C 2.964040 1.273707 3.166710 0
M  V30 9 C 3.945657 2.052830 3.741975 0
M  V30 10 C 4.788852 2.737024 2.878319 0
M  V30 11 C 4.710597 2.689368 1.518396 0
M  V30 12 C 3.704275 1.889938 0.992045 0
M  V30 13 Cl 3.613182 1.836515 -0.776991 0
M  V30 14 C 0.575701 0.931302 0.828598 0
M  V30 15 C -0.499889 0.298414 0.194227 0
M  V30 16 C -1.741583 1.072773 -0.050721 0
M  V30 17 N -2.689639 1.057076 1.005022 0
M  V30 18 C -3.204639 -0.214092 1.395665 0
M  V30 19 C -4.540502 -0.532643 0.755506 0
M  V30 20 N -4.647559 -0.003236 -0.575666 0
M  V30 21 C -4.486550 1.414854 -0.631302 0
M  V30 22 C -3.804591 1.899568 0.614668 0
M  V30 23 C -0.258588 -1.017490 -0.142255 0
M  V30 24 C 0.947192 -1.625806 0.136398 0
M  V30 25 N 1.102518 -2.990830 -0.250126 0
M  V30 26 C 0.094466 -3.763808 -0.903839 0
M  V30 27 C 0.007546 -3.804715 -2.298169 0
M  V30 28 Cl 1.145442 -2.899154 -3.274037 0
M  V30 29 C -0.983501 -4.565656 -2.889950 0
M  V30 30 C -1.911646 -5.303210 -2.149759 0
M  V30 31 C -1.824205 -5.261924 -0.754075 0
M  V30 32 C -0.814686 -4.486248 -0.179935 0
M  V30 33 Cl -0.737427 -4.459716 1.570336 0
M  V30 34 H 4.317310 -3.368911 0.901112 0
M  V30 35 H 3.476575 -1.563317 2.189053 0
M  V30 36 H 4.064227 -0.923850 0.613854 0
M  V30 37 H 2.276113 0.716410 3.788776 0
M  V30 38 H 4.040187 2.116530 4.825952 0
M  V30 39 H 5.577269 3.363142 3.309745 0
M  V30 40 H 5.394466 3.243507 0.889127 0
M  V30 41 H 0.431544 1.974298 1.113807 0
M  V30 42 H -2.180566 0.797456 -1.049441 0
M  V30 43 H -1.417177 2.138734 -0.200963 0
M  V30 44 H -3.427977 -0.191356 2.506310 0
M  V30 45 H -2.526336 -1.060783 1.176403 0
M  V30 46 H -5.389576 -0.210981 1.395114 0
M  V30 47 H -4.625434 -1.635975 0.692607 0
M  V30 48 H -4.147985 -0.550692 -1.286936 0
M  V30 49 H -5.493197 1.886013 -0.679427 0
M  V30 50 H -3.938541 1.681343 -1.575680 0
M  V30 51 H -3.435849 2.946147 0.411783 0
M  V30 52 H -4.576517 1.953915 1.409088 0
M  V30 53 H -1.065583 -1.537866 -0.637669 0
M  V30 54 H -1.088254 -4.626255 -3.982953 0
M  V30 55 H -2.685857 -5.897338 -2.628685 0
M  V30 56 H -2.514863 -5.812199 -0.128800 0
M  V30 END ATOM
M  V30 BEGIN BOND
M  V30 1 2 1 2
M  V30 2 1 2 3
M  V30 3 1 3 4
M  V30 4 1 4 5
M  V30 5 2 5 6
M  V30 6 1 6 7
M  V30 7 2 7 8
M  V30 8 1 8 9
M  V30 9 2 9 10
M  V30 10 1 10 11
M  V30 11 2 11 12
M  V30 12 1 12 13
M  V30 13 1 6 14
M  V30 14 2 14 15
M  V30 15 1 15 16
M  V30 16 1 16 17
M  V30 17 1 17 18
M  V30 18 1 18 19
M  V30 19 1 19 20
M  V30 20 1 20 21
M  V30 21 1 21 22
M  V30 22 1 15 23
M  V30 23 2 23 24
M  V30 24 1 24 25
M  V30 25 1 25 26
M  V30 26 2 26 27
M  V30 27 1 27 28
M  V30 28 1 27 29
M  V30 29 2 29 30
M  V30 30 1 30 31
M  V30 31 2 31 32
M  V30 32 1 32 33
M  V30 33 1 25 2
M  V30 34 1 32 26
M  V30 35 1 24 5
M  V30 36 1 12 7
M  V30 37 1 22 17
M  V30 38 1 3 34
M  V30 39 1 4 35
M  V30 40 1 4 36
M  V30 41 1 8 37
M  V30 42 1 9 38
M  V30 43 1 10 39
M  V30 44 1 11 40
M  V30 45 1 14 41
M  V30 46 1 16 42
M  V30 47 1 16 43
M  V30 48 1 18 44
M  V30 49 1 18 45
M  V30 50 1 19 46
M  V30 51 1 19 47
M  V30 52 1 20 48
M  V30 53 1 21 49
M  V30 54 1 21 50
M  V30 55 1 22 51
M  V30 56 1 22 52
M  V30 57 1 23 53
M  V30 58 1 29 54
M  V30 59 1 30 55
M  V30 60 1 31 56
M  V30 END BOND
M  V30 END CTAB
M  END
>  <Dataset>  (553) 
ChEMBL_Kinases

>  <Ligand_Instance>  (553) 
nan

>  <PDB_ID>  (553) 
nan

>  <Standardized_SMILES>  (553) 
O=C1NCc2c(-c3ccccc3Cl)cc(CN3CCNCC3)cc2N1c1c(Cl)cccc1Cl

>  <Name>  (553) 
nan

>  <Pocket>  (553) 
nan

>  <ATP_Site>  (553) 
nan

>  <Peripheral>  (553) 
nan

>  <Num_H_Atoms_ProtBoundConf>  (553) 
nan

>  <Num_Resolved_Atoms>  (553) 
nan

>  <Num_Not_Resolved_Atoms>  (553) 
nan

$$$$
CHEMBL4864180
     RDKit          3D

  0  0  0  0  0  0  0  0  0  0999 V3000
M  V30 BEGIN CTAB
M  V30 COUNTS 49 51 0 0 0
M  V30 BEGIN ATOM
M  V30 1 C -1.608825 -1.604911 -0.951105 0
M  V30 2 N -0.956416 -2.828689 -0.485680 0
M  V30 3 C 0.446116 -3.038281 -0.423315 0
M  V30 4 N 1.294245 -2.095100 -0.803955 0
M  V30 5 C 2.633507 -2.179340 -0.807789 0
M  V30 6 N 3.350362 -1.035607 -1.251303 0
M  V30 7 C 2.740521 0.226686 -1.379414 0
M  V30 8 C 2.945694 1.176155 -2.355997 0
M  V30 9 N 2.284932 2.340857 -2.236561 0
M  V30 10 C 1.442552 2.637058 -1.231200 0
M  V30 11 C 0.808354 3.923540 -1.239444 0
M  V30 12 N 0.281221 4.963020 -1.258149 0
M  V30 13 C 1.188917 1.717333 -0.203049 0
M  V30 14 O 0.320744 2.037927 0.829815 0
M  V30 15 C 0.115664 1.077274 1.844833 0
M  V30 16 C -0.838920 1.526674 2.920701 0 CFG=2
M  V30 17 C -0.953606 0.408406 3.938584 0
M  V30 18 C -1.596872 -0.774960 3.252147 0
M  V30 19 C -2.854341 -0.358671 2.543104 0
M  V30 20 N -3.211735 1.034298 2.830861 0
M  V30 21 C -2.146455 1.889765 2.295464 0
M  V30 22 C 1.869602 0.511710 -0.324826 0
M  V30 23 N 3.192230 -3.325014 -0.386949 0
M  V30 24 C 2.398930 -4.356839 0.027100 0
M  V30 25 C 1.021505 -4.220556 0.011924 0
M  V30 26 C 0.148555 -5.336756 0.458824 0
M  V30 27 F 0.889857 -6.432579 0.856384 0
M  V30 28 F -0.707594 -5.719352 -0.563309 0
M  V30 29 F -0.649638 -4.901171 1.502902 0
M  V30 30 H -1.090642 -0.687599 -0.661842 0
M  V30 31 H -1.655145 -1.624284 -2.076372 0
M  V30 32 H -2.656447 -1.610188 -0.609709 0
M  V30 33 H -1.567485 -3.633298 -0.165960 0
M  V30 34 H 4.369931 -1.237518 -1.468881 0
M  V30 35 H 3.628506 0.893795 -3.139275 0
M  V30 36 H 1.102137 0.835156 2.317160 0
M  V30 37 H -0.201066 0.136321 1.362113 0
M  V30 38 H -0.345583 2.403506 3.414663 0
M  V30 39 H 0.089966 0.111693 4.215777 0
M  V30 40 H -1.532629 0.728586 4.827528 0
M  V30 41 H -1.888595 -1.505833 4.056601 0
M  V30 42 H -0.864069 -1.307522 2.626213 0
M  V30 43 H -2.759642 -0.401131 1.439874 0
M  V30 44 H -3.712444 -1.006183 2.800834 0
M  V30 45 H -4.060173 1.232035 2.248145 0
M  V30 46 H -2.379485 2.949241 2.582630 0
M  V30 47 H -2.176540 1.795962 1.186631 0
M  V30 48 H 1.625671 -0.151893 0.506533 0
M  V30 49 H 2.817527 -5.291172 0.372336 0
M  V30 END ATOM
M  V30 BEGIN BOND
M  V30 1 1 1 2
M  V30 2 1 2 3
M  V30 3 2 3 4
M  V30 4 1 4 5
M  V30 5 1 5 6
M  V30 6 1 6 7
M  V30 7 2 7 8
M  V30 8 1 8 9
M  V30 9 2 9 10
M  V30 10 1 10 11
M  V30 11 3 11 12
M  V30 12 1 10 13
M  V30 13 1 13 14
M  V30 14 1 14 15
M  V30 15 1 15 16
M  V30 16 1 16 17
M  V30 17 1 17 18
M  V30 18 1 18 19
M  V30 19 1 19 20
M  V30 20 1 20 21
M  V30 21 2 13 22
M  V30 22 2 5 23
M  V30 23 1 23 24
M  V30 24 2 24 25
M  V30 25 1 25 26
M  V30 26 1 26 27
M  V30 27 1 26 28
M  V30 28 1 26 29
M  V30 29 1 25 3
M  V30 30 1 22 7
M  V30 31 1 21 16
M  V30 32 1 1 30
M  V30 33 1 1 31
M  V30 34 1 1 32
M  V30 35 1 2 33
M  V30 36 1 6 34
M  V30 37 1 8 35
M  V30 38 1 15 36
M  V30 39 1 15 37
M  V30 40 1 16 38 CFG=1
M  V30 41 1 17 39
M  V30 42 1 17 40
M  V30 43 1 18 41
M  V30 44 1 18 42
M  V30 45 1 19 43
M  V30 46 1 19 44
M  V30 47 1 20 45
M  V30 48 1 21 46
M  V30 49 1 21 47
M  V30 50 1 22 48
M  V30 51 1 24 49
M  V30 END BOND
M  V30 END CTAB
M  END
>  <Dataset>  (554) 
ChEMBL_Kinases

>  <Ligand_Instance>  (554) 
nan

>  <PDB_ID>  (554) 
nan

>  <Standardized_SMILES>  (554) 
CNc1nc(Nc2cnc(C#N)c(OC[C@@H]3CCCNC3)c2)ncc1C(F)(F)F

>  <Name>  (554) 
nan

>  <Pocket>  (554) 
nan

>  <ATP_Site>  (554) 
nan

>  <Peripheral>  (554) 
nan

>  <Num_H_Atoms_ProtBoundConf>  (554) 
nan

>  <Num_Resolved_Atoms>  (554) 
nan

>  <Num_Not_Resolved_Atoms>  (554) 
nan

$$$$
CHEMBL4864190
     RDKit          3D

  0  0  0  0  0  0  0  0  0  0999 V3000
M  V30 BEGIN CTAB
M  V30 COUNTS 54 58 0 0 0
M  V30 BEGIN ATOM
M  V30 1 C 0.268105 -3.633830 6.394529 0
M  V30 2 N 0.513738 -3.484161 4.978894 0
M  V30 3 C 1.879945 -3.548967 4.615161 0
M  V30 4 C 2.275843 -2.865180 3.369383 0
M  V30 5 N 1.584531 -1.658308 3.066893 0
M  V30 6 C 1.728061 -0.987240 1.823122 0
M  V30 7 C 1.096658 0.190803 1.484575 0
M  V30 8 C 1.302058 0.755953 0.242865 0
M  V30 9 C 2.143505 0.139339 -0.666202 0
M  V30 10 N 2.209667 0.882771 -1.905138 0
M  V30 11 C 3.089013 1.712213 -2.464301 0
M  V30 12 C 2.528261 2.091388 -3.682141 0
M  V30 13 C 1.299546 1.476533 -3.843866 0
M  V30 14 C 0.396883 1.558356 -4.883146 0
M  V30 15 N -0.732553 0.836630 -4.757980 0
M  V30 16 C -0.962062 0.079335 -3.676852 0
M  V30 17 N -2.059727 -0.742080 -3.324624 0
M  V30 18 C -3.104784 -0.313422 -2.460595 0
M  V30 19 C -2.992951 0.948059 -1.915491 0
M  V30 20 C -3.965486 1.415478 -1.070000 0
M  V30 21 F -3.959726 2.623773 -0.481066 0
M  V30 22 C -5.041667 0.581245 -0.794604 0
M  V30 23 O -6.072473 0.964514 0.047020 0
M  V30 24 C -5.133041 -0.665598 -1.345865 0
M  V30 25 F -6.173790 -1.496181 -1.091913 0
M  V30 26 C -4.155822 -1.169148 -2.212008 0
M  V30 27 N -0.051833 0.034200 -2.693641 0
M  V30 28 C 1.115710 0.705617 -2.692174 0
M  V30 29 C 2.785875 -1.039487 -0.348664 0
M  V30 30 C 2.574961 -1.596631 0.894320 0
M  V30 31 C 0.761154 -1.269647 4.181429 0
M  V30 32 C -0.227161 -2.396199 4.396887 0
M  V30 33 H 0.030847 -4.691028 6.581840 0
M  V30 34 H -0.649007 -3.047476 6.652084 0
M  V30 35 H 1.084452 -3.228736 7.011177 0
M  V30 36 H 2.476337 -3.090425 5.453701 0
M  V30 37 H 2.162235 -4.629952 4.578067 0
M  V30 38 H 3.382135 -2.679752 3.329910 0
M  V30 39 H 2.085578 -3.563782 2.501998 0
M  V30 40 H 0.446680 0.656078 2.198798 0
M  V30 41 H 0.757911 1.688935 0.068490 0
M  V30 42 H 4.005668 1.945458 -1.954558 0
M  V30 43 H 3.033195 2.768266 -4.351862 0
M  V30 44 H 0.552104 2.157872 -5.766053 0
M  V30 45 H -2.066801 -1.719473 -3.746474 0
M  V30 46 H -2.166265 1.619390 -2.111659 0
M  V30 47 H -6.284510 0.440702 0.892273 0
M  V30 48 H -4.245446 -2.158905 -2.638874 0
M  V30 49 H 3.413653 -1.424078 -1.132408 0
M  V30 50 H 3.119668 -2.519736 1.052815 0
M  V30 51 H 1.313923 -1.063910 5.116227 0
M  V30 52 H 0.197492 -0.356522 3.924932 0
M  V30 53 H -0.988626 -2.074014 5.125946 0
M  V30 54 H -0.690701 -2.682490 3.437527 0
M  V30 END ATOM
M  V30 BEGIN BOND
M  V30 1 1 1 2
M  V30 2 1 2 3
M  V30 3 1 3 4
M  V30 4 1 4 5
M  V30 5 1 5 6
M  V30 6 2 6 7
M  V30 7 1 7 8
M  V30 8 2 8 9
M  V30 9 1 9 10
M  V30 10 1 10 11
M  V30 11 2 11 12
M  V30 12 1 12 13
M  V30 13 2 13 14
M  V30 14 1 14 15
M  V30 15 2 15 16
M  V30 16 1 16 17
M  V30 17 1 17 18
M  V30 18 2 18 19
M  V30 19 1 19 20
M  V30 20 1 20 21
M  V30 21 2 20 22
M  V30 22 1 22 23
M  V30 23 1 22 24
M  V30 24 1 24 25
M  V30 25 2 24 26
M  V30 26 1 16 27
M  V30 27 2 27 28
M  V30 28 1 9 29
M  V30 29 2 29 30
M  V30 30 1 5 31
M  V30 31 1 31 32
M  V30 32 1 32 2
M  V30 33 1 30 6
M  V30 34 1 28 10
M  V30 35 1 28 13
M  V30 36 1 26 18
M  V30 37 1 1 33
M  V30 38 1 1 34
M  V30 39 1 1 35
M  V30 40 1 3 36
M  V30 41 1 3 37
M  V30 42 1 4 38
M  V30 43 1 4 39
M  V30 44 1 7 40
M  V30 45 1 8 41
M  V30 46 1 11 42
M  V30 47 1 12 43
M  V30 48 1 14 44
M  V30 49 1 17 45
M  V30 50 1 19 46
M  V30 51 1 23 47
M  V30 52 1 26 48
M  V30 53 1 29 49
M  V30 54 1 30 50
M  V30 55 1 31 51
M  V30 56 1 31 52
M  V30 57 1 32 53
M  V30 58 1 32 54
M  V30 END BOND
M  V30 END CTAB
M  END
>  <Dataset>  (555) 
ChEMBL_Kinases

>  <Ligand_Instance>  (555) 
nan

>  <PDB_ID>  (555) 
nan

>  <Standardized_SMILES>  (555) 
CN1CCN(c2ccc(-n3ccc4cnc(Nc5cc(F)c(O)c(F)c5)nc43)cc2)CC1

>  <Name>  (555) 
nan

>  <Pocket>  (555) 
nan

>  <ATP_Site>  (555) 
nan

>  <Peripheral>  (555) 
nan

>  <Num_H_Atoms_ProtBoundConf>  (555) 
nan

>  <Num_Resolved_Atoms>  (555) 
nan

>  <Num_Not_Resolved_Atoms>  (555) 
nan

$$$$
CHEMBL404547
     RDKit          3D

  0  0  0  0  0  0  0  0  0  0999 V3000
M  V30 BEGIN CTAB
M  V30 COUNTS 54 59 0 0 0
M  V30 BEGIN ATOM
M  V30 1 N -0.698457 -6.830021 -0.798256 0
M  V30 2 C -0.458531 -5.595300 -0.123225 0
M  V30 3 N -0.349290 -5.414048 1.209391 0
M  V30 4 C -0.120204 -4.099740 1.492134 0
M  V30 5 C 0.068159 -3.360644 2.641935 0
M  V30 6 C 0.280626 -2.001978 2.525886 0
M  V30 7 C 0.311477 -1.352468 1.293221 0
M  V30 8 C 0.550014 0.080036 1.410744 0
M  V30 9 N 1.554630 0.855559 0.967902 0
M  V30 10 C 1.347647 2.136018 1.315944 0
M  V30 11 C 2.140861 3.333599 1.070222 0
M  V30 12 C 1.743222 4.590479 1.525246 0
M  V30 13 F 0.591109 4.675808 2.208712 0
M  V30 14 C 2.488360 5.728163 1.296307 0
M  V30 15 C 3.673981 5.650474 0.595010 0
M  V30 16 C 4.114837 4.428971 0.121238 0
M  V30 17 C 3.332039 3.319287 0.376949 0
M  V30 18 F 3.823269 2.161409 -0.114791 0
M  V30 19 N 0.186253 2.149908 1.990207 0
M  V30 20 C -0.331822 0.911396 2.069010 0
M  V30 21 C -1.593512 0.690146 2.758991 0
M  V30 22 C -1.932284 0.902321 4.068277 0
M  V30 23 C -3.205305 0.619977 4.515520 0
M  V30 24 C -4.186745 0.119113 3.687118 0
M  V30 25 C -3.844086 -0.098353 2.351112 0
M  V30 26 C -2.558440 0.182797 1.882831 0
M  V30 27 C 0.122383 -2.098293 0.150185 0
M  V30 28 C -0.091775 -3.464768 0.258688 0
M  V30 29 N -0.298647 -4.384116 -0.716099 0
M  V30 30 C -0.334532 -4.088985 -2.109756 0
M  V30 31 C -1.386579 -3.221732 -2.398008 0
M  V30 32 C -1.633264 -2.782132 -3.696600 0
M  V30 33 C -0.802195 -3.230578 -4.702731 0
M  V30 34 C 0.236812 -4.088130 -4.412391 0
M  V30 35 C 0.480445 -4.521545 -3.133538 0
M  V30 36 H -0.149330 -7.124263 -1.631650 0
M  V30 37 H -1.411162 -7.560610 -0.564480 0
M  V30 38 H 0.041736 -3.879113 3.594965 0
M  V30 39 H 0.419370 -1.499227 3.484138 0
M  V30 40 H 2.356729 0.503261 0.441183 0
M  V30 41 H 2.104658 6.681881 1.689107 0
M  V30 42 H 4.215662 6.583693 0.447615 0
M  V30 43 H 5.043663 4.376662 -0.426664 0
M  V30 44 H -1.114234 1.294089 4.652793 0
M  V30 45 H -3.411587 0.810559 5.567072 0
M  V30 46 H -5.176414 -0.091432 4.071839 0
M  V30 47 H -4.617793 -0.487692 1.720473 0
M  V30 48 H -2.431435 -0.030181 0.839284 0
M  V30 49 H 0.158547 -1.539725 -0.750925 0
M  V30 50 H -2.106776 -2.803422 -1.681061 0
M  V30 51 H -2.440200 -2.109459 -3.955145 0
M  V30 52 H -0.973010 -2.902760 -5.723940 0
M  V30 53 H 0.906453 -4.460831 -5.162857 0
M  V30 54 H 1.255627 -5.187513 -2.780434 0
M  V30 END ATOM
M  V30 BEGIN BOND
M  V30 1 1 1 2
M  V30 2 2 2 3
M  V30 3 1 3 4
M  V30 4 2 4 5
M  V30 5 1 5 6
M  V30 6 2 6 7
M  V30 7 1 7 8
M  V30 8 1 8 9
M  V30 9 1 9 10
M  V30 10 1 10 11
M  V30 11 2 11 12
M  V30 12 1 12 13
M  V30 13 1 12 14
M  V30 14 2 14 15
M  V30 15 1 15 16
M  V30 16 2 16 17
M  V30 17 1 17 18
M  V30 18 2 10 19
M  V30 19 1 19 20
M  V30 20 1 20 21
M  V30 21 2 21 22
M  V30 22 1 22 23
M  V30 23 2 23 24
M  V30 24 1 24 25
M  V30 25 2 25 26
M  V30 26 1 7 27
M  V30 27 2 27 28
M  V30 28 1 28 29
M  V30 29 1 29 30
M  V30 30 2 30 31
M  V30 31 1 31 32
M  V30 32 2 32 33
M  V30 33 1 33 34
M  V30 34 2 34 35
M  V30 35 1 29 2
M  V30 36 1 35 30
M  V30 37 1 28 4
M  V30 38 2 20 8
M  V30 39 1 26 21
M  V30 40 1 17 11
M  V30 41 1 1 36
M  V30 42 1 1 37
M  V30 43 1 5 38
M  V30 44 1 6 39
M  V30 45 1 9 40
M  V30 46 1 14 41
M  V30 47 1 15 42
M  V30 48 1 16 43
M  V30 49 1 22 44
M  V30 50 1 23 45
M  V30 51 1 24 46
M  V30 52 1 25 47
M  V30 53 1 26 48
M  V30 54 1 27 49
M  V30 55 1 31 50
M  V30 56 1 32 51
M  V30 57 1 33 52
M  V30 58 1 34 53
M  V30 59 1 35 54
M  V30 END BOND
M  V30 END CTAB
M  END
>  <Dataset>  (556) 
ChEMBL_Kinases

>  <Ligand_Instance>  (556) 
nan

>  <PDB_ID>  (556) 
nan

>  <Standardized_SMILES>  (556) 
Nc1nc2ccc(-c3[nH]c(-c4c(F)cccc4F)nc3-c3ccccc3)cc2n1-c1ccccc1

>  <Name>  (556) 
nan

>  <Pocket>  (556) 
nan

>  <ATP_Site>  (556) 
nan

>  <Peripheral>  (556) 
nan

>  <Num_H_Atoms_ProtBoundConf>  (556) 
nan

>  <Num_Resolved_Atoms>  (556) 
nan

>  <Num_Not_Resolved_Atoms>  (556) 
nan

$$$$
CHEMBL404508
     RDKit          3D

  0  0  0  0  0  0  0  0  0  0999 V3000
M  V30 BEGIN CTAB
M  V30 COUNTS 48 52 0 0 0
M  V30 BEGIN ATOM
M  V30 1 O -1.399057 -3.565521 0.196030 0
M  V30 2 C -1.476912 -4.446275 1.084700 0
M  V30 3 C -0.168265 -5.046913 1.433778 0
M  V30 4 C 0.973764 -4.358176 0.741943 0
M  V30 5 C 1.112536 -2.944525 1.186345 0
M  V30 6 C 2.237079 -2.213023 0.428827 0
M  V30 7 C 2.232696 -0.800809 0.928382 0
M  V30 8 C 3.147458 -0.084587 1.669657 0
M  V30 9 N 2.616167 1.133533 1.826140 0
M  V30 10 N 1.455852 1.214587 1.241279 0
M  V30 11 C 0.604211 2.275083 1.174243 0
M  V30 12 N 0.777291 3.564986 1.733117 0
M  V30 13 C 1.427068 4.612750 2.456764 0
M  V30 14 C 2.656624 5.268517 1.951345 0
M  V30 15 C 2.779702 4.356064 3.110948 0
M  V30 16 N -0.513386 1.985266 0.480907 0
M  V30 17 C -0.785176 0.806757 -0.086652 0
M  V30 18 N 0.074600 -0.220528 -0.003391 0
M  V30 19 C 1.192723 0.027785 0.675546 0
M  V30 20 N -2.041331 0.737285 -0.771649 0
M  V30 21 C -2.656884 -0.526263 -0.991615 0
M  V30 22 C -3.460110 -0.833112 -2.081791 0
M  V30 23 C -4.003351 -2.092150 -2.231001 0
M  V30 24 C -3.789375 -3.110676 -1.326213 0
M  V30 25 C -2.991990 -2.805254 -0.245125 0
M  V30 26 C -2.453701 -1.529179 -0.110037 0
M  V30 27 N -2.713362 -3.843970 0.720326 0
M  V30 28 H -0.164180 -6.144631 1.276699 0
M  V30 29 H -0.030437 -4.904636 2.543890 0
M  V30 30 H 1.896015 -4.965625 0.949547 0
M  V30 31 H 0.760747 -4.445481 -0.358279 0
M  V30 32 H 0.239294 -2.338428 1.028243 0
M  V30 33 H 1.444829 -2.961880 2.261372 0
M  V30 34 H 3.158489 -2.743742 0.690872 0
M  V30 35 H 2.050675 -2.293188 -0.650420 0
M  V30 36 H 4.097894 -0.444860 2.043150 0
M  V30 37 H -0.048236 4.172031 1.459905 0
M  V30 38 H 0.762527 5.208810 3.147891 0
M  V30 39 H 2.783043 6.358017 2.222398 0
M  V30 40 H 3.112505 5.000380 0.998018 0
M  V30 41 H 3.343997 3.446755 2.962028 0
M  V30 42 H 2.943160 4.780113 4.138842 0
M  V30 43 H -2.572326 1.550419 -1.143407 0
M  V30 44 H -3.631984 -0.036496 -2.796030 0
M  V30 45 H -4.630206 -2.338445 -3.077348 0
M  V30 46 H -4.158370 -4.110254 -1.339438 0
M  V30 47 H -1.853749 -1.356903 0.770021 0
M  V30 48 H -3.594531 -4.160819 1.173967 0
M  V30 END ATOM
M  V30 BEGIN BOND
M  V30 1 2 1 2
M  V30 2 1 2 3
M  V30 3 1 3 4
M  V30 4 1 4 5
M  V30 5 1 5 6
M  V30 6 1 6 7
M  V30 7 1 7 8
M  V30 8 2 8 9
M  V30 9 1 9 10
M  V30 10 1 10 11
M  V30 11 1 11 12
M  V30 12 1 12 13
M  V30 13 1 13 14
M  V30 14 1 14 15
M  V30 15 2 11 16
M  V30 16 1 16 17
M  V30 17 2 17 18
M  V30 18 1 18 19
M  V30 19 1 17 20
M  V30 20 1 20 21
M  V30 21 1 21 22
M  V30 22 2 22 23
M  V30 23 1 23 24
M  V30 24 2 24 25
M  V30 25 1 25 26
M  V30 26 1 25 27
M  V30 27 1 27 2
M  V30 28 2 19 7
M  V30 29 2 26 21
M  V30 30 1 19 10
M  V30 31 1 15 13
M  V30 32 1 3 28
M  V30 33 1 3 29
M  V30 34 1 4 30
M  V30 35 1 4 31
M  V30 36 1 5 32
M  V30 37 1 5 33
M  V30 38 1 6 34
M  V30 39 1 6 35
M  V30 40 1 8 36
M  V30 41 1 12 37
M  V30 42 1 13 38
M  V30 43 1 14 39
M  V30 44 1 14 40
M  V30 45 1 15 41
M  V30 46 1 15 42
M  V30 47 1 20 43
M  V30 48 1 22 44
M  V30 49 1 23 45
M  V30 50 1 24 46
M  V30 51 1 26 47
M  V30 52 1 27 48
M  V30 END BOND
M  V30 END CTAB
M  END
>  <Dataset>  (557) 
ChEMBL_Kinases

>  <Ligand_Instance>  (557) 
nan

>  <PDB_ID>  (557) 
nan

>  <Standardized_SMILES>  (557) 
O=C1CCCCc2cnn3c(NC4CC4)nc(nc23)Nc2cccc(c2)N1

>  <Name>  (557) 
nan

>  <Pocket>  (557) 
nan

>  <ATP_Site>  (557) 
nan

>  <Peripheral>  (557) 
nan

>  <Num_H_Atoms_ProtBoundConf>  (557) 
nan

>  <Num_Resolved_Atoms>  (557) 
nan

>  <Num_Not_Resolved_Atoms>  (557) 
nan

$$$$
CHEMBL404507
     RDKit          3D

  0  0  0  0  0  0  0  0  0  0999 V3000
M  V30 BEGIN CTAB
M  V30 COUNTS 46 50 0 0 0
M  V30 BEGIN ATOM
M  V30 1 N -0.220455 -0.287974 4.343253 0
M  V30 2 C 0.845442 0.633362 4.602637 0
M  V30 3 N 1.251529 0.838133 5.878594 0
M  V30 4 C 2.268233 1.725840 6.068270 0
M  V30 5 N 2.865340 2.388533 5.051316 0
M  V30 6 C 2.469652 2.194319 3.770117 0
M  V30 7 O 2.863147 2.690737 2.621693 0
M  V30 8 C 2.174741 2.197329 1.617704 0
M  V30 9 C 2.246924 2.441795 0.178900 0
M  V30 10 C 3.300015 2.289642 -0.697497 0
M  V30 11 C 3.104919 2.590997 -2.024755 0
M  V30 12 C 1.894178 3.038786 -2.505534 0
M  V30 13 N 0.861046 3.186855 -1.640063 0
M  V30 14 C 1.026343 2.897056 -0.327596 0
M  V30 15 C 1.245966 1.297308 2.152750 0
M  V30 16 C 0.222836 0.441097 1.541920 0
M  V30 17 C 0.733629 -0.595131 0.789796 0
M  V30 18 C -0.203311 -1.416460 0.205073 0
M  V30 19 C -1.564622 -1.266714 0.325472 0
M  V30 20 N -2.601140 -2.045801 -0.234502 0
M  V30 21 S -3.154808 -3.662148 -0.322156 0
M  V30 22 O -3.408499 -4.182844 1.103489 0
M  V30 23 O -4.535468 -3.699737 -0.952826 0
M  V30 24 C -2.051900 -4.697951 -1.049111 0
M  V30 25 C -2.097431 -5.430742 -2.187389 0
M  V30 26 C -1.098840 -6.240705 -2.651026 0
M  V30 27 C 0.094121 -6.230281 -1.732599 0
M  V30 28 S -0.398843 -5.083379 -0.377952 0
M  V30 29 C -1.945031 -0.170749 1.118257 0
M  V30 30 C -1.095648 0.710895 1.747312 0
M  V30 31 C 1.427325 1.287953 3.542386 0
M  V30 32 H -1.238038 -0.393512 4.616799 0
M  V30 33 H -0.169584 -1.158173 3.738350 0
M  V30 34 H 2.635904 1.927016 7.087628 0
M  V30 35 H 4.189240 1.935632 -0.196369 0
M  V30 36 H 3.969185 2.450025 -2.655451 0
M  V30 37 H 1.774072 3.267225 -3.553276 0
M  V30 38 H 0.112205 3.060266 0.262332 0
M  V30 39 H 1.783704 -0.804113 0.630837 0
M  V30 40 H 0.135117 -2.231842 -0.400473 0
M  V30 41 H -3.211802 -1.362586 -0.786243 0
M  V30 42 H -3.016833 -5.365742 -2.784262 0
M  V30 43 H -1.098119 -6.835220 -3.542837 0
M  V30 44 H 0.992274 -6.915945 -2.085265 0
M  V30 45 H -3.023197 0.015975 1.262072 0
M  V30 46 H -1.465220 1.524502 2.338127 0
M  V30 END ATOM
M  V30 BEGIN BOND
M  V30 1 1 1 2
M  V30 2 2 2 3
M  V30 3 1 3 4
M  V30 4 2 4 5
M  V30 5 1 5 6
M  V30 6 1 6 7
M  V30 7 1 7 8
M  V30 8 1 8 9
M  V30 9 2 9 10
M  V30 10 1 10 11
M  V30 11 2 11 12
M  V30 12 1 12 13
M  V30 13 2 13 14
M  V30 14 2 8 15
M  V30 15 1 15 16
M  V30 16 2 16 17
M  V30 17 1 17 18
M  V30 18 2 18 19
M  V30 19 1 19 20
M  V30 20 1 20 21
M  V30 21 2 21 22
M  V30 22 2 21 23
M  V30 23 1 21 24
M  V30 24 2 24 25
M  V30 25 1 25 26
M  V30 26 2 26 27
M  V30 27 1 27 28
M  V30 28 1 19 29
M  V30 29 2 29 30
M  V30 30 1 15 31
M  V30 31 1 31 2
M  V30 32 2 31 6
M  V30 33 1 14 9
M  V30 34 1 30 16
M  V30 35 1 28 24
M  V30 36 1 1 32
M  V30 37 1 1 33
M  V30 38 1 4 34
M  V30 39 1 10 35
M  V30 40 1 11 36
M  V30 41 1 12 37
M  V30 42 1 14 38
M  V30 43 1 17 39
M  V30 44 1 18 40
M  V30 45 1 20 41
M  V30 46 1 25 42
M  V30 47 1 26 43
M  V30 48 1 27 44
M  V30 49 1 29 45
M  V30 50 1 30 46
M  V30 END BOND
M  V30 END CTAB
M  END
>  <Dataset>  (558) 
ChEMBL_Kinases

>  <Ligand_Instance>  (558) 
nan

>  <PDB_ID>  (558) 
nan

>  <Standardized_SMILES>  (558) 
Nc1ncnc2oc(-c3cccnc3)c(-c3ccc(NS(=O)(=O)c4cccs4)cc3)c12

>  <Name>  (558) 
nan

>  <Pocket>  (558) 
nan

>  <ATP_Site>  (558) 
nan

>  <Peripheral>  (558) 
nan

>  <Num_H_Atoms_ProtBoundConf>  (558) 
nan

>  <Num_Resolved_Atoms>  (558) 
nan

>  <Num_Not_Resolved_Atoms>  (558) 
nan

$$$$
CHEMBL404498
     RDKit          3D

  0  0  0  0  0  0  0  0  0  0999 V3000
M  V30 BEGIN CTAB
M  V30 COUNTS 56 59 0 0 0
M  V30 BEGIN ATOM
M  V30 1 C 4.959500 -0.593677 -1.525036 0
M  V30 2 O 4.858328 0.379451 -0.493653 0
M  V30 3 C 3.626847 0.688842 0.060395 0
M  V30 4 C 2.445422 0.105256 -0.324425 0
M  V30 5 C 1.272174 0.487540 0.294513 0
M  V30 6 C 1.198258 1.448575 1.308654 0
M  V30 7 C 2.394308 2.023359 1.681450 0
M  V30 8 C 3.565464 1.640312 1.062188 0
M  V30 9 C 4.795080 2.285879 1.501609 0
M  V30 10 O 5.757361 2.260050 2.279281 0
M  V30 11 N 5.389141 3.488864 0.986000 0
M  V30 12 C 6.609863 3.811645 1.681346 0
M  V30 13 C 4.896702 4.320556 -0.079377 0
M  V30 14 N 0.071472 1.926682 2.018626 0
M  V30 15 C -1.303168 1.528131 1.944623 0
M  V30 16 O -2.159844 2.273440 2.488025 0
M  V30 17 C -1.786638 0.302993 1.274924 0
M  V30 18 C -3.053338 -0.001016 1.761394 0
M  V30 19 C -3.659943 -1.136454 1.231348 0
M  V30 20 C -3.003136 -1.882571 0.282457 0
M  V30 21 C -3.633031 -3.085870 -0.286729 0
M  V30 22 C -3.370938 -3.476231 -1.583705 0
M  V30 23 C -4.003327 -4.628194 -2.060428 0
M  V30 24 C -4.866614 -5.343631 -1.235047 0
M  V30 25 N -5.429632 -6.496923 -1.881458 0 CHG=1 VAL=4
M  V30 26 O -5.707948 -7.358690 -1.031558 0
M  V30 27 O -5.773393 -7.520255 -0.993777 0 CHG=-1 VAL=1
M  V30 28 C -5.107675 -4.924775 0.060766 0
M  V30 29 O -5.992095 -5.766464 0.719331 0
M  V30 30 C -6.435610 -5.615338 2.034985 0
M  V30 31 C -4.487105 -3.788591 0.538538 0
M  V30 32 C -1.748443 -1.572023 -0.192167 0
M  V30 33 C -1.119125 -0.446852 0.317096 0
M  V30 34 N 0.166620 -0.242328 -0.256721 0
M  V30 35 H 6.021612 -0.918925 -1.546916 0
M  V30 36 H 4.744074 -0.144548 -2.522717 0
M  V30 37 H 4.299662 -1.441348 -1.316104 0
M  V30 38 H 2.440016 -0.631011 -1.089637 0
M  V30 39 H 2.385750 2.762401 2.452224 0
M  V30 40 H 7.055954 4.718173 1.225067 0
M  V30 41 H 7.391661 3.028568 1.613198 0
M  V30 42 H 6.342711 4.097901 2.712162 0
M  V30 43 H 5.165076 5.381839 0.139041 0
M  V30 44 H 3.787529 4.298739 -0.187110 0
M  V30 45 H 5.358572 4.084180 -1.070330 0
M  V30 46 H 0.258304 2.686219 2.704286 0
M  V30 47 H -3.510828 0.633516 2.510663 0
M  V30 48 H -4.635795 -1.390048 1.591147 0
M  V30 49 H -2.690633 -2.880463 -2.179432 0
M  V30 50 H -3.745039 -4.864311 -3.082646 0
M  V30 51 H -5.601017 -5.914932 2.704833 0
M  V30 52 H -7.257405 -6.368086 2.179951 0
M  V30 53 H -6.883262 -4.650049 2.276509 0
M  V30 54 H -4.737469 -3.542275 1.558811 0
M  V30 55 H -1.233422 -2.154784 -0.934418 0
M  V30 56 H 0.301913 -0.688310 -1.199205 0
M  V30 END ATOM
M  V30 BEGIN BOND
M  V30 1 1 1 2
M  V30 2 1 2 3
M  V30 3 2 3 4
M  V30 4 1 4 5
M  V30 5 2 5 6
M  V30 6 1 6 7
M  V30 7 2 7 8
M  V30 8 1 8 9
M  V30 9 2 9 10
M  V30 10 1 9 11
M  V30 11 1 11 12
M  V30 12 1 11 13
M  V30 13 1 6 14
M  V30 14 1 14 15
M  V30 15 2 15 16
M  V30 16 1 15 17
M  V30 17 2 17 18
M  V30 18 1 18 19
M  V30 19 2 19 20
M  V30 20 1 20 21
M  V30 21 2 21 22
M  V30 22 1 22 23
M  V30 23 2 23 24
M  V30 24 1 24 25
M  V30 25 2 25 26
M  V30 26 1 25 27
M  V30 27 1 24 28
M  V30 28 1 28 29
M  V30 29 1 29 30
M  V30 30 2 28 31
M  V30 31 1 20 32
M  V30 32 2 32 33
M  V30 33 1 33 34
M  V30 34 1 8 3
M  V30 35 1 33 17
M  V30 36 1 34 5
M  V30 37 1 31 21
M  V30 38 1 1 35
M  V30 39 1 1 36
M  V30 40 1 1 37
M  V30 41 1 4 38
M  V30 42 1 7 39
M  V30 43 1 12 40
M  V30 44 1 12 41
M  V30 45 1 12 42
M  V30 46 1 13 43
M  V30 47 1 13 44
M  V30 48 1 13 45
M  V30 49 1 14 46
M  V30 50 1 18 47
M  V30 51 1 19 48
M  V30 52 1 22 49
M  V30 53 1 23 50
M  V30 54 1 30 51
M  V30 55 1 30 52
M  V30 56 1 30 53
M  V30 57 1 31 54
M  V30 58 1 32 55
M  V30 59 1 34 56
M  V30 END BOND
M  V30 END CTAB
M  END
>  <Dataset>  (559) 
ChEMBL_Kinases

>  <Ligand_Instance>  (559) 
nan

>  <PDB_ID>  (559) 
nan

>  <Standardized_SMILES>  (559) 
COc1cc2c(cc1C(=O)N(C)C)NC(=O)c1ccc(-c3ccc([N+](=O)[O-])c(OC)c3)cc1N2

>  <Name>  (559) 
nan

>  <Pocket>  (559) 
nan

>  <ATP_Site>  (559) 
nan

>  <Peripheral>  (559) 
nan

>  <Num_H_Atoms_ProtBoundConf>  (559) 
nan

>  <Num_Resolved_Atoms>  (559) 
nan

>  <Num_Not_Resolved_Atoms>  (559) 
nan

$$$$
CHEMBL404722
     RDKit          3D

  0  0  0  0  0  0  0  0  0  0999 V3000
M  V30 BEGIN CTAB
M  V30 COUNTS 66 69 0 0 0
M  V30 BEGIN ATOM
M  V30 1 C 5.437860 1.885131 -0.030387 0
M  V30 2 N 5.117025 1.362290 1.281101 0
M  V30 3 N 5.845688 0.720059 2.198175 0
M  V30 4 C 5.084168 0.439939 3.263133 0
M  V30 5 C 5.762115 -0.277912 4.374192 0
M  V30 6 C 4.679405 -0.499327 5.429967 0
M  V30 7 C 6.904057 0.510148 4.950151 0
M  V30 8 C 6.192797 -1.647264 3.902350 0
M  V30 9 C 3.837859 0.925523 2.998018 0
M  V30 10 C 3.863600 1.509176 1.740900 0
M  V30 11 N 2.650885 2.085103 1.267114 0
M  V30 12 C 1.663900 1.412326 0.543467 0
M  V30 13 O 2.156625 0.255090 0.466542 0
M  V30 14 C 0.395305 1.885083 0.006319 0
M  V30 15 O 0.366771 3.097033 0.316433 0
M  V30 16 C -0.539425 1.042518 -0.709660 0
M  V30 17 C -0.281922 -0.268045 -0.898204 0
M  V30 18 C -1.154118 -1.100134 -1.565325 0
M  V30 19 C -2.346678 -0.641288 -2.081666 0
M  V30 20 O -3.328654 -1.299879 -2.765356 0
M  V30 21 C -3.441894 -2.620595 -3.139067 0
M  V30 22 C -3.503493 -3.637180 -2.049021 0
M  V30 23 N -4.652201 -3.413144 -1.161462 0
M  V30 24 C -4.657013 -4.423182 -0.131178 0
M  V30 25 C -5.711431 -4.190013 0.897334 0
M  V30 26 O -6.832587 -3.624747 0.329502 0
M  V30 27 C -7.025013 -3.996716 -0.994819 0
M  V30 28 C -5.904657 -3.513950 -1.887538 0
M  V30 29 C -2.611712 0.722843 -1.884149 0
M  V30 30 C -3.797401 1.292990 -2.371196 0
M  V30 31 C -4.143872 2.620787 -2.227352 0
M  V30 32 C -3.231173 3.433890 -1.543616 0
M  V30 33 C -2.088696 2.862560 -1.079592 0
M  V30 34 C -1.716549 1.543694 -1.207761 0
M  V30 35 H 5.098186 1.208326 -0.850234 0
M  V30 36 H 4.974519 2.854812 -0.230032 0
M  V30 37 H 6.538637 1.942485 -0.121821 0
M  V30 38 H 3.784466 -0.898892 4.868147 0
M  V30 39 H 4.989614 -1.308331 6.125428 0
M  V30 40 H 4.373446 0.418392 5.932511 0
M  V30 41 H 6.878808 1.510452 4.479425 0
M  V30 42 H 7.836568 -0.024912 4.754401 0
M  V30 43 H 6.750477 0.590470 6.045099 0
M  V30 44 H 5.473893 -1.999699 3.134944 0
M  V30 45 H 6.131527 -2.377046 4.746176 0
M  V30 46 H 7.224008 -1.639358 3.511360 0
M  V30 47 H 3.065472 0.787592 3.766943 0
M  V30 48 H 2.449835 3.119840 1.466325 0
M  V30 49 H 0.564783 -0.814882 -0.585717 0
M  V30 50 H -0.981240 -2.131946 -1.740228 0
M  V30 51 H -2.507276 -2.873999 -3.738444 0
M  V30 52 H -4.254551 -2.786666 -3.888697 0
M  V30 53 H -3.709483 -4.664696 -2.478816 0
M  V30 54 H -2.598891 -3.768758 -1.451018 0
M  V30 55 H -3.667809 -4.345763 0.396005 0
M  V30 56 H -4.791415 -5.438830 -0.553233 0
M  V30 57 H -5.344444 -3.550324 1.737510 0
M  V30 58 H -6.036606 -5.174586 1.319005 0
M  V30 59 H -7.136539 -5.100507 -1.088125 0
M  V30 60 H -7.959079 -3.517641 -1.343481 0
M  V30 61 H -6.182317 -2.519374 -2.268870 0
M  V30 62 H -5.831614 -4.236040 -2.720728 0
M  V30 63 H -4.533159 0.679370 -2.912416 0
M  V30 64 H -5.062296 3.007892 -2.618085 0
M  V30 65 H -3.512309 4.457397 -1.439659 0
M  V30 66 H -1.458001 3.568117 -0.573786 0
M  V30 END ATOM
M  V30 BEGIN BOND
M  V30 1 1 1 2
M  V30 2 1 2 3
M  V30 3 2 3 4
M  V30 4 1 4 5
M  V30 5 1 5 6
M  V30 6 1 5 7
M  V30 7 1 5 8
M  V30 8 1 4 9
M  V30 9 2 9 10
M  V30 10 1 10 11
M  V30 11 1 11 12
M  V30 12 2 12 13
M  V30 13 1 12 14
M  V30 14 2 14 15
M  V30 15 1 14 16
M  V30 16 2 16 17
M  V30 17 1 17 18
M  V30 18 2 18 19
M  V30 19 1 19 20
M  V30 20 1 20 21
M  V30 21 1 21 22
M  V30 22 1 22 23
M  V30 23 1 23 24
M  V30 24 1 24 25
M  V30 25 1 25 26
M  V30 26 1 26 27
M  V30 27 1 27 28
M  V30 28 1 19 29
M  V30 29 2 29 30
M  V30 30 1 30 31
M  V30 31 2 31 32
M  V30 32 1 32 33
M  V30 33 2 33 34
M  V30 34 1 10 2
M  V30 35 1 34 16
M  V30 36 1 28 23
M  V30 37 1 34 29
M  V30 38 1 1 35
M  V30 39 1 1 36
M  V30 40 1 1 37
M  V30 41 1 6 38
M  V30 42 1 6 39
M  V30 43 1 6 40
M  V30 44 1 7 41
M  V30 45 1 7 42
M  V30 46 1 7 43
M  V30 47 1 8 44
M  V30 48 1 8 45
M  V30 49 1 8 46
M  V30 50 1 9 47
M  V30 51 1 11 48
M  V30 52 1 17 49
M  V30 53 1 18 50
M  V30 54 1 21 51
M  V30 55 1 21 52
M  V30 56 1 22 53
M  V30 57 1 22 54
M  V30 58 1 24 55
M  V30 59 1 24 56
M  V30 60 1 25 57
M  V30 61 1 25 58
M  V30 62 1 27 59
M  V30 63 1 27 60
M  V30 64 1 28 61
M  V30 65 1 28 62
M  V30 66 1 30 63
M  V30 67 1 31 64
M  V30 68 1 32 65
M  V30 69 1 33 66
M  V30 END BOND
M  V30 END CTAB
M  END
>  <Dataset>  (560) 
ChEMBL_Kinases

>  <Ligand_Instance>  (560) 
nan

>  <PDB_ID>  (560) 
nan

>  <Standardized_SMILES>  (560) 
Cn1nc(C(C)(C)C)cc1NC(=O)C(=O)c1ccc(OCCN2CCOCC2)c2ccccc12

>  <Name>  (560) 
nan

>  <Pocket>  (560) 
nan

>  <ATP_Site>  (560) 
nan

>  <Peripheral>  (560) 
nan

>  <Num_H_Atoms_ProtBoundConf>  (560) 
nan

>  <Num_Resolved_Atoms>  (560) 
nan

>  <Num_Not_Resolved_Atoms>  (560) 
nan

$$$$
CHEMBL4063206
     RDKit          3D

  0  0  0  0  0  0  0  0  0  0999 V3000
M  V30 BEGIN CTAB
M  V30 COUNTS 53 56 0 0 0
M  V30 BEGIN ATOM
M  V30 1 C -3.275013 -3.258188 3.934341 0
M  V30 2 O -2.024825 -3.192671 4.555086 0
M  V30 3 C -0.840834 -3.126845 3.857351 0
M  V30 4 C 0.321745 -3.065707 4.620367 0
M  V30 5 C 1.534290 -2.997728 3.966726 0
M  V30 6 C 1.565724 -2.992180 2.581642 0
M  V30 7 C 0.414600 -3.052978 1.844460 0
M  V30 8 N 0.487656 -3.031198 0.439294 0
M  V30 9 C 1.647815 -2.721802 -0.383107 0
M  V30 10 C 1.374093 -1.360812 -0.988325 0
M  V30 11 N -0.076971 -1.062219 -1.042464 0
M  V30 12 C -0.432511 0.239964 -0.594333 0
M  V30 13 N 0.593302 1.111270 -0.639529 0
M  V30 14 C 0.528164 2.403892 -0.263935 0
M  V30 15 C 1.695862 3.270810 -0.346292 0
M  V30 16 C 1.700343 4.598857 0.020725 0
M  V30 17 C 2.822012 5.389002 -0.066527 0
M  V30 18 N 3.969672 4.872243 -0.523256 0
M  V30 19 C 3.974174 3.556734 -0.889240 0
M  V30 20 N 2.866768 2.799550 -0.796784 0
M  V30 21 C -0.695813 2.800154 0.187473 0
M  V30 22 C -1.792337 1.978166 0.267273 0
M  V30 23 O -2.927487 2.323847 0.680621 0
M  V30 24 N -1.596775 0.713877 -0.136297 0
M  V30 25 C -2.702039 -0.210175 -0.027988 0
M  V30 26 C -0.624765 -2.254680 -1.586323 0 CFG=2
M  V30 27 C -1.927958 -2.213536 -2.273667 0
M  V30 28 C -0.626947 -3.334652 -0.481378 0
M  V30 29 C -0.801661 -3.120759 2.456289 0
M  V30 30 H -3.511246 -2.263342 3.488399 0
M  V30 31 H -3.214029 -4.032356 3.149875 0
M  V30 32 H -4.054185 -3.561980 4.646990 0
M  V30 33 H 0.296235 -3.069737 5.696816 0
M  V30 34 H 2.419261 -2.951336 4.584228 0
M  V30 35 H 2.568360 -2.935914 2.182897 0
M  V30 36 H 1.791768 -3.453802 -1.216480 0
M  V30 37 H 2.593875 -2.662581 0.185239 0
M  V30 38 H 1.795239 -1.310044 -2.012982 0
M  V30 39 H 1.821262 -0.623905 -0.309045 0
M  V30 40 H 0.768127 5.003503 0.386872 0
M  V30 41 H 2.696892 6.420188 0.253387 0
M  V30 42 H 4.878773 3.094431 -1.264281 0
M  V30 43 H -0.854203 3.815029 0.510912 0
M  V30 44 H -3.309317 -0.131641 -0.934915 0
M  V30 45 H -3.398605 0.212746 0.777683 0
M  V30 46 H -2.408824 -1.208295 0.304307 0
M  V30 47 H 0.108703 -2.652821 -2.369648 0
M  V30 48 H -2.196732 -1.245690 -2.705073 0
M  V30 49 H -1.942524 -2.973104 -3.117301 0
M  V30 50 H -2.711607 -2.634030 -1.576682 0
M  V30 51 H -1.586270 -3.441888 -0.003037 0
M  V30 52 H -0.362913 -4.298697 -0.955223 0
M  V30 53 H -1.752261 -3.170956 1.992461 0
M  V30 END ATOM
M  V30 BEGIN BOND
M  V30 1 1 1 2
M  V30 2 1 2 3
M  V30 3 2 3 4
M  V30 4 1 4 5
M  V30 5 2 5 6
M  V30 6 1 6 7
M  V30 7 1 7 8
M  V30 8 1 8 9
M  V30 9 1 9 10
M  V30 10 1 10 11
M  V30 11 1 11 12
M  V30 12 2 12 13
M  V30 13 1 13 14
M  V30 14 1 14 15
M  V30 15 2 15 16
M  V30 16 1 16 17
M  V30 17 2 17 18
M  V30 18 1 18 19
M  V30 19 2 19 20
M  V30 20 2 14 21
M  V30 21 1 21 22
M  V30 22 2 22 23
M  V30 23 1 22 24
M  V30 24 1 24 25
M  V30 25 1 11 26
M  V30 26 1 26 27
M  V30 27 1 26 28
M  V30 28 2 7 29
M  V30 29 1 29 3
M  V30 30 1 28 8
M  V30 31 1 24 12
M  V30 32 1 20 15
M  V30 33 1 1 30
M  V30 34 1 1 31
M  V30 35 1 1 32
M  V30 36 1 4 33
M  V30 37 1 5 34
M  V30 38 1 6 35
M  V30 39 1 9 36
M  V30 40 1 9 37
M  V30 41 1 10 38
M  V30 42 1 10 39
M  V30 43 1 16 40
M  V30 44 1 17 41
M  V30 45 1 19 42
M  V30 46 1 21 43
M  V30 47 1 25 44
M  V30 48 1 25 45
M  V30 49 1 25 46
M  V30 50 1 26 47 CFG=3
M  V30 51 1 27 48
M  V30 52 1 27 49
M  V30 53 1 27 50
M  V30 54 1 28 51
M  V30 55 1 28 52
M  V30 56 1 29 53
M  V30 END BOND
M  V30 END CTAB
M  END
>  <Dataset>  (561) 
ChEMBL_Kinases

>  <Ligand_Instance>  (561) 
nan

>  <PDB_ID>  (561) 
nan

>  <Standardized_SMILES>  (561) 
COc1cccc(N2CCN(c3nc(-c4ccncn4)cc(=O)n3C)[C@H](C)C2)c1

>  <Name>  (561) 
nan

>  <Pocket>  (561) 
nan

>  <ATP_Site>  (561) 
nan

>  <Peripheral>  (561) 
nan

>  <Num_H_Atoms_ProtBoundConf>  (561) 
nan

>  <Num_Resolved_Atoms>  (561) 
nan

>  <Num_Not_Resolved_Atoms>  (561) 
nan

$$$$
CHEMBL4063115
     RDKit          3D

  0  0  0  0  0  0  0  0  0  0999 V3000
M  V30 BEGIN CTAB
M  V30 COUNTS 40 43 0 0 0
M  V30 BEGIN ATOM
M  V30 1 C 0.487868 -5.667813 1.634691 0
M  V30 2 C 0.414423 -4.342815 0.952190 0
M  V30 3 C 0.141690 -3.244144 1.731971 0
M  V30 4 C 0.041123 -1.991631 1.172342 0
M  V30 5 C -0.242476 -0.684610 1.672697 0
M  V30 6 C 0.682250 0.343456 1.415082 0
M  V30 7 C 0.456721 1.643513 1.908342 0
M  V30 8 N 1.531631 2.534297 1.533900 0
M  V30 9 C 1.847340 2.507512 0.151479 0
M  V30 10 C 0.792711 2.524348 -0.767727 0
M  V30 11 C 1.236771 2.480473 -2.095996 0
M  V30 12 N 2.596579 2.436504 -1.929104 0
M  V30 13 C 3.462598 2.371982 -3.091720 0
M  V30 14 N 2.898552 2.455349 -0.656735 0
M  V30 15 N -0.631861 1.930680 2.627205 0
M  V30 16 C -1.559241 1.004378 2.912117 0
M  V30 17 N -2.716767 1.031275 3.587956 0
M  V30 18 C -3.253970 -0.199190 3.554840 0
M  V30 19 C -2.400501 -1.022681 2.833117 0
M  V30 20 C -2.734921 -2.405077 2.616102 0
M  V30 21 N -2.997300 -3.529396 2.456117 0
M  V30 22 C -1.321217 -0.263504 2.421378 0
M  V30 23 C 0.234596 -1.935721 -0.204045 0
M  V30 24 C 0.513264 -3.049159 -1.001782 0
M  V30 25 N 0.597782 -4.263530 -0.375761 0
M  V30 26 H -0.545387 -6.059732 1.768333 0
M  V30 27 H 1.097829 -6.402867 1.083028 0
M  V30 28 H 0.894582 -5.485574 2.647225 0
M  V30 29 H -0.009930 -3.213812 2.800216 0
M  V30 30 H 1.554287 0.074337 0.827686 0
M  V30 31 H 2.078811 3.169512 2.151140 0
M  V30 32 H -0.286714 2.570665 -0.580696 0
M  V30 33 H 0.653615 2.481201 -2.999831 0
M  V30 34 H 4.424060 1.915149 -2.814467 0
M  V30 35 H 3.668235 3.354944 -3.525960 0
M  V30 36 H 2.979295 1.736054 -3.865038 0
M  V30 37 H -3.048915 1.914153 4.026895 0
M  V30 38 H -4.200365 -0.455838 4.029676 0
M  V30 39 H 0.198576 -1.059667 -0.839594 0
M  V30 40 H 0.667856 -3.051464 -2.061443 0
M  V30 END ATOM
M  V30 BEGIN BOND
M  V30 1 1 1 2
M  V30 2 2 2 3
M  V30 3 1 3 4
M  V30 4 1 4 5
M  V30 5 2 5 6
M  V30 6 1 6 7
M  V30 7 1 7 8
M  V30 8 1 8 9
M  V30 9 1 9 10
M  V30 10 2 10 11
M  V30 11 1 11 12
M  V30 12 1 12 13
M  V30 13 1 12 14
M  V30 14 2 7 15
M  V30 15 1 15 16
M  V30 16 1 16 17
M  V30 17 1 17 18
M  V30 18 2 18 19
M  V30 19 1 19 20
M  V30 20 3 20 21
M  V30 21 1 19 22
M  V30 22 2 4 23
M  V30 23 1 23 24
M  V30 24 2 24 25
M  V30 25 1 25 2
M  V30 26 1 22 5
M  V30 27 2 14 9
M  V30 28 2 22 16
M  V30 29 1 1 26
M  V30 30 1 1 27
M  V30 31 1 1 28
M  V30 32 1 3 29
M  V30 33 1 6 30
M  V30 34 1 8 31
M  V30 35 1 10 32
M  V30 36 1 11 33
M  V30 37 1 13 34
M  V30 38 1 13 35
M  V30 39 1 13 36
M  V30 40 1 17 37
M  V30 41 1 18 38
M  V30 42 1 23 39
M  V30 43 1 24 40
M  V30 END BOND
M  V30 END CTAB
M  END
>  <Dataset>  (562) 
ChEMBL_Kinases

>  <Ligand_Instance>  (562) 
nan

>  <PDB_ID>  (562) 
nan

>  <Standardized_SMILES>  (562) 
Cc1cc(-c2cc(Nc3ccn(C)n3)nc3[nH]cc(C#N)c23)ccn1

>  <Name>  (562) 
nan

>  <Pocket>  (562) 
nan

>  <ATP_Site>  (562) 
nan

>  <Peripheral>  (562) 
nan

>  <Num_H_Atoms_ProtBoundConf>  (562) 
nan

>  <Num_Resolved_Atoms>  (562) 
nan

>  <Num_Not_Resolved_Atoms>  (562) 
nan

$$$$
CHEMBL4063014
     RDKit          3D

  0  0  0  0  0  0  0  0  0  0999 V3000
M  V30 BEGIN CTAB
M  V30 COUNTS 61 65 0 0 0
M  V30 BEGIN ATOM
M  V30 1 O 0.616749 0.380115 2.175471 0
M  V30 2 C 1.088833 0.976855 1.156460 0
M  V30 3 N 2.415430 1.348811 1.398254 0
M  V30 4 C 3.048007 1.046603 2.658213 0
M  V30 5 C 4.443337 1.554897 2.631239 0
M  V30 6 C 5.270915 0.735621 1.877598 0
M  V30 7 Cl 4.752347 -0.735983 1.045886 0
M  V30 8 C 6.627230 1.040941 1.725612 0
M  V30 9 C 7.146332 2.181523 2.340413 0
M  V30 10 C 6.306052 2.977104 3.081781 0
M  V30 11 C 4.969364 2.679482 3.233719 0
M  V30 12 Cl 3.806722 3.608662 4.146486 0
M  V30 13 C 0.284416 1.189387 -0.032440 0
M  V30 14 C -1.021081 0.707451 -0.008090 0
M  V30 15 C -1.881150 0.847875 -1.071115 0
M  V30 16 C -3.240392 0.295258 -0.933661 0 CFG=2
M  V30 17 C -3.984314 0.981854 0.203651 0
M  V30 18 C -5.238785 0.175508 0.507593 0
M  V30 19 N -5.511421 -0.666639 -0.655453 0
M  V30 20 C -4.564441 -1.736951 -0.660135 0
M  V30 21 C -3.171780 -1.216662 -0.671393 0 CFG=1
M  V30 22 C -2.326537 -1.770978 -1.774259 0
M  V30 23 O -2.092886 -3.118834 -1.792399 0
M  V30 24 C -1.493017 -3.971097 -0.932615 0
M  V30 25 C -1.541504 -5.270788 -1.462600 0
M  V30 26 C -0.989829 -6.361298 -0.776728 0
M  V30 27 C -0.382765 -6.168087 0.446843 0
M  V30 28 C -0.328220 -4.897785 0.978338 0
M  V30 29 C -0.875359 -3.838639 0.290408 0
M  V30 30 O 0.319852 -4.933228 2.203386 0
M  V30 31 C 0.888269 -6.241917 2.365636 0
M  V30 32 O 0.250353 -7.008609 1.372269 0
M  V30 33 C -1.482828 1.483185 -2.228680 0
M  V30 34 C -0.198688 1.975745 -2.296167 0
M  V30 35 C 0.627063 1.812928 -1.209847 0
M  V30 36 F 1.885575 2.296949 -1.279079 0
M  V30 37 H 2.925842 1.845980 0.647253 0
M  V30 38 H 2.530573 1.571580 3.506558 0
M  V30 39 H 3.006199 -0.046544 2.922312 0
M  V30 40 H 7.296031 0.417200 1.141644 0
M  V30 41 H 8.192988 2.427276 2.229722 0
M  V30 42 H 6.650550 3.877145 3.583574 0
M  V30 43 H -1.372838 0.202419 0.882284 0
M  V30 44 H -3.799461 0.520776 -1.860226 0
M  V30 45 H -4.317017 1.959412 -0.185020 0
M  V30 46 H -3.387314 1.145707 1.096956 0
M  V30 47 H -4.995084 -0.464876 1.378079 0
M  V30 48 H -6.102021 0.790753 0.762626 0
M  V30 49 H -6.494572 -0.964401 -0.717766 0
M  V30 50 H -4.697092 -2.313179 0.303736 0
M  V30 51 H -4.765219 -2.496362 -1.444397 0
M  V30 52 H -2.677912 -1.327748 0.328695 0
M  V30 53 H -2.877547 -1.516129 -2.728449 0
M  V30 54 H -1.404863 -1.155148 -1.824191 0
M  V30 55 H -1.978216 -5.602142 -2.407449 0
M  V30 56 H -0.998547 -7.378945 -1.136632 0
M  V30 57 H -0.873940 -2.821184 0.626503 0
M  V30 58 H 0.668553 -6.554777 3.390479 0
M  V30 59 H 1.968110 -6.231669 2.134139 0
M  V30 60 H -2.140801 1.605053 -3.075960 0
M  V30 61 H 0.193929 2.489926 -3.173639 0
M  V30 END ATOM
M  V30 BEGIN BOND
M  V30 1 2 1 2
M  V30 2 1 2 3
M  V30 3 1 3 4
M  V30 4 1 4 5
M  V30 5 2 5 6
M  V30 6 1 6 7
M  V30 7 1 6 8
M  V30 8 2 8 9
M  V30 9 1 9 10
M  V30 10 2 10 11
M  V30 11 1 11 12
M  V30 12 1 2 13
M  V30 13 2 13 14
M  V30 14 1 14 15
M  V30 15 1 15 16
M  V30 16 1 16 17
M  V30 17 1 17 18
M  V30 18 1 18 19
M  V30 19 1 19 20
M  V30 20 1 20 21
M  V30 21 1 21 22
M  V30 22 1 22 23
M  V30 23 1 23 24
M  V30 24 2 24 25
M  V30 25 1 25 26
M  V30 26 2 26 27
M  V30 27 1 27 28
M  V30 28 2 28 29
M  V30 29 1 28 30
M  V30 30 1 30 31
M  V30 31 1 31 32
M  V30 32 2 15 33
M  V30 33 1 33 34
M  V30 34 2 34 35
M  V30 35 1 35 36
M  V30 36 1 11 5
M  V30 37 1 35 13
M  V30 38 1 21 16
M  V30 39 1 29 24
M  V30 40 1 32 27
M  V30 41 1 3 37
M  V30 42 1 4 38
M  V30 43 1 4 39
M  V30 44 1 8 40
M  V30 45 1 9 41
M  V30 46 1 10 42
M  V30 47 1 14 43
M  V30 48 1 16 44 CFG=3
M  V30 49 1 17 45
M  V30 50 1 17 46
M  V30 51 1 18 47
M  V30 52 1 18 48
M  V30 53 1 19 49
M  V30 54 1 20 50
M  V30 55 1 20 51
M  V30 56 1 21 52 CFG=1
M  V30 57 1 22 53
M  V30 58 1 22 54
M  V30 59 1 25 55
M  V30 60 1 26 56
M  V30 61 1 29 57
M  V30 62 1 31 58
M  V30 63 1 31 59
M  V30 64 1 33 60
M  V30 65 1 34 61
M  V30 END BOND
M  V30 END CTAB
M  END
>  <Dataset>  (563) 
ChEMBL_Kinases

>  <Ligand_Instance>  (563) 
nan

>  <PDB_ID>  (563) 
nan

>  <Standardized_SMILES>  (563) 
O=C(NCc1c(Cl)cccc1Cl)c1cc([C@@H]2CCNC[C@H]2COc2ccc3c(c2)OCO3)ccc1F

>  <Name>  (563) 
nan

>  <Pocket>  (563) 
nan

>  <ATP_Site>  (563) 
nan

>  <Peripheral>  (563) 
nan

>  <Num_H_Atoms_ProtBoundConf>  (563) 
nan

>  <Num_Resolved_Atoms>  (563) 
nan

>  <Num_Not_Resolved_Atoms>  (563) 
nan

$$$$
CHEMBL370156
     RDKit          3D

  0  0  0  0  0  0  0  0  0  0999 V3000
M  V30 BEGIN CTAB
M  V30 COUNTS 51 54 0 0 0
M  V30 BEGIN ATOM
M  V30 1 C 0.357624 3.899150 5.419096 0
M  V30 2 O -0.072596 2.830592 4.600805 0
M  V30 3 C 0.635066 2.386557 3.499091 0
M  V30 4 C 1.814173 3.046025 3.218649 0
M  V30 5 C 2.589143 2.675116 2.140293 0
M  V30 6 C 2.130814 1.627464 1.369737 0
M  V30 7 C 2.948562 1.251025 0.248398 0
M  V30 8 C 3.630677 0.915091 -0.689596 0
M  V30 9 C 4.447108 0.508425 -1.850537 0
M  V30 10 C 3.619971 0.527549 -3.124525 0
M  V30 11 C 4.856689 -0.919161 -1.580118 0
M  V30 12 O 5.547269 1.347330 -2.014509 0
M  V30 13 C 0.948305 0.990120 1.677681 0
M  V30 14 C 0.157621 1.341776 2.748162 0
M  V30 15 C -1.080309 0.633762 3.025486 0
M  V30 16 N -1.960890 0.843049 4.015778 0
M  V30 17 N -2.970578 0.008601 3.956051 0
M  V30 18 C -2.819379 -0.826483 2.897016 0
M  V30 19 N -3.582876 -1.833466 2.433493 0
M  V30 20 C -3.146476 -2.492430 1.324955 0
M  V30 21 N -3.916771 -3.560002 0.801421 0
M  V30 22 C -3.677505 -4.383251 -0.331108 0
M  V30 23 C -3.523965 -5.752919 -0.326338 0
M  V30 24 C -3.296472 -6.497160 -1.445545 0
M  V30 25 C -3.217810 -5.810987 -2.659419 0
M  V30 26 F -2.991708 -6.491234 -3.823863 0
M  V30 27 C -3.364833 -4.423848 -2.730357 0
M  V30 28 C -3.594930 -3.723678 -1.552388 0
M  V30 29 F -3.720072 -2.379798 -1.763167 0
M  V30 30 C -1.964587 -2.116308 0.726745 0
M  V30 31 N -1.234840 -1.105647 1.223379 0
M  V30 32 C -1.613287 -0.418375 2.313528 0
M  V30 33 H -0.195051 3.939636 6.371388 0
M  V30 34 H 0.372774 4.858541 4.888961 0
M  V30 35 H 1.430952 3.692178 5.700540 0
M  V30 36 H 2.184011 3.868502 3.814697 0
M  V30 37 H 3.509174 3.196786 1.929397 0
M  V30 38 H 3.101231 -0.472668 -3.204002 0
M  V30 39 H 2.778422 1.259480 -3.009848 0
M  V30 40 H 4.225596 0.764152 -4.005817 0
M  V30 41 H 4.337273 -1.384859 -0.735620 0
M  V30 42 H 5.962868 -0.910710 -1.420206 0
M  V30 43 H 4.697783 -1.553147 -2.491885 0
M  V30 44 H 5.587727 2.008822 -1.261798 0
M  V30 45 H 0.711573 0.192520 0.994590 0
M  V30 46 H -1.949232 1.533807 4.774184 0
M  V30 47 H -4.807002 -3.843412 1.262262 0
M  V30 48 H -3.591997 -6.242491 0.632571 0
M  V30 49 H -3.182346 -7.565689 -1.397839 0
M  V30 50 H -3.290553 -3.963331 -3.712352 0
M  V30 51 H -1.568639 -2.601708 -0.152856 0
M  V30 END ATOM
M  V30 BEGIN BOND
M  V30 1 1 1 2
M  V30 2 1 2 3
M  V30 3 2 3 4
M  V30 4 1 4 5
M  V30 5 2 5 6
M  V30 6 1 6 7
M  V30 7 3 7 8
M  V30 8 1 8 9
M  V30 9 1 9 10
M  V30 10 1 9 11
M  V30 11 1 9 12
M  V30 12 1 6 13
M  V30 13 2 13 14
M  V30 14 1 14 15
M  V30 15 1 15 16
M  V30 16 1 16 17
M  V30 17 2 17 18
M  V30 18 1 18 19
M  V30 19 2 19 20
M  V30 20 1 20 21
M  V30 21 1 21 22
M  V30 22 2 22 23
M  V30 23 1 23 24
M  V30 24 2 24 25
M  V30 25 1 25 26
M  V30 26 1 25 27
M  V30 27 2 27 28
M  V30 28 1 28 29
M  V30 29 1 20 30
M  V30 30 2 30 31
M  V30 31 1 31 32
M  V30 32 1 14 3
M  V30 33 2 32 15
M  V30 34 1 32 18
M  V30 35 1 28 22
M  V30 36 1 1 33
M  V30 37 1 1 34
M  V30 38 1 1 35
M  V30 39 1 4 36
M  V30 40 1 5 37
M  V30 41 1 10 38
M  V30 42 1 10 39
M  V30 43 1 10 40
M  V30 44 1 11 41
M  V30 45 1 11 42
M  V30 46 1 11 43
M  V30 47 1 12 44
M  V30 48 1 13 45
M  V30 49 1 16 46
M  V30 50 1 21 47
M  V30 51 1 23 48
M  V30 52 1 24 49
M  V30 53 1 27 50
M  V30 54 1 30 51
M  V30 END BOND
M  V30 END CTAB
M  END
>  <Dataset>  (564) 
ChEMBL_Kinases

>  <Ligand_Instance>  (564) 
nan

>  <PDB_ID>  (564) 
nan

>  <Standardized_SMILES>  (564) 
COc1ccc(C#CC(C)(C)O)cc1-c1[nH]nc2nc(Nc3ccc(F)cc3F)cnc12

>  <Name>  (564) 
nan

>  <Pocket>  (564) 
nan

>  <ATP_Site>  (564) 
nan

>  <Peripheral>  (564) 
nan

>  <Num_H_Atoms_ProtBoundConf>  (564) 
nan

>  <Num_Resolved_Atoms>  (564) 
nan

>  <Num_Not_Resolved_Atoms>  (564) 
nan

$$$$
CHEMBL4063006
     RDKit          3D

  0  0  0  0  0  0  0  0  0  0999 V3000
M  V30 BEGIN CTAB
M  V30 COUNTS 49 52 0 0 0
M  V30 BEGIN ATOM
M  V30 1 C 0.568845 -2.509224 -3.354509 0
M  V30 2 N 0.516754 -1.126103 -3.767440 0
M  V30 3 N 0.615358 -0.888571 -5.078658 0
M  V30 4 C 0.554305 0.447544 -5.247000 0
M  V30 5 C 0.414928 1.111581 -4.056437 0
M  V30 6 C 0.397214 0.074089 -3.172683 0
M  V30 7 C 0.268691 0.186244 -1.691797 0
M  V30 8 C 1.252161 1.110812 -1.282447 0
M  V30 9 C 1.240202 1.323537 0.077709 0
M  V30 10 C 0.353849 0.672947 0.819996 0
M  V30 11 O 0.096434 0.677908 2.217027 0
M  V30 12 C 0.722703 1.378777 3.212261 0
M  V30 13 C 2.147887 1.106128 3.454966 0
M  V30 14 C 3.336677 1.698359 3.089790 0
M  V30 15 C 4.579327 1.228926 3.419486 0
M  V30 16 C 4.758969 0.077675 4.176860 0
M  V30 17 C 3.591577 -0.537463 4.560249 0
M  V30 18 C 2.348632 -0.054476 4.221183 0
M  V30 19 C -0.673519 -0.232843 0.754155 0
M  V30 20 C -1.714119 -1.151077 0.675449 0
M  V30 21 O -1.593037 -0.944476 1.951177 0
M  V30 22 N -2.700755 -2.044622 0.339754 0
M  V30 23 C -3.456242 -2.637284 1.382999 0
M  V30 24 C -4.610853 -2.108090 1.890470 0
M  V30 25 C -5.315074 -2.708706 2.901140 0
M  V30 26 C -4.736841 -3.901831 3.351023 0
M  V30 27 N -3.583675 -4.469639 2.873533 0
M  V30 28 C -2.924553 -3.814790 1.858306 0
M  V30 29 C -0.614497 -0.426385 -0.745615 0
M  V30 30 H 1.637383 -2.877576 -3.404232 0
M  V30 31 H 0.245712 -2.721887 -2.337522 0
M  V30 32 H -0.074312 -3.150189 -4.015842 0
M  V30 33 H 0.607217 0.929167 -6.224526 0
M  V30 34 H 0.338998 2.155442 -3.839220 0
M  V30 35 H 2.012722 1.701127 -1.713237 0
M  V30 36 H 1.811808 1.942165 0.725800 0
M  V30 37 H 0.174595 1.171487 4.187314 0
M  V30 38 H 0.589892 2.501846 3.012311 0
M  V30 39 H 3.148266 2.599562 2.513802 0
M  V30 40 H 5.422128 1.791335 3.065573 0
M  V30 41 H 5.735969 -0.248133 4.410011 0
M  V30 42 H 3.674110 -1.452199 5.174178 0
M  V30 43 H 1.528894 -0.654625 4.604568 0
M  V30 44 H -2.540195 -1.961750 -0.715282 0
M  V30 45 H -5.003702 -1.188576 1.503757 0
M  V30 46 H -6.216827 -2.376985 3.362934 0
M  V30 47 H -5.207814 -4.470720 4.151960 0
M  V30 48 H -2.015559 -4.351020 1.547308 0
M  V30 49 H -1.117732 -0.984869 -1.595003 0
M  V30 END ATOM
M  V30 BEGIN BOND
M  V30 1 1 1 2
M  V30 2 1 2 3
M  V30 3 2 3 4
M  V30 4 1 4 5
M  V30 5 2 5 6
M  V30 6 1 6 7
M  V30 7 2 7 8
M  V30 8 1 8 9
M  V30 9 2 9 10
M  V30 10 1 10 11
M  V30 11 1 11 12
M  V30 12 1 12 13
M  V30 13 2 13 14
M  V30 14 1 14 15
M  V30 15 2 15 16
M  V30 16 1 16 17
M  V30 17 2 17 18
M  V30 18 1 10 19
M  V30 19 1 19 20
M  V30 20 2 20 21
M  V30 21 1 20 22
M  V30 22 1 22 23
M  V30 23 2 23 24
M  V30 24 1 24 25
M  V30 25 2 25 26
M  V30 26 1 26 27
M  V30 27 2 27 28
M  V30 28 2 19 29
M  V30 29 1 6 2
M  V30 30 1 29 7
M  V30 31 1 18 13
M  V30 32 1 28 23
M  V30 33 1 1 30
M  V30 34 1 1 31
M  V30 35 1 1 32
M  V30 36 1 4 33
M  V30 37 1 5 34
M  V30 38 1 8 35
M  V30 39 1 9 36
M  V30 40 1 12 37
M  V30 41 1 12 38
M  V30 42 1 14 39
M  V30 43 1 15 40
M  V30 44 1 16 41
M  V30 45 1 17 42
M  V30 46 1 18 43
M  V30 47 1 22 44
M  V30 48 1 24 45
M  V30 49 1 25 46
M  V30 50 1 26 47
M  V30 51 1 28 48
M  V30 52 1 29 49
M  V30 END BOND
M  V30 END CTAB
M  END
>  <Dataset>  (565) 
ChEMBL_Kinases

>  <Ligand_Instance>  (565) 
nan

>  <PDB_ID>  (565) 
nan

>  <Standardized_SMILES>  (565) 
Cn1nccc1-c1ccc(OCc2ccccc2)c(C(=O)Nc2cccnc2)c1

>  <Name>  (565) 
nan

>  <Pocket>  (565) 
nan

>  <ATP_Site>  (565) 
nan

>  <Peripheral>  (565) 
nan

>  <Num_H_Atoms_ProtBoundConf>  (565) 
nan

>  <Num_Resolved_Atoms>  (565) 
nan

>  <Num_Not_Resolved_Atoms>  (565) 
nan

$$$$
CHEMBL4862220
     RDKit          3D

  0  0  0  0  0  0  0  0  0  0999 V3000
M  V30 BEGIN CTAB
M  V30 COUNTS 42 44 0 0 0
M  V30 BEGIN ATOM
M  V30 1 C 4.548650 -3.347450 0.027899 0
M  V30 2 O 3.935244 -2.123462 -0.227108 0
M  V30 3 C 4.082975 -1.321973 -1.319214 0
M  V30 4 N 4.917282 -1.734236 -2.289588 0
M  V30 5 C 5.112850 -0.995077 -3.396470 0
M  V30 6 N 4.431002 0.161584 -3.465948 0
M  V30 7 C 3.604171 0.586269 -2.521255 0
M  V30 8 C 3.382516 -0.140874 -1.383105 0
M  V30 9 C 2.463710 0.383154 -0.388543 0
M  V30 10 O 1.895370 1.492643 -0.598662 0
M  V30 11 N 2.053505 -0.143570 0.855169 0
M  V30 12 C 1.120268 0.617794 1.624573 0
M  V30 13 C 1.547563 1.556707 2.543154 0
M  V30 14 C 0.629181 2.281750 3.276945 0
M  V30 15 C -0.698611 2.000782 3.025586 0
M  V30 16 C -1.172111 1.058201 2.104311 0
M  V30 17 C -2.587633 0.830641 1.907081 0
M  V30 18 N -3.473926 1.817227 2.079951 0
M  V30 19 N -4.682870 1.371488 1.844651 0
M  V30 20 C -4.520044 0.075366 1.519735 0
M  V30 21 N -3.224240 -0.293273 1.549378 0
M  V30 22 C -2.618688 -1.575039 1.271512 0 CFG=1
M  V30 23 C -1.849018 -2.139589 2.406474 0
M  V30 24 C -3.752792 -2.516585 0.932603 0
M  V30 25 F -4.648100 -2.625547 1.997763 0
M  V30 26 F -4.475723 -2.141317 -0.164961 0
M  V30 27 F -3.281145 -3.813326 0.726018 0
M  V30 28 N -0.198158 0.406190 1.441461 0
M  V30 29 H 5.429957 -3.149298 0.680298 0
M  V30 30 H 4.976327 -3.813272 -0.888011 0
M  V30 31 H 3.897128 -4.059067 0.579381 0
M  V30 32 H 5.757363 -1.233736 -4.230561 0
M  V30 33 H 3.114932 1.537023 -2.697932 0
M  V30 34 H 2.462983 -1.059831 1.129478 0
M  V30 35 H 2.600594 1.742884 2.706313 0
M  V30 36 H 0.874375 3.033823 4.014596 0
M  V30 37 H -1.473896 2.544485 3.577888 0
M  V30 38 H -5.351027 -0.570363 1.268361 0
M  V30 39 H -1.979734 -1.532699 0.348399 0
M  V30 40 H -0.757752 -2.219005 2.230668 0
M  V30 41 H -2.183478 -3.177840 2.594322 0
M  V30 42 H -2.044108 -1.564132 3.339105 0
M  V30 END ATOM
M  V30 BEGIN BOND
M  V30 1 1 1 2
M  V30 2 1 2 3
M  V30 3 2 3 4
M  V30 4 1 4 5
M  V30 5 2 5 6
M  V30 6 1 6 7
M  V30 7 2 7 8
M  V30 8 1 8 9
M  V30 9 2 9 10
M  V30 10 1 9 11
M  V30 11 1 11 12
M  V30 12 2 12 13
M  V30 13 1 13 14
M  V30 14 2 14 15
M  V30 15 1 15 16
M  V30 16 1 16 17
M  V30 17 2 17 18
M  V30 18 1 18 19
M  V30 19 2 19 20
M  V30 20 1 20 21
M  V30 21 1 21 22
M  V30 22 1 22 23
M  V30 23 1 22 24
M  V30 24 1 24 25
M  V30 25 1 24 26
M  V30 26 1 24 27
M  V30 27 2 16 28
M  V30 28 1 8 3
M  V30 29 1 28 12
M  V30 30 1 21 17
M  V30 31 1 1 29
M  V30 32 1 1 30
M  V30 33 1 1 31
M  V30 34 1 5 32
M  V30 35 1 7 33
M  V30 36 1 11 34
M  V30 37 1 13 35
M  V30 38 1 14 36
M  V30 39 1 15 37
M  V30 40 1 20 38
M  V30 41 1 22 39 CFG=3
M  V30 42 1 23 40
M  V30 43 1 23 41
M  V30 44 1 23 42
M  V30 END BOND
M  V30 END CTAB
M  END
>  <Dataset>  (566) 
ChEMBL_Kinases

>  <Ligand_Instance>  (566) 
nan

>  <PDB_ID>  (566) 
nan

>  <Standardized_SMILES>  (566) 
COc1ncncc1C(=O)Nc1cccc(-c2nncn2[C@@H](C)C(F)(F)F)n1

>  <Name>  (566) 
nan

>  <Pocket>  (566) 
nan

>  <ATP_Site>  (566) 
nan

>  <Peripheral>  (566) 
nan

>  <Num_H_Atoms_ProtBoundConf>  (566) 
nan

>  <Num_Resolved_Atoms>  (566) 
nan

>  <Num_Not_Resolved_Atoms>  (566) 
nan

$$$$
CHEMBL4062949
     RDKit          3D

  0  0  0  0  0  0  0  0  0  0999 V3000
M  V30 BEGIN CTAB
M  V30 COUNTS 68 72 0 0 0
M  V30 BEGIN ATOM
M  V30 1 C 3.648967 -3.936065 3.037380 0
M  V30 2 C 3.084923 -2.523867 2.814770 0 CFG=1
M  V30 3 O 2.393754 -2.175919 3.943264 0
M  V30 4 C 1.068596 -1.896166 4.129913 0
M  V30 5 C 0.096594 -1.859215 3.153442 0
M  V30 6 C -1.230959 -1.572304 3.385804 0
M  V30 7 C -2.213877 -1.539879 2.309433 0
M  V30 8 C -3.450696 -2.170134 2.424946 0
M  V30 9 N -4.074995 -1.924972 1.261655 0
M  V30 10 C -3.244486 -1.183321 0.493798 0
M  V30 11 C -3.513570 -0.719921 -0.777339 0
M  V30 12 C -2.571841 0.032400 -1.448271 0
M  V30 13 O -2.516673 0.633156 -2.687860 0
M  V30 14 C -3.564535 0.562272 -3.601446 0
M  V30 15 C -3.122112 -0.060912 -4.914366 0
M  V30 16 C -2.607116 0.955081 -5.902668 0
M  V30 17 N -3.652500 1.881276 -6.304110 0
M  V30 18 C -4.109176 1.640419 -7.635735 0
M  V30 19 C -4.724343 1.840785 -5.324417 0
M  V30 20 C -4.155485 1.917853 -3.924670 0
M  V30 21 C -1.364722 0.286028 -0.775958 0
M  V30 22 C -1.124964 -0.201100 0.516123 0
M  V30 23 N -2.081715 -0.928324 1.117338 0
M  V30 24 C -1.656933 -1.295765 4.683117 0
M  V30 25 C -0.710271 -1.324264 5.686654 0
M  V30 26 C 0.605876 -1.617931 5.398289 0
M  V30 27 C 1.413454 -1.622533 6.602667 0
M  V30 28 N 2.718759 -1.881148 7.023497 0
M  V30 29 O 1.089122 -1.347819 7.787903 0
M  V30 30 C 4.060983 -1.618791 2.240080 0
M  V30 31 C 4.209860 -1.689292 0.842877 0
M  V30 32 C 5.086172 -0.954766 0.080827 0
M  V30 33 C 5.915950 -0.051678 0.707397 0
M  V30 34 C 5.804514 0.051295 2.074016 0
M  V30 35 C 4.907101 -0.705725 2.818692 0
M  V30 36 C 4.808821 -0.536647 4.259855 0
M  V30 37 F 3.615866 -0.082186 4.721916 0
M  V30 38 F 5.212525 -1.686355 4.958216 0
M  V30 39 F 5.735427 0.411311 4.651501 0
M  V30 40 H 4.523375 -4.113180 2.387780 0
M  V30 41 H 2.904458 -4.720596 2.784797 0
M  V30 42 H 3.863732 -4.100330 4.116941 0
M  V30 43 H 2.279955 -2.691498 2.029061 0
M  V30 44 H 0.372704 -2.067966 2.137981 0
M  V30 45 H -3.832782 -2.733403 3.259473 0
M  V30 46 H -4.395618 -0.854663 -1.377606 0
M  V30 47 H -4.398185 -0.048237 -3.210544 0
M  V30 48 H -3.887387 -0.674646 -5.396532 0
M  V30 49 H -2.253634 -0.729957 -4.695485 0
M  V30 50 H -1.781488 1.548542 -5.455640 0
M  V30 51 H -2.217131 0.392862 -6.759184 0
M  V30 52 H -4.105527 0.561309 -7.856450 0
M  V30 53 H -5.103941 2.084580 -7.804857 0
M  V30 54 H -3.430243 2.108330 -8.391969 0
M  V30 55 H -5.473925 2.624300 -5.511612 0
M  V30 56 H -5.227589 0.857344 -5.423238 0
M  V30 57 H -5.029289 2.113011 -3.252576 0
M  V30 58 H -3.416296 2.727723 -3.814549 0
M  V30 59 H -0.511046 0.851303 -1.132883 0
M  V30 60 H -0.222908 -0.029724 1.063382 0
M  V30 61 H -2.694825 -1.076981 4.826919 0
M  V30 62 H -1.126033 -1.098940 6.655562 0
M  V30 63 H 3.185190 -2.777599 7.358352 0
M  V30 64 H 3.576356 -1.295632 7.126286 0
M  V30 65 H 3.596926 -2.376432 0.252901 0
M  V30 66 H 5.154471 -1.052316 -0.985801 0
M  V30 67 H 6.605922 0.532902 0.151995 0
M  V30 68 H 6.441240 0.754152 2.623731 0
M  V30 END ATOM
M  V30 BEGIN BOND
M  V30 1 1 1 2
M  V30 2 1 2 3
M  V30 3 1 3 4
M  V30 4 2 4 5
M  V30 5 1 5 6
M  V30 6 1 6 7
M  V30 7 2 7 8
M  V30 8 1 8 9
M  V30 9 2 9 10
M  V30 10 1 10 11
M  V30 11 2 11 12
M  V30 12 1 12 13
M  V30 13 1 13 14
M  V30 14 1 14 15
M  V30 15 1 15 16
M  V30 16 1 16 17
M  V30 17 1 17 18
M  V30 18 1 17 19
M  V30 19 1 19 20
M  V30 20 1 12 21
M  V30 21 2 21 22
M  V30 22 1 22 23
M  V30 23 2 6 24
M  V30 24 1 24 25
M  V30 25 2 25 26
M  V30 26 1 26 27
M  V30 27 1 27 28
M  V30 28 2 27 29
M  V30 29 1 2 30
M  V30 30 2 30 31
M  V30 31 1 31 32
M  V30 32 2 32 33
M  V30 33 1 33 34
M  V30 34 2 34 35
M  V30 35 1 35 36
M  V30 36 1 36 37
M  V30 37 1 36 38
M  V30 38 1 36 39
M  V30 39 1 26 4
M  V30 40 1 35 30
M  V30 41 1 23 7
M  V30 42 1 23 10
M  V30 43 1 20 14
M  V30 44 1 1 40
M  V30 45 1 1 41
M  V30 46 1 1 42
M  V30 47 1 2 43 CFG=3
M  V30 48 1 5 44
M  V30 49 1 8 45
M  V30 50 1 11 46
M  V30 51 1 14 47
M  V30 52 1 15 48
M  V30 53 1 15 49
M  V30 54 1 16 50
M  V30 55 1 16 51
M  V30 56 1 18 52
M  V30 57 1 18 53
M  V30 58 1 18 54
M  V30 59 1 19 55
M  V30 60 1 19 56
M  V30 61 1 20 57
M  V30 62 1 20 58
M  V30 63 1 21 59
M  V30 64 1 22 60
M  V30 65 1 24 61
M  V30 66 1 25 62
M  V30 67 1 28 63
M  V30 68 1 28 64
M  V30 69 1 31 65
M  V30 70 1 32 66
M  V30 71 1 33 67
M  V30 72 1 34 68
M  V30 END BOND
M  V30 END CTAB
M  END
>  <Dataset>  (567) 
ChEMBL_Kinases

>  <Ligand_Instance>  (567) 
nan

>  <PDB_ID>  (567) 
nan

>  <Standardized_SMILES>  (567) 
C[C@@H](Oc1cc(-c2cnc3cc(OC4CCN(C)CC4)ccn23)ccc1C(N)=O)c1ccccc1C(F)(F)F

>  <Name>  (567) 
nan

>  <Pocket>  (567) 
nan

>  <ATP_Site>  (567) 
nan

>  <Peripheral>  (567) 
nan

>  <Num_H_Atoms_ProtBoundConf>  (567) 
nan

>  <Num_Resolved_Atoms>  (567) 
nan

>  <Num_Not_Resolved_Atoms>  (567) 
nan

$$$$
CHEMBL4062930
     RDKit          3D

  0  0  0  0  0  0  0  0  0  0999 V3000
M  V30 BEGIN CTAB
M  V30 COUNTS 25 26 0 0 0
M  V30 BEGIN ATOM
M  V30 1 C -2.078906 -3.823389 1.394019 0
M  V30 2 C -2.215084 -2.563470 2.223473 0
M  V30 3 N -0.950318 -1.831885 2.210678 0
M  V30 4 C 0.055327 -1.987278 3.090454 0
M  V30 5 N 1.053987 -1.148376 2.764920 0
M  V30 6 C 0.725613 -0.431488 1.673349 0
M  V30 7 N 1.503817 0.559545 1.012429 0
M  V30 8 C 1.114904 1.282955 -0.128845 0
M  V30 9 O -0.012389 1.048522 -0.621872 0
M  V30 10 C 2.052364 2.256149 -0.658567 0
M  V30 11 C 1.587083 3.038321 -1.923687 0
M  V30 12 S 3.096793 4.134411 -2.207627 0
M  V30 13 C 3.982109 3.393577 -0.703126 0
M  V30 14 N 3.242972 2.622992 -0.281562 0
M  V30 15 C -0.537374 -0.884947 1.351574 0
M  V30 16 H -2.453124 -3.670694 0.355704 0
M  V30 17 H -0.980210 -4.077378 1.378801 0
M  V30 18 H -2.589281 -4.706298 1.868430 0
M  V30 19 H -2.395898 -2.875377 3.264128 0
M  V30 20 H -3.039699 -1.943542 1.812415 0
M  V30 21 H 0.130390 -2.644390 3.935501 0
M  V30 22 H 2.461840 0.753947 1.437237 0
M  V30 23 H 0.542525 2.877992 -2.449499 0
M  V30 24 H 4.956245 3.797897 -0.520476 0
M  V30 25 H -1.168240 -0.582433 0.552112 0
M  V30 END ATOM
M  V30 BEGIN BOND
M  V30 1 1 1 2
M  V30 2 1 2 3
M  V30 3 1 3 4
M  V30 4 2 4 5
M  V30 5 1 5 6
M  V30 6 1 6 7
M  V30 7 1 7 8
M  V30 8 2 8 9
M  V30 9 1 8 10
M  V30 10 2 10 11
M  V30 11 1 11 12
M  V30 12 1 12 13
M  V30 13 2 13 14
M  V30 14 2 6 15
M  V30 15 1 15 3
M  V30 16 1 14 10
M  V30 17 1 1 16
M  V30 18 1 1 17
M  V30 19 1 1 18
M  V30 20 1 2 19
M  V30 21 1 2 20
M  V30 22 1 4 21
M  V30 23 1 7 22
M  V30 24 1 11 23
M  V30 25 1 13 24
M  V30 26 1 15 25
M  V30 END BOND
M  V30 END CTAB
M  END
>  <Dataset>  (568) 
ChEMBL_Kinases

>  <Ligand_Instance>  (568) 
nan

>  <PDB_ID>  (568) 
nan

>  <Standardized_SMILES>  (568) 
CCn1cnc(NC(=O)c2cscn2)c1

>  <Name>  (568) 
nan

>  <Pocket>  (568) 
nan

>  <ATP_Site>  (568) 
nan

>  <Peripheral>  (568) 
nan

>  <Num_H_Atoms_ProtBoundConf>  (568) 
nan

>  <Num_Resolved_Atoms>  (568) 
nan

>  <Num_Not_Resolved_Atoms>  (568) 
nan

$$$$
CHEMBL4062877
     RDKit          3D

  0  0  0  0  0  0  0  0  0  0999 V3000
M  V30 BEGIN CTAB
M  V30 COUNTS 57 61 0 0 0
M  V30 BEGIN ATOM
M  V30 1 C 4.562454 -4.277739 -0.528155 0
M  V30 2 C 4.555564 -3.670890 0.840307 0
M  V30 3 N 5.511644 -3.784053 1.783497 0
M  V30 4 N 5.129844 -3.095208 2.866319 0
M  V30 5 C 3.922555 -2.521469 2.652297 0
M  V30 6 C 3.066948 -1.724967 3.384227 0
M  V30 7 C 1.862534 -1.310304 2.812485 0
M  V30 8 C 1.516618 -1.693204 1.510035 0
M  V30 9 C 0.215964 -1.141662 1.127160 0
M  V30 10 C 0.169939 0.237380 1.132381 0
M  V30 11 C -0.997538 0.898001 0.791621 0
M  V30 12 N -1.139569 2.322309 0.769572 0
M  V30 13 C -2.329337 3.058125 0.419923 0 CFG=1
M  V30 14 C -2.023468 4.551327 0.548457 0
M  V30 15 O -3.129656 5.309051 0.224946 0
M  V30 16 C -2.726404 2.857140 -1.006268 0
M  V30 17 C -4.024514 2.627858 -1.409481 0
M  V30 18 C -4.409235 2.440237 -2.717950 0
M  V30 19 C -3.420177 2.484574 -3.705815 0
M  V30 20 C -2.113719 2.712982 -3.323576 0
M  V30 21 C -1.762696 2.897499 -1.997531 0
M  V30 22 C -2.036471 0.049723 0.468577 0
M  V30 23 N -2.010865 -1.277990 0.457904 0
M  V30 24 C -0.869026 -1.926159 0.791143 0
M  V30 25 C -0.733502 -3.380573 0.811196 0
M  V30 26 C -0.450868 -4.001155 2.010490 0
M  V30 27 C -0.321538 -5.384420 2.030478 0
M  V30 28 F -0.045683 -6.012947 3.189390 0
M  V30 29 C -0.466824 -6.155255 0.890063 0
M  V30 30 C -0.751462 -5.475776 -0.291424 0
M  V30 31 C -0.886773 -4.109704 -0.351565 0
M  V30 32 O -1.174474 -3.480236 -1.573588 0
M  V30 33 C 2.364720 -2.483322 0.783272 0
M  V30 34 C 3.546233 -2.877027 1.373805 0
M  V30 35 H 5.090969 -3.591896 -1.247480 0
M  V30 36 H 3.530046 -4.511030 -0.865975 0
M  V30 37 H 5.176903 -5.200143 -0.461487 0
M  V30 38 H 5.601291 -2.944814 3.798930 0
M  V30 39 H 3.354241 -1.441520 4.387369 0
M  V30 40 H 1.264435 -0.685754 3.478052 0
M  V30 41 H 1.029558 0.866103 1.398907 0
M  V30 42 H -0.252159 2.834954 1.045977 0
M  V30 43 H -3.181713 2.842957 1.084597 0
M  V30 44 H -1.696132 4.803033 1.583124 0
M  V30 45 H -1.217616 4.754417 -0.212665 0
M  V30 46 H -3.567525 5.649577 1.045396 0
M  V30 47 H -4.736814 2.608902 -0.570950 0
M  V30 48 H -5.478024 2.267483 -2.891534 0
M  V30 49 H -3.781282 2.331288 -4.706862 0
M  V30 50 H -1.420573 2.728109 -4.174834 0
M  V30 51 H -0.713389 3.070406 -1.793549 0
M  V30 52 H -3.002998 0.443114 0.185082 0
M  V30 53 H -0.322777 -3.487542 2.936171 0
M  V30 54 H -0.366570 -7.236713 0.902096 0
M  V30 55 H -0.863396 -6.091438 -1.181176 0
M  V30 56 H -0.998885 -2.467293 -1.621744 0
M  V30 57 H 2.013204 -2.718095 -0.190543 0
M  V30 END ATOM
M  V30 BEGIN BOND
M  V30 1 1 1 2
M  V30 2 2 2 3
M  V30 3 1 3 4
M  V30 4 1 4 5
M  V30 5 2 5 6
M  V30 6 1 6 7
M  V30 7 2 7 8
M  V30 8 1 8 9
M  V30 9 2 9 10
M  V30 10 1 10 11
M  V30 11 1 11 12
M  V30 12 1 12 13
M  V30 13 1 13 14
M  V30 14 1 14 15
M  V30 15 1 13 16
M  V30 16 2 16 17
M  V30 17 1 17 18
M  V30 18 2 18 19
M  V30 19 1 19 20
M  V30 20 2 20 21
M  V30 21 2 11 22
M  V30 22 1 22 23
M  V30 23 2 23 24
M  V30 24 1 24 25
M  V30 25 2 25 26
M  V30 26 1 26 27
M  V30 27 1 27 28
M  V30 28 2 27 29
M  V30 29 1 29 30
M  V30 30 2 30 31
M  V30 31 1 31 32
M  V30 32 1 8 33
M  V30 33 2 33 34
M  V30 34 1 34 2
M  V30 35 1 34 5
M  V30 36 1 24 9
M  V30 37 1 31 25
M  V30 38 1 21 16
M  V30 39 1 1 35
M  V30 40 1 1 36
M  V30 41 1 1 37
M  V30 42 1 4 38
M  V30 43 1 6 39
M  V30 44 1 7 40
M  V30 45 1 10 41
M  V30 46 1 12 42
M  V30 47 1 13 43 CFG=1
M  V30 48 1 14 44
M  V30 49 1 14 45
M  V30 50 1 15 46
M  V30 51 1 17 47
M  V30 52 1 18 48
M  V30 53 1 19 49
M  V30 54 1 20 50
M  V30 55 1 21 51
M  V30 56 1 22 52
M  V30 57 1 26 53
M  V30 58 1 29 54
M  V30 59 1 30 55
M  V30 60 1 32 56
M  V30 61 1 33 57
M  V30 END BOND
M  V30 END CTAB
M  END
>  <Dataset>  (569) 
ChEMBL_Kinases

>  <Ligand_Instance>  (569) 
nan

>  <PDB_ID>  (569) 
nan

>  <Standardized_SMILES>  (569) 
Cc1n[nH]c2ccc(-c3cc(N[C@@H](CO)c4ccccc4)cnc3-c3cc(F)ccc3O)cc12

>  <Name>  (569) 
nan

>  <Pocket>  (569) 
nan

>  <ATP_Site>  (569) 
nan

>  <Peripheral>  (569) 
nan

>  <Num_H_Atoms_ProtBoundConf>  (569) 
nan

>  <Num_Resolved_Atoms>  (569) 
nan

>  <Num_Not_Resolved_Atoms>  (569) 
nan

$$$$
CHEMBL4062848
     RDKit          3D

  0  0  0  0  0  0  0  0  0  0999 V3000
M  V30 BEGIN CTAB
M  V30 COUNTS 53 57 0 0 0
M  V30 BEGIN ATOM
M  V30 1 C -3.500614 -7.357307 -0.355060 0
M  V30 2 C -3.061920 -5.945834 -0.509599 0
M  V30 3 N -2.108681 -5.437753 0.322834 0
M  V30 4 N -1.873887 -4.175366 0.008082 0
M  V30 5 C -0.983728 -3.218787 0.566330 0
M  V30 6 C 0.321795 -2.910731 0.240862 0
M  V30 7 C 1.011235 -1.946978 0.917228 0
M  V30 8 C 0.422600 -1.240230 1.959517 0
M  V30 9 C 1.215896 -0.245562 2.616426 0
M  V30 10 N 1.844388 0.570737 3.152890 0
M  V30 11 C -0.883546 -1.536602 2.297917 0
M  V30 12 C -1.591460 -2.516985 1.612694 0
M  V30 13 C -2.638181 -3.783881 -1.024571 0
M  V30 14 O -2.904803 -2.690123 -1.822897 0
M  V30 15 C -2.259970 -1.479201 -1.658380 0
M  V30 16 C -2.680545 -0.446149 -0.841127 0
M  V30 17 C -1.919459 0.707907 -0.787386 0
M  V30 18 C -0.766606 0.817368 -1.536618 0
M  V30 19 C 0.019471 2.043696 -1.465866 0
M  V30 20 N 1.163332 2.317004 -2.122432 0
M  V30 21 C 1.610018 3.548221 -1.813695 0
M  V30 22 C 2.738547 4.204397 -2.267753 0
M  V30 23 C 2.936382 5.468335 -1.769916 0
M  V30 24 C 4.072374 6.259263 -2.161995 0
M  V30 25 N 5.072432 5.831245 -3.077654 0
M  V30 26 O 4.438685 7.418487 -1.829686 0
M  V30 27 C 2.049348 6.035909 -0.868606 0
M  V30 28 C 0.920796 5.337630 -0.435729 0
M  V30 29 C 0.698373 4.068696 -0.918956 0
M  V30 30 N -0.269559 3.127646 -0.720096 0
M  V30 31 C -0.321073 -0.213005 -2.370064 0
M  V30 32 C -1.100386 -1.331962 -2.393349 0
M  V30 33 C -3.403277 -4.905580 -1.366680 0
M  V30 34 N -4.396253 -5.204979 -2.339370 0 CHG=1 VAL=4
M  V30 35 O -5.595381 -4.861494 -2.417274 0
M  V30 36 O -3.962324 -6.018925 -3.383693 0 CHG=-1 VAL=1
M  V30 37 H -2.642993 -8.010501 -0.690548 0
M  V30 38 H -3.734256 -7.619011 0.684346 0
M  V30 39 H -4.301536 -7.561002 -1.085954 0
M  V30 40 H 0.680191 -3.516742 -0.579337 0
M  V30 41 H 2.041368 -1.793797 0.565033 0
M  V30 42 H -1.288235 -0.960761 3.110006 0
M  V30 43 H -2.598512 -2.631647 1.995134 0
M  V30 44 H -3.591671 -0.597472 -0.281607 0
M  V30 45 H -2.277947 1.500130 -0.135913 0
M  V30 46 H 3.419784 3.739303 -2.974641 0
M  V30 47 H 6.042067 5.486800 -2.932424 0
M  V30 48 H 5.079874 5.757184 -4.119070 0
M  V30 49 H 2.204539 7.032529 -0.475816 0
M  V30 50 H 0.225350 5.787353 0.272610 0
M  V30 51 H -1.094115 3.285610 -0.068202 0
M  V30 52 H 0.583823 -0.070629 -2.929926 0
M  V30 53 H -0.718975 -2.121001 -3.059610 0
M  V30 END ATOM
M  V30 BEGIN BOND
M  V30 1 1 1 2
M  V30 2 2 2 3
M  V30 3 1 3 4
M  V30 4 1 4 5
M  V30 5 2 5 6
M  V30 6 1 6 7
M  V30 7 2 7 8
M  V30 8 1 8 9
M  V30 9 3 9 10
M  V30 10 1 8 11
M  V30 11 2 11 12
M  V30 12 1 4 13
M  V30 13 1 13 14
M  V30 14 1 14 15
M  V30 15 2 15 16
M  V30 16 1 16 17
M  V30 17 2 17 18
M  V30 18 1 18 19
M  V30 19 2 19 20
M  V30 20 1 20 21
M  V30 21 2 21 22
M  V30 22 1 22 23
M  V30 23 1 23 24
M  V30 24 1 24 25
M  V30 25 2 24 26
M  V30 26 2 23 27
M  V30 27 1 27 28
M  V30 28 2 28 29
M  V30 29 1 29 30
M  V30 30 1 18 31
M  V30 31 2 31 32
M  V30 32 2 13 33
M  V30 33 1 33 34
M  V30 34 2 34 35
M  V30 35 1 34 36
M  V30 36 1 33 2
M  V30 37 1 12 5
M  V30 38 1 32 15
M  V30 39 1 30 19
M  V30 40 1 29 21
M  V30 41 1 1 37
M  V30 42 1 1 38
M  V30 43 1 1 39
M  V30 44 1 6 40
M  V30 45 1 7 41
M  V30 46 1 11 42
M  V30 47 1 12 43
M  V30 48 1 16 44
M  V30 49 1 17 45
M  V30 50 1 22 46
M  V30 51 1 25 47
M  V30 52 1 25 48
M  V30 53 1 27 49
M  V30 54 1 28 50
M  V30 55 1 30 51
M  V30 56 1 31 52
M  V30 57 1 32 53
M  V30 END BOND
M  V30 END CTAB
M  END
>  <Dataset>  (570) 
ChEMBL_Kinases

>  <Ligand_Instance>  (570) 
nan

>  <PDB_ID>  (570) 
nan

>  <Standardized_SMILES>  (570) 
Cc1nn(-c2ccc(C#N)cc2)c(Oc2ccc(-c3nc4cc(C(N)=O)ccc4[nH]3)cc2)c1[N+](=O)[O-]

>  <Name>  (570) 
nan

>  <Pocket>  (570) 
nan

>  <ATP_Site>  (570) 
nan

>  <Peripheral>  (570) 
nan

>  <Num_H_Atoms_ProtBoundConf>  (570) 
nan

>  <Num_Resolved_Atoms>  (570) 
nan

>  <Num_Not_Resolved_Atoms>  (570) 
nan

$$$$
CHEMBL406102
     RDKit          3D

  0  0  0  0  0  0  0  0  0  0999 V3000
M  V30 BEGIN CTAB
M  V30 COUNTS 29 31 0 0 0
M  V30 BEGIN ATOM
M  V30 1 C -3.107722 -0.856354 2.455666 0
M  V30 2 N -1.740816 -0.627751 1.991495 0
M  V30 3 C -1.099709 -1.292918 1.028222 0
M  V30 4 C 0.202964 -0.795935 0.859782 0
M  V30 5 C 1.081075 -1.338845 -0.142851 0
M  V30 6 C 2.429294 -1.462149 -0.220923 0
M  V30 7 C 3.156694 -2.057276 -1.219549 0
M  V30 8 N 2.432767 -2.577655 -2.235066 0
M  V30 9 C 1.090362 -2.500462 -2.235774 0
M  V30 10 N 0.355582 -3.056553 -3.314989 0
M  V30 11 N 0.480686 -1.896297 -1.209991 0
M  V30 12 C 0.214165 0.194795 1.807948 0
M  V30 13 C 1.229209 1.065932 2.105210 0
M  V30 14 O 2.444735 1.082597 1.493139 0
M  V30 15 C 1.077622 2.024254 3.079361 0
M  V30 16 C -0.111231 2.140788 3.792809 0
M  V30 17 N -1.080482 1.267338 3.465649 0
M  V30 18 C -0.955966 0.323690 2.518015 0
M  V30 19 H -3.830174 -0.437128 1.708580 0
M  V30 20 H -3.265285 -0.449873 3.460024 0
M  V30 21 H -3.302212 -1.954562 2.542646 0
M  V30 22 H -1.599728 -2.108510 0.488790 0
M  V30 23 H 3.021807 -1.106079 0.574621 0
M  V30 24 H 4.228828 -2.106065 -1.194730 0
M  V30 25 H -0.374106 -2.610648 -3.914476 0
M  V30 26 H 0.528043 -4.047078 -3.592065 0
M  V30 27 H 2.677868 1.528817 0.629572 0
M  V30 28 H 1.847744 2.731098 3.349506 0
M  V30 29 H -0.309116 2.870432 4.578074 0
M  V30 END ATOM
M  V30 BEGIN BOND
M  V30 1 1 1 2
M  V30 2 1 2 3
M  V30 3 2 3 4
M  V30 4 1 4 5
M  V30 5 2 5 6
M  V30 6 1 6 7
M  V30 7 2 7 8
M  V30 8 1 8 9
M  V30 9 1 9 10
M  V30 10 2 9 11
M  V30 11 1 4 12
M  V30 12 2 12 13
M  V30 13 1 13 14
M  V30 14 1 13 15
M  V30 15 2 15 16
M  V30 16 1 16 17
M  V30 17 2 17 18
M  V30 18 1 18 2
M  V30 19 1 11 5
M  V30 20 1 18 12
M  V30 21 1 1 19
M  V30 22 1 1 20
M  V30 23 1 1 21
M  V30 24 1 3 22
M  V30 25 1 6 23
M  V30 26 1 7 24
M  V30 27 1 10 25
M  V30 28 1 10 26
M  V30 29 1 14 27
M  V30 30 1 15 28
M  V30 31 1 16 29
M  V30 END BOND
M  V30 END CTAB
M  END
>  <Dataset>  (571) 
ChEMBL_Kinases

>  <Ligand_Instance>  (571) 
nan

>  <PDB_ID>  (571) 
nan

>  <Standardized_SMILES>  (571) 
Cn1cc(-c2ccnc(N)n2)c2c(O)ccnc21

>  <Name>  (571) 
MERIOLIN 8

>  <Pocket>  (571) 
nan

>  <ATP_Site>  (571) 
nan

>  <Peripheral>  (571) 
nan

>  <Num_H_Atoms_ProtBoundConf>  (571) 
nan

>  <Num_Resolved_Atoms>  (571) 
nan

>  <Num_Not_Resolved_Atoms>  (571) 
nan

$$$$
CHEMBL4862355
     RDKit          3D

  0  0  0  0  0  0  0  0  0  0999 V3000
M  V30 BEGIN CTAB
M  V30 COUNTS 69 73 0 0 0
M  V30 BEGIN ATOM
M  V30 1 C 1.072274 -4.530891 4.832210 0
M  V30 2 C 2.199207 -3.574447 4.587913 0
M  V30 3 C 3.241797 -3.599207 5.680695 0
M  V30 4 O 2.753987 -3.694661 3.306919 0
M  V30 5 C 2.807197 -2.804537 2.287523 0
M  V30 6 C 3.441752 -3.265445 1.145740 0
M  V30 7 C 3.588941 -2.495226 0.009769 0
M  V30 8 C 3.089703 -1.199579 -0.018201 0
M  V30 9 C 3.268716 -0.415718 -1.233045 0
M  V30 10 C 2.815276 0.877869 -1.362227 0
M  V30 11 C 2.973309 1.655777 -2.507899 0
M  V30 12 N 2.472193 3.001520 -2.573081 0
M  V30 13 C 1.588612 3.522075 -1.588240 0
M  V30 14 C 2.040187 4.592954 -0.845654 0
M  V30 15 C 1.138150 5.071063 0.107056 0
M  V30 16 N -0.105161 4.557296 0.328212 0
M  V30 17 C -0.529741 3.506614 -0.411718 0
M  V30 18 C -1.797588 2.985044 -0.197456 0
M  V30 19 C -2.251167 1.920923 -0.948672 0
M  V30 20 C -3.557680 1.279610 -0.827908 0
M  V30 21 C -4.800854 1.766764 -0.476469 0
M  V30 22 N -5.710084 0.777124 -0.513700 0
M  V30 23 N -5.096205 -0.333149 -0.877580 0
M  V30 24 C -5.598097 -1.663703 -1.072135 0
M  V30 25 C -5.570839 -2.538382 0.129473 0
M  V30 26 N -4.266581 -2.752430 0.683739 0
M  V30 27 C -3.375273 -3.531146 -0.137417 0
M  V30 28 C -4.264694 -3.134419 2.057452 0
M  V30 29 C -3.773539 -0.079971 -1.082689 0
M  V30 30 C -1.369889 1.430478 -1.902202 0
M  V30 31 C -0.095981 1.921124 -2.148358 0
M  V30 32 C 0.334505 2.987482 -1.381416 0
M  V30 33 C 3.622419 1.097587 -3.576868 0
M  V30 34 C 4.071814 -0.218581 -3.415909 0
M  V30 35 N 3.893506 -0.939077 -2.275451 0
M  V30 36 C 2.458405 -0.743500 1.119616 0
M  V30 37 C 2.315611 -1.521191 2.251657 0
M  V30 38 H 0.844514 -5.186164 3.972819 0
M  V30 39 H 1.396335 -5.214670 5.657632 0
M  V30 40 H 0.198420 -3.962942 5.199028 0
M  V30 41 H 1.763942 -2.554142 4.609404 0
M  V30 42 H 4.162380 -3.161246 5.267440 0
M  V30 43 H 3.382053 -4.600919 6.119400 0
M  V30 44 H 2.883839 -2.956346 6.510733 0
M  V30 45 H 3.866685 -4.262774 1.063385 0
M  V30 46 H 4.094791 -2.877973 -0.884588 0
M  V30 47 H 2.296292 1.366576 -0.549971 0
M  V30 48 H 2.777697 3.595208 -3.372290 0
M  V30 49 H 3.000730 5.072261 -0.940450 0
M  V30 50 H 1.364269 5.912570 0.762927 0
M  V30 51 H -2.471935 3.370316 0.542326 0
M  V30 52 H -4.960060 2.817688 -0.215306 0
M  V30 53 H -5.147275 -2.108084 -1.976088 0
M  V30 54 H -6.687506 -1.542416 -1.346176 0
M  V30 55 H -6.220394 -2.127112 0.907151 0
M  V30 56 H -5.967389 -3.537854 -0.185763 0
M  V30 57 H -3.454914 -3.319545 -1.201288 0
M  V30 58 H -3.460519 -4.603456 0.132878 0
M  V30 59 H -2.340955 -3.220959 0.180072 0
M  V30 60 H -5.324795 -3.314309 2.354865 0
M  V30 61 H -3.723932 -2.493415 2.749589 0
M  V30 62 H -3.787214 -4.142354 2.114612 0
M  V30 63 H -2.976641 -0.774242 -1.391539 0
M  V30 64 H -1.691143 0.594878 -2.512387 0
M  V30 65 H 0.503925 1.466750 -2.922351 0
M  V30 66 H 3.784333 1.631517 -4.496037 0
M  V30 67 H 4.589213 -0.675084 -4.256902 0
M  V30 68 H 2.060555 0.253185 1.131859 0
M  V30 69 H 1.829348 -1.166766 3.125664 0
M  V30 END ATOM
M  V30 BEGIN BOND
M  V30 1 1 1 2
M  V30 2 1 2 3
M  V30 3 1 2 4
M  V30 4 1 4 5
M  V30 5 2 5 6
M  V30 6 1 6 7
M  V30 7 2 7 8
M  V30 8 1 8 9
M  V30 9 2 9 10
M  V30 10 1 10 11
M  V30 11 1 11 12
M  V30 12 1 12 13
M  V30 13 2 13 14
M  V30 14 1 14 15
M  V30 15 2 15 16
M  V30 16 1 16 17
M  V30 17 2 17 18
M  V30 18 1 18 19
M  V30 19 1 19 20
M  V30 20 1 20 21
M  V30 21 2 21 22
M  V30 22 1 22 23
M  V30 23 1 23 24
M  V30 24 1 24 25
M  V30 25 1 25 26
M  V30 26 1 26 27
M  V30 27 1 26 28
M  V30 28 1 23 29
M  V30 29 2 19 30
M  V30 30 1 30 31
M  V30 31 2 31 32
M  V30 32 2 11 33
M  V30 33 1 33 34
M  V30 34 2 34 35
M  V30 35 1 8 36
M  V30 36 2 36 37
M  V30 37 1 37 5
M  V30 38 1 35 9
M  V30 39 1 32 13
M  V30 40 1 32 17
M  V30 41 2 29 20
M  V30 42 1 1 38
M  V30 43 1 1 39
M  V30 44 1 1 40
M  V30 45 1 2 41
M  V30 46 1 3 42
M  V30 47 1 3 43
M  V30 48 1 3 44
M  V30 49 1 6 45
M  V30 50 1 7 46
M  V30 51 1 10 47
M  V30 52 1 12 48
M  V30 53 1 14 49
M  V30 54 1 15 50
M  V30 55 1 18 51
M  V30 56 1 21 52
M  V30 57 1 24 53
M  V30 58 1 24 54
M  V30 59 1 25 55
M  V30 60 1 25 56
M  V30 61 1 27 57
M  V30 62 1 27 58
M  V30 63 1 27 59
M  V30 64 1 28 60
M  V30 65 1 28 61
M  V30 66 1 28 62
M  V30 67 1 29 63
M  V30 68 1 30 64
M  V30 69 1 31 65
M  V30 70 1 33 66
M  V30 71 1 34 67
M  V30 72 1 36 68
M  V30 73 1 37 69
M  V30 END BOND
M  V30 END CTAB
M  END
>  <Dataset>  (572) 
ChEMBL_Kinases

>  <Ligand_Instance>  (572) 
nan

>  <PDB_ID>  (572) 
nan

>  <Standardized_SMILES>  (572) 
CC(C)Oc1ccc(-c2cc(Nc3ccnc4cc(-c5cnn(CCN(C)C)c5)ccc34)ccn2)cc1

>  <Name>  (572) 
nan

>  <Pocket>  (572) 
nan

>  <ATP_Site>  (572) 
nan

>  <Peripheral>  (572) 
nan

>  <Num_H_Atoms_ProtBoundConf>  (572) 
nan

>  <Num_Resolved_Atoms>  (572) 
nan

>  <Num_Not_Resolved_Atoms>  (572) 
nan

$$$$
CHEMBL4062797
     RDKit          3D

  0  0  0  0  0  0  0  0  0  0999 V3000
M  V30 BEGIN CTAB
M  V30 COUNTS 31 33 0 0 0
M  V30 BEGIN ATOM
M  V30 1 O -0.278872 -2.036142 4.510270 0
M  V30 2 C -0.619688 -1.290209 3.561210 0
M  V30 3 C 0.008931 -1.123032 2.239803 0
M  V30 4 C 1.079280 -1.750797 1.804484 0
M  V30 5 C 1.577342 -1.469993 0.462663 0
M  V30 6 C 2.055644 -2.594022 -0.219546 0
M  V30 7 C 2.551513 -2.429949 -1.506249 0
M  V30 8 C 2.601951 -1.227722 -2.153278 0
M  V30 9 C 3.132651 -1.052686 -3.539826 0
M  V30 10 O 2.094260 -1.198098 -4.475120 0
M  V30 11 C 2.122123 -0.139960 -1.451777 0
M  V30 12 C 1.622549 -0.265070 -0.173984 0
M  V30 13 O -0.713984 -0.188869 1.517741 0
M  V30 14 C -1.786118 0.256671 2.316200 0
M  V30 15 C -2.715053 1.207496 1.881909 0
M  V30 16 C -3.682090 1.478953 2.859697 0
M  V30 17 C -3.725108 0.888134 4.102862 0
M  V30 18 C -2.758660 -0.040037 4.433160 0
M  V30 19 C -1.765755 -0.371118 3.533448 0
M  V30 20 H 1.554227 -2.459035 2.469348 0
M  V30 21 H 2.048937 -3.589209 0.229335 0
M  V30 22 H 2.913926 -3.303964 -2.014681 0
M  V30 23 H 3.508709 -0.019327 -3.633476 0
M  V30 24 H 3.886651 -1.814352 -3.813287 0
M  V30 25 H 1.462210 -1.912559 -4.246372 0
M  V30 26 H 2.118266 0.852622 -1.874541 0
M  V30 27 H 1.253289 0.567774 0.370723 0
M  V30 28 H -2.693949 1.676859 0.914150 0
M  V30 29 H -4.458407 2.208874 2.623295 0
M  V30 30 H -4.498291 1.149649 4.793949 0
M  V30 31 H -2.741847 -0.535195 5.393353 0
M  V30 END ATOM
M  V30 BEGIN BOND
M  V30 1 2 1 2
M  V30 2 1 2 3
M  V30 3 2 3 4
M  V30 4 1 4 5
M  V30 5 2 5 6
M  V30 6 1 6 7
M  V30 7 2 7 8
M  V30 8 1 8 9
M  V30 9 1 9 10
M  V30 10 1 8 11
M  V30 11 2 11 12
M  V30 12 1 3 13
M  V30 13 1 13 14
M  V30 14 2 14 15
M  V30 15 1 15 16
M  V30 16 2 16 17
M  V30 17 1 17 18
M  V30 18 2 18 19
M  V30 19 1 19 2
M  V30 20 1 12 5
M  V30 21 1 19 14
M  V30 22 1 4 20
M  V30 23 1 6 21
M  V30 24 1 7 22
M  V30 25 1 9 23
M  V30 26 1 9 24
M  V30 27 1 10 25
M  V30 28 1 11 26
M  V30 29 1 12 27
M  V30 30 1 15 28
M  V30 31 1 16 29
M  V30 32 1 17 30
M  V30 33 1 18 31
M  V30 END BOND
M  V30 END CTAB
M  END
>  <Dataset>  (573) 
ChEMBL_Kinases

>  <Ligand_Instance>  (573) 
nan

>  <PDB_ID>  (573) 
nan

>  <Standardized_SMILES>  (573) 
O=C1/C(=C/c2ccc(CO)cc2)Oc2ccccc21

>  <Name>  (573) 
nan

>  <Pocket>  (573) 
nan

>  <ATP_Site>  (573) 
nan

>  <Peripheral>  (573) 
nan

>  <Num_H_Atoms_ProtBoundConf>  (573) 
nan

>  <Num_Resolved_Atoms>  (573) 
nan

>  <Num_Not_Resolved_Atoms>  (573) 
nan

$$$$
CHEMBL4062791
     RDKit          3D

  0  0  0  0  0  0  0  0  0  0999 V3000
M  V30 BEGIN CTAB
M  V30 COUNTS 55 58 0 0 0
M  V30 BEGIN ATOM
M  V30 1 C -0.912743 -1.589951 5.802962 0
M  V30 2 O -0.613487 -1.870208 4.568437 0
M  V30 3 C -0.271204 -2.158317 3.365078 0
M  V30 4 C 1.039252 -2.582334 3.120350 0
M  V30 5 C 1.500534 -2.914059 1.861258 0
M  V30 6 C 0.575543 -2.800592 0.842535 0
M  V30 7 C 0.923907 -3.123795 -0.564963 0
M  V30 8 C 1.369431 -1.867652 -1.235703 0
M  V30 9 N 0.295403 -1.228744 -2.016780 0
M  V30 10 C -0.075334 0.082343 -1.617312 0
M  V30 11 N 0.685974 0.591845 -0.642486 0
M  V30 12 C 0.470325 1.840771 -0.132077 0
M  V30 13 C 1.349964 2.315460 0.929824 0
M  V30 14 C 1.236380 3.550709 1.525181 0
M  V30 15 C 2.133188 3.908076 2.537164 0
M  V30 16 N 3.117856 3.099019 2.969183 0
M  V30 17 C 3.256279 1.883473 2.407348 0
M  V30 18 C 2.374543 1.525488 1.408687 0
M  V30 19 C -0.552851 2.574318 -0.641123 0
M  V30 20 C -1.341286 2.074686 -1.634440 0
M  V30 21 O -2.306895 2.721249 -2.141172 0
M  V30 22 N -1.072672 0.841450 -2.087937 0
M  V30 23 C -1.897942 0.294982 -3.119055 0
M  V30 24 C -0.050742 -2.191225 -2.997660 0
M  V30 25 C -0.743299 -3.340905 -2.308030 0
M  V30 26 N -0.044823 -3.909890 -1.233614 0
M  V30 27 C -0.731757 -2.390123 1.007098 0
M  V30 28 C -1.162345 -2.062377 2.296806 0
M  V30 29 O -2.451489 -1.637245 2.586718 0
M  V30 30 C -3.381556 -1.527430 1.529450 0
M  V30 31 H -0.305467 -2.191220 6.547639 0
M  V30 32 H -1.974473 -1.819629 6.109889 0
M  V30 33 H -0.690772 -0.514066 6.079475 0
M  V30 34 H 1.747066 -2.662198 3.943121 0
M  V30 35 H 2.513999 -3.241270 1.674530 0
M  V30 36 H 1.847781 -3.770411 -0.513466 0
M  V30 37 H 1.754758 -1.153412 -0.487232 0
M  V30 38 H 2.241217 -2.047158 -1.928291 0
M  V30 39 H 0.447425 4.199724 1.179916 0
M  V30 40 H 2.033728 4.896588 3.005562 0
M  V30 41 H 4.049040 1.210806 2.742368 0
M  V30 42 H 2.538160 0.546097 1.001962 0
M  V30 43 H -0.773587 3.554096 -0.287989 0
M  V30 44 H -1.425718 0.302340 -4.119924 0
M  V30 45 H -2.805126 0.967850 -3.266650 0
M  V30 46 H -2.350511 -0.660527 -2.821271 0
M  V30 47 H 0.878665 -2.637101 -3.473519 0
M  V30 48 H -0.666043 -1.885047 -3.836993 0
M  V30 49 H -1.799088 -3.046965 -2.056121 0
M  V30 50 H -0.865201 -4.117007 -3.098176 0
M  V30 51 H -0.731334 -4.303162 -0.552057 0
M  V30 52 H -1.442018 -2.305161 0.209709 0
M  V30 53 H -3.792874 -2.492884 1.197828 0
M  V30 54 H -2.958797 -1.010039 0.636482 0
M  V30 55 H -4.243899 -0.870201 1.834727 0
M  V30 END ATOM
M  V30 BEGIN BOND
M  V30 1 1 1 2
M  V30 2 1 2 3
M  V30 3 2 3 4
M  V30 4 1 4 5
M  V30 5 2 5 6
M  V30 6 1 6 7
M  V30 7 1 7 8
M  V30 8 1 8 9
M  V30 9 1 9 10
M  V30 10 2 10 11
M  V30 11 1 11 12
M  V30 12 1 12 13
M  V30 13 2 13 14
M  V30 14 1 14 15
M  V30 15 2 15 16
M  V30 16 1 16 17
M  V30 17 2 17 18
M  V30 18 2 12 19
M  V30 19 1 19 20
M  V30 20 2 20 21
M  V30 21 1 20 22
M  V30 22 1 22 23
M  V30 23 1 9 24
M  V30 24 1 24 25
M  V30 25 1 25 26
M  V30 26 1 6 27
M  V30 27 2 27 28
M  V30 28 1 28 29
M  V30 29 1 29 30
M  V30 30 1 28 3
M  V30 31 1 26 7
M  V30 32 1 22 10
M  V30 33 1 18 13
M  V30 34 1 1 31
M  V30 35 1 1 32
M  V30 36 1 1 33
M  V30 37 1 4 34
M  V30 38 1 5 35
M  V30 39 1 7 36
M  V30 40 1 8 37
M  V30 41 1 8 38
M  V30 42 1 14 39
M  V30 43 1 15 40
M  V30 44 1 17 41
M  V30 45 1 18 42
M  V30 46 1 19 43
M  V30 47 1 23 44
M  V30 48 1 23 45
M  V30 49 1 23 46
M  V30 50 1 24 47
M  V30 51 1 24 48
M  V30 52 1 25 49
M  V30 53 1 25 50
M  V30 54 1 26 51
M  V30 55 1 27 52
M  V30 56 1 30 53
M  V30 57 1 30 54
M  V30 58 1 30 55
M  V30 END BOND
M  V30 END CTAB
M  END
>  <Dataset>  (574) 
ChEMBL_Kinases

>  <Ligand_Instance>  (574) 
nan

>  <PDB_ID>  (574) 
nan

>  <Standardized_SMILES>  (574) 
COc1ccc(C2CN(c3nc(-c4ccncc4)cc(=O)n3C)CCN2)cc1OC

>  <Name>  (574) 
nan

>  <Pocket>  (574) 
nan

>  <ATP_Site>  (574) 
nan

>  <Peripheral>  (574) 
nan

>  <Num_H_Atoms_ProtBoundConf>  (574) 
nan

>  <Num_Resolved_Atoms>  (574) 
nan

>  <Num_Not_Resolved_Atoms>  (574) 
nan

$$$$
CHEMBL4062790
     RDKit          3D

  0  0  0  0  0  0  0  0  0  0999 V3000
M  V30 BEGIN CTAB
M  V30 COUNTS 63 67 0 0 0
M  V30 BEGIN ATOM
M  V30 1 O 0.077577 -2.312024 2.907134 0
M  V30 2 C 0.962552 -1.678086 3.514885 0
M  V30 3 C 2.361391 -1.457774 3.021805 0
M  V30 4 C 2.490900 -2.155120 1.700155 0
M  V30 5 C 2.429092 -1.430017 0.530032 0
M  V30 6 C 2.530805 -1.992602 -0.740347 0
M  V30 7 C 2.431029 -1.107372 -1.955161 0 CFG=2
M  V30 8 C 3.389897 0.019902 -1.810826 0
M  V30 9 C 3.433737 0.957762 -2.962354 0
M  V30 10 N 2.172669 0.916471 -3.667538 0
M  V30 11 C 1.132494 0.836589 -2.662299 0
M  V30 12 C 1.008152 -0.585334 -2.089807 0 CFG=1
M  V30 13 C 0.200180 -1.336167 -3.076871 0
M  V30 14 O -1.101525 -0.852035 -3.170008 0
M  V30 15 C -2.019432 -0.877916 -2.157251 0
M  V30 16 C -2.078966 -1.319508 -0.862137 0
M  V30 17 C -3.188330 -1.193498 -0.066932 0
M  V30 18 C -4.341398 -0.595798 -0.546142 0
M  V30 19 C -4.357164 -0.123728 -1.850429 0
M  V30 20 C -3.202794 -0.271039 -2.631575 0
M  V30 21 O -5.613373 0.405770 -2.033350 0
M  V30 22 C -6.435054 0.008313 -0.971253 0
M  V30 23 O -5.554030 -0.373300 0.084424 0
M  V30 24 C 2.703664 -3.360388 -0.792428 0
M  V30 25 C 2.769265 -4.113527 0.365175 0
M  V30 26 C 2.662189 -3.508799 1.623344 0
M  V30 27 F 2.727690 -4.260247 2.748804 0
M  V30 28 N 0.768461 -1.055456 4.797323 0
M  V30 29 C -0.510593 -1.112212 5.499113 0
M  V30 30 C -1.429236 -0.121426 4.889243 0
M  V30 31 C -2.332142 -0.234770 3.867893 0
M  V30 32 C -3.079023 0.856397 3.479422 0
M  V30 33 C -2.958862 2.098191 4.088245 0
M  V30 34 C -2.022337 2.155468 5.124517 0
M  V30 35 N -1.291114 1.081466 5.502353 0
M  V30 36 H 2.593186 -0.379068 2.926040 0
M  V30 37 H 3.036238 -1.911950 3.774795 0
M  V30 38 H 2.291769 -0.363366 0.644189 0
M  V30 39 H 2.695047 -1.762080 -2.809607 0
M  V30 40 H 4.408987 -0.437963 -1.705303 0
M  V30 41 H 3.133436 0.629216 -0.912215 0
M  V30 42 H 4.313325 0.820859 -3.626676 0
M  V30 43 H 3.527281 2.032971 -2.624787 0
M  V30 44 H 2.107953 0.236880 -4.426132 0
M  V30 45 H 0.197122 1.173563 -3.106086 0
M  V30 46 H 1.436220 1.539212 -1.840246 0
M  V30 47 H 0.601190 -0.477283 -1.101854 0
M  V30 48 H 0.667968 -1.162025 -4.084237 0
M  V30 49 H 0.120918 -2.425943 -2.864945 0
M  V30 50 H -1.177202 -1.785056 -0.547087 0
M  V30 51 H -3.085476 -1.586879 0.929858 0
M  V30 52 H -3.369175 0.149011 -3.637330 0
M  V30 53 H -7.046174 -0.860671 -1.279311 0
M  V30 54 H -7.049848 0.819125 -0.561886 0
M  V30 55 H 2.786292 -3.819508 -1.791640 0
M  V30 56 H 2.906960 -5.188547 0.254364 0
M  V30 57 H 1.487021 -0.525401 5.330124 0
M  V30 58 H -0.941318 -2.136772 5.275631 0
M  V30 59 H -0.424501 -1.020623 6.583855 0
M  V30 60 H -2.369604 -1.215252 3.451518 0
M  V30 61 H -3.779440 0.722621 2.667635 0
M  V30 62 H -3.534409 2.965414 3.799097 0
M  V30 63 H -1.925600 3.128755 5.605368 0
M  V30 END ATOM
M  V30 BEGIN BOND
M  V30 1 2 1 2
M  V30 2 1 2 3
M  V30 3 1 3 4
M  V30 4 2 4 5
M  V30 5 1 5 6
M  V30 6 1 6 7
M  V30 7 1 7 8
M  V30 8 1 8 9
M  V30 9 1 9 10
M  V30 10 1 10 11
M  V30 11 1 11 12
M  V30 12 1 12 13
M  V30 13 1 13 14
M  V30 14 1 14 15
M  V30 15 2 15 16
M  V30 16 1 16 17
M  V30 17 2 17 18
M  V30 18 1 18 19
M  V30 19 2 19 20
M  V30 20 1 19 21
M  V30 21 1 21 22
M  V30 22 1 22 23
M  V30 23 2 6 24
M  V30 24 1 24 25
M  V30 25 2 25 26
M  V30 26 1 26 27
M  V30 27 1 2 28
M  V30 28 1 28 29
M  V30 29 1 29 30
M  V30 30 2 30 31
M  V30 31 1 31 32
M  V30 32 2 32 33
M  V30 33 1 33 34
M  V30 34 2 34 35
M  V30 35 1 26 4
M  V30 36 1 35 30
M  V30 37 1 12 7
M  V30 38 1 20 15
M  V30 39 1 23 18
M  V30 40 1 3 36
M  V30 41 1 3 37
M  V30 42 1 5 38
M  V30 43 1 7 39 CFG=3
M  V30 44 1 8 40
M  V30 45 1 8 41
M  V30 46 1 9 42
M  V30 47 1 9 43
M  V30 48 1 10 44
M  V30 49 1 11 45
M  V30 50 1 11 46
M  V30 51 1 12 47 CFG=1
M  V30 52 1 13 48
M  V30 53 1 13 49
M  V30 54 1 16 50
M  V30 55 1 17 51
M  V30 56 1 20 52
M  V30 57 1 22 53
M  V30 58 1 22 54
M  V30 59 1 24 55
M  V30 60 1 25 56
M  V30 61 1 28 57
M  V30 62 1 29 58
M  V30 63 1 29 59
M  V30 64 1 31 60
M  V30 65 1 32 61
M  V30 66 1 33 62
M  V30 67 1 34 63
M  V30 END BOND
M  V30 END CTAB
M  END
>  <Dataset>  (575) 
ChEMBL_Kinases

>  <Ligand_Instance>  (575) 
nan

>  <PDB_ID>  (575) 
nan

>  <Standardized_SMILES>  (575) 
O=C(Cc1cc([C@@H]2CCNC[C@H]2COc2ccc3c(c2)OCO3)ccc1F)NCc1ccccn1

>  <Name>  (575) 
nan

>  <Pocket>  (575) 
nan

>  <ATP_Site>  (575) 
nan

>  <Peripheral>  (575) 
nan

>  <Num_H_Atoms_ProtBoundConf>  (575) 
nan

>  <Num_Resolved_Atoms>  (575) 
nan

>  <Num_Not_Resolved_Atoms>  (575) 
nan

$$$$
CHEMBL4062772
     RDKit          3D

  0  0  0  0  0  0  0  0  0  0999 V3000
M  V30 BEGIN CTAB
M  V30 COUNTS 44 48 0 0 0
M  V30 BEGIN ATOM
M  V30 1 C 0.674096 -4.402937 0.708497 0
M  V30 2 C 1.771412 -3.561625 0.694102 0
M  V30 3 C 1.528834 -2.227409 0.972597 0
M  V30 4 C 2.658353 -1.294459 0.969927 0
M  V30 5 N 3.846149 -1.543075 1.554244 0
M  V30 6 N 4.672223 -0.505955 1.382884 0
M  V30 7 C 4.039445 0.449977 0.678418 0
M  V30 8 C 4.343179 1.709525 0.196099 0
M  V30 9 C 3.434410 2.465710 -0.521185 0
M  V30 10 C 2.157298 1.951861 -0.776473 0
M  V30 11 C 1.173656 2.766444 -1.550977 0
M  V30 12 C 1.060631 4.247399 -1.183357 0
M  V30 13 C 1.609087 3.774849 -2.520180 0
M  V30 14 C 1.846911 0.694808 -0.297954 0
M  V30 15 C 2.775155 -0.035503 0.414614 0
M  V30 16 C 0.259506 -1.757211 1.250650 0
M  V30 17 C -0.789837 -2.641872 1.249903 0
M  V30 18 N -2.148230 -2.309266 1.516548 0
M  V30 19 C -3.246091 -3.258001 1.511640 0
M  V30 20 C -3.851395 -3.245521 2.899312 0
M  V30 21 O -4.471234 -1.984557 3.036183 0
M  V30 22 C -3.448131 -1.063114 3.132405 0
M  V30 23 C -2.638352 -0.978819 1.831876 0
M  V30 24 N -0.559969 -3.939248 0.980013 0
M  V30 25 H 0.855245 -5.457728 0.489943 0
M  V30 26 H 2.751960 -3.946324 0.475416 0
M  V30 27 H 5.659197 -0.357630 1.698960 0
M  V30 28 H 5.338349 2.115628 0.392305 0
M  V30 29 H 3.653953 3.454113 -0.907040 0
M  V30 30 H 0.190858 2.257812 -1.693502 0
M  V30 31 H 1.804795 4.688227 -0.513144 0
M  V30 32 H 0.053256 4.697134 -1.139369 0
M  V30 33 H 0.935443 3.938512 -3.393169 0
M  V30 34 H 2.696530 3.878443 -2.708175 0
M  V30 35 H 0.854168 0.333338 -0.514545 0
M  V30 36 H 0.036935 -0.744273 1.467941 0
M  V30 37 H -2.842567 -4.243473 1.229386 0
M  V30 38 H -3.984135 -2.894882 0.772353 0
M  V30 39 H -4.591295 -4.073333 3.031951 0
M  V30 40 H -3.049278 -3.333012 3.660881 0
M  V30 41 H -2.739607 -1.430562 3.911117 0
M  V30 42 H -3.785288 -0.054381 3.429763 0
M  V30 43 H -3.278822 -0.569479 1.028530 0
M  V30 44 H -1.858916 -0.240954 2.028198 0
M  V30 END ATOM
M  V30 BEGIN BOND
M  V30 1 2 1 2
M  V30 2 1 2 3
M  V30 3 1 3 4
M  V30 4 2 4 5
M  V30 5 1 5 6
M  V30 6 1 6 7
M  V30 7 2 7 8
M  V30 8 1 8 9
M  V30 9 2 9 10
M  V30 10 1 10 11
M  V30 11 1 11 12
M  V30 12 1 12 13
M  V30 13 1 10 14
M  V30 14 2 14 15
M  V30 15 2 3 16
M  V30 16 1 16 17
M  V30 17 1 17 18
M  V30 18 1 18 19
M  V30 19 1 19 20
M  V30 20 1 20 21
M  V30 21 1 21 22
M  V30 22 1 22 23
M  V30 23 2 17 24
M  V30 24 1 24 1
M  V30 25 1 15 4
M  V30 26 1 23 18
M  V30 27 1 15 7
M  V30 28 1 13 11
M  V30 29 1 1 25
M  V30 30 1 2 26
M  V30 31 1 6 27
M  V30 32 1 8 28
M  V30 33 1 9 29
M  V30 34 1 11 30
M  V30 35 1 12 31
M  V30 36 1 12 32
M  V30 37 1 13 33
M  V30 38 1 13 34
M  V30 39 1 14 35
M  V30 40 1 16 36
M  V30 41 1 19 37
M  V30 42 1 19 38
M  V30 43 1 20 39
M  V30 44 1 20 40
M  V30 45 1 22 41
M  V30 46 1 22 42
M  V30 47 1 23 43
M  V30 48 1 23 44
M  V30 END BOND
M  V30 END CTAB
M  END
>  <Dataset>  (576) 
ChEMBL_Kinases

>  <Ligand_Instance>  (576) 
nan

>  <PDB_ID>  (576) 
nan

>  <Standardized_SMILES>  (576) 
c1cc(-c2n[nH]c3ccc(C4CC4)cc23)cc(N2CCOCC2)n1

>  <Name>  (576) 
nan

>  <Pocket>  (576) 
nan

>  <ATP_Site>  (576) 
nan

>  <Peripheral>  (576) 
nan

>  <Num_H_Atoms_ProtBoundConf>  (576) 
nan

>  <Num_Resolved_Atoms>  (576) 
nan

>  <Num_Not_Resolved_Atoms>  (576) 
nan

$$$$
CHEMBL4862404
     RDKit          3D

  0  0  0  0  0  0  0  0  0  0999 V3000
M  V30 BEGIN CTAB
M  V30 COUNTS 53 58 0 0 0
M  V30 BEGIN ATOM
M  V30 1 C 5.081193 3.419534 2.205267 0
M  V30 2 O 3.742585 3.042710 2.029532 0
M  V30 3 C 3.301244 1.869110 1.423676 0
M  V30 4 N 4.313439 1.095336 1.002598 0
M  V30 5 C 4.052267 -0.074038 0.395399 0
M  V30 6 C 2.717635 -0.388844 0.251886 0
M  V30 7 C 1.668048 0.394064 0.678967 0
M  V30 8 C 1.931415 1.570242 1.289799 0
M  V30 9 N 1.055877 2.566281 1.793155 0
M  V30 10 S -0.455748 3.374545 1.673073 0
M  V30 11 O -0.430664 4.558572 2.615292 0
M  V30 12 O -0.543770 4.058871 0.287528 0
M  V30 13 C -1.842795 2.392954 1.926568 0
M  V30 14 C -2.863141 3.044241 2.648642 0
M  V30 15 C -4.115008 2.553835 3.039288 0
M  V30 16 C -4.368392 1.242049 2.653045 0
M  V30 17 C -3.382924 0.587573 1.945748 0
M  V30 18 C -2.164658 1.107277 1.580955 0
M  V30 19 C -3.780184 -0.760502 1.630455 0
M  V30 20 O -4.761492 -1.374425 2.093129 0
M  V30 21 N -3.496493 -1.917528 0.887490 0
M  V30 22 C -4.100372 -3.230233 0.745563 0
M  V30 23 C -3.248689 -3.968019 -0.229761 0
M  V30 24 C -3.250187 -4.844371 -1.236662 0
M  V30 25 C -2.142147 -5.257486 -1.889612 0
M  V30 26 C -0.995782 -4.600997 -1.319217 0
M  V30 27 S -1.515168 -3.572027 -0.051831 0
M  V30 28 C 0.468903 -4.751710 -1.746708 0
M  V30 29 N 0.938288 -5.767462 -2.456960 0
M  V30 30 C 2.281584 -5.675496 -2.728965 0
M  V30 31 N 3.083448 -4.671662 -2.334209 0
M  V30 32 C 2.629591 -3.632497 -1.613853 0
M  V30 33 C 3.253821 -2.534403 -1.122002 0
M  V30 34 C 2.507641 -1.656149 -0.426422 0
M  V30 35 S 0.873022 -2.291780 -0.401594 0
M  V30 36 C 1.269502 -3.726381 -1.338678 0
M  V30 37 H 5.268602 3.823564 3.215827 0
M  V30 38 H 5.715424 2.498714 2.052606 0
M  V30 39 H 5.357762 4.192106 1.447176 0
M  V30 40 H 4.869977 -0.696171 0.057814 0
M  V30 41 H 0.691120 -0.009091 0.483194 0
M  V30 42 H 1.517595 3.008052 2.656823 0
M  V30 43 H -2.751990 4.092196 2.997410 0
M  V30 44 H -4.818852 3.130514 3.586180 0
M  V30 45 H -5.333079 0.835193 2.943285 0
M  V30 46 H -1.526308 0.440987 1.024512 0
M  V30 47 H -2.653868 -1.501129 0.438908 0
M  V30 48 H -4.002462 -3.798680 1.692075 0
M  V30 49 H -5.125344 -3.184017 0.357366 0
M  V30 50 H -4.260361 -5.195032 -1.476833 0
M  V30 51 H -2.117791 -5.962148 -2.703081 0
M  V30 52 H 2.709474 -6.497324 -3.315734 0
M  V30 53 H 4.334280 -2.372896 -1.290509 0
M  V30 END ATOM
M  V30 BEGIN BOND
M  V30 1 1 1 2
M  V30 2 1 2 3
M  V30 3 2 3 4
M  V30 4 1 4 5
M  V30 5 2 5 6
M  V30 6 1 6 7
M  V30 7 2 7 8
M  V30 8 1 8 9
M  V30 9 1 9 10
M  V30 10 2 10 11
M  V30 11 2 10 12
M  V30 12 1 10 13
M  V30 13 2 13 14
M  V30 14 1 14 15
M  V30 15 2 15 16
M  V30 16 1 16 17
M  V30 17 2 17 18
M  V30 18 1 17 19
M  V30 19 2 19 20
M  V30 20 1 19 21
M  V30 21 1 21 22
M  V30 22 1 22 23
M  V30 23 2 23 24
M  V30 24 1 24 25
M  V30 25 2 25 26
M  V30 26 1 26 27
M  V30 27 1 26 28
M  V30 28 1 28 29
M  V30 29 2 29 30
M  V30 30 1 30 31
M  V30 31 2 31 32
M  V30 32 1 32 33
M  V30 33 2 33 34
M  V30 34 1 34 35
M  V30 35 1 35 36
M  V30 36 1 8 3
M  V30 37 1 18 13
M  V30 38 1 27 23
M  V30 39 2 36 28
M  V30 40 1 34 6
M  V30 41 1 36 32
M  V30 42 1 1 37
M  V30 43 1 1 38
M  V30 44 1 1 39
M  V30 45 1 5 40
M  V30 46 1 7 41
M  V30 47 1 9 42
M  V30 48 1 14 43
M  V30 49 1 15 44
M  V30 50 1 16 45
M  V30 51 1 18 46
M  V30 52 1 21 47
M  V30 53 1 22 48
M  V30 54 1 22 49
M  V30 55 1 24 50
M  V30 56 1 25 51
M  V30 57 1 30 52
M  V30 58 1 33 53
M  V30 END BOND
M  V30 END CTAB
M  END
>  <Dataset>  (577) 
ChEMBL_Kinases

>  <Ligand_Instance>  (577) 
nan

>  <PDB_ID>  (577) 
nan

>  <Standardized_SMILES>  (577) 
COc1ncc2cc1NS(=O)(=O)c1cccc(c1)C(=O)NCc1ccc(s1)-c1ncnc3cc-2sc13

>  <Name>  (577) 
nan

>  <Pocket>  (577) 
nan

>  <ATP_Site>  (577) 
nan

>  <Peripheral>  (577) 
nan

>  <Num_H_Atoms_ProtBoundConf>  (577) 
nan

>  <Num_Resolved_Atoms>  (577) 
nan

>  <Num_Not_Resolved_Atoms>  (577) 
nan

$$$$
CHEMBL4062679
     RDKit          3D

  0  0  0  0  0  0  0  0  0  0999 V3000
M  V30 BEGIN CTAB
M  V30 COUNTS 54 58 0 0 0
M  V30 BEGIN ATOM
M  V30 1 N 4.058148 -9.275022 0.126747 0
M  V30 2 C 4.062386 -7.843387 0.164457 0
M  V30 3 C 3.801979 -7.255397 1.372227 0
M  V30 4 C 3.801978 -5.865158 1.431722 0
M  V30 5 C 4.071563 -5.185985 0.237206 0
M  V30 6 C 4.039533 -3.721131 0.446240 0
M  V30 7 C 5.053552 -2.833253 0.800375 0
M  V30 8 N 4.514392 -1.591160 0.866300 0
M  V30 9 C 3.199983 -1.667075 0.566701 0
M  V30 10 C 2.178737 -0.714937 0.484353 0
M  V30 11 C 0.872451 -1.073889 0.145000 0
M  V30 12 C -0.119296 -0.000331 0.088672 0
M  V30 13 C 0.010505 1.080416 0.939026 0
M  V30 14 C -0.930226 2.089171 0.878355 0
M  V30 15 C -2.009706 2.112134 0.025487 0
M  V30 16 N -2.961549 3.162242 -0.021807 0
M  V30 17 C -2.849475 4.394429 0.725124 0
M  V30 18 C -3.892589 4.474998 1.825727 0
M  V30 19 C -5.077767 3.591788 1.492590 0
M  V30 20 N -6.238307 4.086839 2.175396 0
M  V30 21 C -5.362374 3.581193 0.010329 0
M  V30 22 C -4.159847 3.128862 -0.810475 0
M  V30 23 C -2.085132 1.010811 -0.795357 0
M  V30 24 C -1.183082 -0.033656 -0.790380 0
M  V30 25 C 0.574122 -2.402610 -0.117668 0
M  V30 26 C 1.570071 -3.358943 -0.041532 0
M  V30 27 C 2.864755 -2.986548 0.297374 0
M  V30 28 C 4.327166 -5.791811 -0.949397 0
M  V30 29 F 4.573959 -5.011166 -2.035553 0
M  V30 30 N 4.316582 -7.145565 -0.959723 0
M  V30 31 H 3.463377 -9.839756 0.783600 0
M  V30 32 H 4.620119 -9.888515 -0.527785 0
M  V30 33 H 3.598626 -7.822201 2.272124 0
M  V30 34 H 3.595711 -5.404643 2.387880 0
M  V30 35 H 6.079195 -3.159019 0.976996 0
M  V30 36 H 5.041221 -0.719870 1.111118 0
M  V30 37 H 2.510934 0.302623 0.708086 0
M  V30 38 H 0.848810 1.092171 1.621817 0
M  V30 39 H -0.747892 2.883134 1.576418 0
M  V30 40 H -3.096068 5.240491 0.021913 0
M  V30 41 H -1.825734 4.503713 1.126438 0
M  V30 42 H -3.446116 4.076831 2.757416 0
M  V30 43 H -4.203995 5.516286 2.042127 0
M  V30 44 H -4.870120 2.573934 1.868767 0
M  V30 45 H -7.114362 3.619375 1.876993 0
M  V30 46 H -6.116883 4.064616 3.211058 0
M  V30 47 H -6.184153 2.854275 -0.144083 0
M  V30 48 H -5.703592 4.590424 -0.296194 0
M  V30 49 H -4.007779 3.915451 -1.608606 0
M  V30 50 H -4.352369 2.204811 -1.346411 0
M  V30 51 H -2.869960 0.875281 -1.522817 0
M  V30 52 H -1.253687 -0.893742 -1.440785 0
M  V30 53 H -0.439981 -2.654874 -0.377156 0
M  V30 54 H 1.343146 -4.410108 -0.247734 0
M  V30 END ATOM
M  V30 BEGIN BOND
M  V30 1 1 1 2
M  V30 2 2 2 3
M  V30 3 1 3 4
M  V30 4 2 4 5
M  V30 5 1 5 6
M  V30 6 2 6 7
M  V30 7 1 7 8
M  V30 8 1 8 9
M  V30 9 2 9 10
M  V30 10 1 10 11
M  V30 11 1 11 12
M  V30 12 2 12 13
M  V30 13 1 13 14
M  V30 14 2 14 15
M  V30 15 1 15 16
M  V30 16 1 16 17
M  V30 17 1 17 18
M  V30 18 1 18 19
M  V30 19 1 19 20
M  V30 20 1 19 21
M  V30 21 1 21 22
M  V30 22 1 15 23
M  V30 23 2 23 24
M  V30 24 2 11 25
M  V30 25 1 25 26
M  V30 26 2 26 27
M  V30 27 1 5 28
M  V30 28 1 28 29
M  V30 29 2 28 30
M  V30 30 1 30 2
M  V30 31 1 27 6
M  V30 32 1 27 9
M  V30 33 1 24 12
M  V30 34 1 22 16
M  V30 35 1 1 31
M  V30 36 1 1 32
M  V30 37 1 3 33
M  V30 38 1 4 34
M  V30 39 1 7 35
M  V30 40 1 8 36
M  V30 41 1 10 37
M  V30 42 1 13 38
M  V30 43 1 14 39
M  V30 44 1 17 40
M  V30 45 1 17 41
M  V30 46 1 18 42
M  V30 47 1 18 43
M  V30 48 1 19 44
M  V30 49 1 20 45
M  V30 50 1 20 46
M  V30 51 1 21 47
M  V30 52 1 21 48
M  V30 53 1 22 49
M  V30 54 1 22 50
M  V30 55 1 23 51
M  V30 56 1 24 52
M  V30 57 1 25 53
M  V30 58 1 26 54
M  V30 END BOND
M  V30 END CTAB
M  END
>  <Dataset>  (578) 
ChEMBL_Kinases

>  <Ligand_Instance>  (578) 
nan

>  <PDB_ID>  (578) 
nan

>  <Standardized_SMILES>  (578) 
Nc1ccc(-c2c[nH]c3cc(-c4ccc(N5CCC(N)CC5)cc4)ccc23)c(F)n1

>  <Name>  (578) 
nan

>  <Pocket>  (578) 
nan

>  <ATP_Site>  (578) 
nan

>  <Peripheral>  (578) 
nan

>  <Num_H_Atoms_ProtBoundConf>  (578) 
nan

>  <Num_Resolved_Atoms>  (578) 
nan

>  <Num_Not_Resolved_Atoms>  (578) 
nan

$$$$
CHEMBL4862414
     RDKit          3D

  0  0  0  0  0  0  0  0  0  0999 V3000
M  V30 BEGIN CTAB
M  V30 COUNTS 39 40 0 0 0
M  V30 BEGIN ATOM
M  V30 1 C -0.984145 -2.912947 1.594573 0
M  V30 2 C -0.513556 -4.119457 0.853298 0
M  V30 3 C -1.651205 -4.673415 0.047185 0
M  V30 4 C 0.752366 -3.959892 0.111578 0
M  V30 5 C 0.772650 -2.912412 -0.947021 0 CFG=1
M  V30 6 N -0.219378 -3.148444 -1.989218 0
M  V30 7 C 0.690118 -1.534893 -0.416171 0
M  V30 8 O 1.597103 -1.446157 0.481083 0
M  V30 9 N -0.157132 -0.416901 -0.723492 0
M  V30 10 C 0.175698 0.705272 0.087435 0
M  V30 11 C 1.115964 1.624381 -0.329297 0
M  V30 12 C 1.443460 2.713640 0.450678 0
M  V30 13 C 0.782640 2.837137 1.669060 0
M  V30 14 C 1.064054 3.966307 2.571682 0
M  V30 15 C 1.990395 4.972858 2.282837 0
M  V30 16 N 1.996294 5.848716 3.326769 0
M  V30 17 C 1.097997 5.369613 4.204633 0
M  V30 18 O 0.552764 4.262738 3.755888 0
M  V30 19 C -0.161110 1.930149 2.106005 0
M  V30 20 C -0.485333 0.833309 1.311616 0
M  V30 21 H -0.250297 -2.442632 2.257718 0
M  V30 22 H -1.791270 -3.286199 2.292584 0
M  V30 23 H -1.544689 -2.190239 0.940675 0
M  V30 24 H -0.309015 -4.895046 1.650450 0
M  V30 25 H -2.459382 -5.028286 0.746113 0
M  V30 26 H -2.162331 -3.907574 -0.572883 0
M  V30 27 H -1.376330 -5.586487 -0.522494 0
M  V30 28 H 1.569834 -3.740987 0.823236 0
M  V30 29 H 1.016787 -4.911289 -0.369344 0
M  V30 30 H 1.754987 -2.996850 -1.460261 0
M  V30 31 H -0.380702 -4.146183 -2.162611 0
M  V30 32 H 0.096711 -2.736323 -2.918040 0
M  V30 33 H -0.819603 -0.705071 -1.477600 0
M  V30 34 H 1.628384 1.520148 -1.284242 0
M  V30 35 H 2.174173 3.445948 0.148522 0
M  V30 36 H 2.613896 5.061828 1.380569 0
M  V30 37 H 0.861833 5.850113 5.164868 0
M  V30 38 H -0.678471 2.021993 3.054058 0
M  V30 39 H -1.217193 0.092733 1.605676 0
M  V30 END ATOM
M  V30 BEGIN BOND
M  V30 1 1 1 2
M  V30 2 1 2 3
M  V30 3 1 2 4
M  V30 4 1 4 5
M  V30 5 1 5 6
M  V30 6 1 5 7
M  V30 7 2 7 8
M  V30 8 1 7 9
M  V30 9 1 9 10
M  V30 10 2 10 11
M  V30 11 1 11 12
M  V30 12 2 12 13
M  V30 13 1 13 14
M  V30 14 2 14 15
M  V30 15 1 15 16
M  V30 16 2 16 17
M  V30 17 1 17 18
M  V30 18 1 13 19
M  V30 19 2 19 20
M  V30 20 1 20 10
M  V30 21 1 18 14
M  V30 22 1 1 21
M  V30 23 1 1 22
M  V30 24 1 1 23
M  V30 25 1 2 24
M  V30 26 1 3 25
M  V30 27 1 3 26
M  V30 28 1 3 27
M  V30 29 1 4 28
M  V30 30 1 4 29
M  V30 31 1 5 30 CFG=3
M  V30 32 1 6 31
M  V30 33 1 6 32
M  V30 34 1 9 33
M  V30 35 1 11 34
M  V30 36 1 12 35
M  V30 37 1 15 36
M  V30 38 1 17 37
M  V30 39 1 19 38
M  V30 40 1 20 39
M  V30 END BOND
M  V30 END CTAB
M  END
>  <Dataset>  (579) 
ChEMBL_Kinases

>  <Ligand_Instance>  (579) 
nan

>  <PDB_ID>  (579) 
nan

>  <Standardized_SMILES>  (579) 
CC(C)C[C@@H](N)C(=O)Nc1ccc(-c2cnco2)cc1

>  <Name>  (579) 
nan

>  <Pocket>  (579) 
nan

>  <ATP_Site>  (579) 
nan

>  <Peripheral>  (579) 
nan

>  <Num_H_Atoms_ProtBoundConf>  (579) 
nan

>  <Num_Resolved_Atoms>  (579) 
nan

>  <Num_Not_Resolved_Atoms>  (579) 
nan

$$$$
CHEMBL4862478
     RDKit          3D

  0  0  0  0  0  0  0  0  0  0999 V3000
M  V30 BEGIN CTAB
M  V30 COUNTS 57 59 0 0 0
M  V30 BEGIN ATOM
M  V30 1 C 1.497513 -1.868534 -0.089112 0
M  V30 2 C 0.564716 -1.640387 1.036575 0
M  V30 3 C 0.725313 -0.590710 1.897525 0
M  V30 4 C -0.102133 -0.323160 2.961320 0
M  V30 5 N 0.018939 0.748180 3.881771 0
M  V30 6 C 0.970527 1.778057 3.957131 0
M  V30 7 O 1.877386 1.809619 3.109091 0
M  V30 8 C 0.987527 2.833316 4.962336 0 CFG=2
M  V30 9 O -0.009604 2.742888 5.931410 0
M  V30 10 C 0.841290 4.177307 4.351282 0
M  V30 11 C 0.822781 4.577164 3.032500 0
M  V30 12 C 0.676876 5.907392 2.709119 0
M  V30 13 F 0.673099 6.182771 1.376022 0
M  V30 14 C 0.542019 6.913398 3.640037 0
M  V30 15 C 0.559551 6.520312 4.962468 0
M  V30 16 F 0.426834 7.510286 5.880852 0
M  V30 17 C 0.705186 5.192861 5.286145 0
M  V30 18 C -1.143442 -1.208829 3.115652 0
M  V30 19 C -1.331661 -2.275186 2.265340 0
M  V30 20 C -0.484260 -2.519525 1.204571 0
M  V30 21 C -0.758552 -3.659866 0.362403 0
M  V30 22 C -1.066584 -4.868331 0.956345 0
M  V30 23 N -1.336735 -5.982185 0.217507 0
M  V30 24 C -1.299741 -5.892332 -1.145665 0
M  V30 25 N -1.592937 -7.096600 -1.848714 0
M  V30 26 C -0.996598 -4.705822 -1.797233 0
M  V30 27 C -0.982082 -4.708870 -3.258986 0
M  V30 28 O -1.249219 -5.803489 -3.818728 0
M  V30 29 N -0.680435 -3.530314 -3.996948 0
M  V30 30 C -0.614750 -3.325718 -5.410533 0
M  V30 31 C 0.808606 -2.927073 -5.746425 0
M  V30 32 C -1.539032 -2.262042 -5.912218 0
M  V30 33 C -0.728415 -3.598133 -1.017509 0
M  V30 34 H 1.324632 -1.212527 -0.964256 0
M  V30 35 H 2.554971 -1.605429 0.216277 0
M  V30 36 H 1.600281 -2.954695 -0.362386 0
M  V30 37 H 1.553802 0.046121 1.708984 0
M  V30 38 H -0.695497 0.828114 4.651365 0
M  V30 39 H 1.999655 2.834087 5.445824 0
M  V30 40 H -0.874286 2.796660 5.417755 0
M  V30 41 H 0.928833 3.761461 2.335859 0
M  V30 42 H 0.432874 7.923457 3.314614 0
M  V30 43 H 0.701670 5.027853 6.368854 0
M  V30 44 H -1.861398 -1.078313 3.940179 0
M  V30 45 H -2.162346 -2.927172 2.441468 0
M  V30 46 H -1.120740 -5.039063 2.038849 0
M  V30 47 H -0.964722 -7.951430 -1.863253 0
M  V30 48 H -2.434105 -7.281929 -2.418027 0
M  V30 49 H -0.459189 -2.623859 -3.529236 0
M  V30 50 H -0.836128 -4.243718 -5.999289 0
M  V30 51 H 0.788147 -2.378540 -6.710344 0
M  V30 52 H 1.091063 -2.184153 -4.945091 0
M  V30 53 H 1.529956 -3.748362 -5.694223 0
M  V30 54 H -1.026074 -1.681549 -6.705379 0
M  V30 55 H -1.852176 -1.544684 -5.133328 0
M  V30 56 H -2.444096 -2.701478 -6.424332 0
M  V30 57 H -0.495097 -2.681048 -1.495126 0
M  V30 END ATOM
M  V30 BEGIN BOND
M  V30 1 1 1 2
M  V30 2 2 2 3
M  V30 3 1 3 4
M  V30 4 1 4 5
M  V30 5 1 5 6
M  V30 6 2 6 7
M  V30 7 1 6 8
M  V30 8 1 8 9
M  V30 9 1 8 10
M  V30 10 2 10 11
M  V30 11 1 11 12
M  V30 12 1 12 13
M  V30 13 2 12 14
M  V30 14 1 14 15
M  V30 15 1 15 16
M  V30 16 2 15 17
M  V30 17 2 4 18
M  V30 18 1 18 19
M  V30 19 2 19 20
M  V30 20 1 20 21
M  V30 21 2 21 22
M  V30 22 1 22 23
M  V30 23 2 23 24
M  V30 24 1 24 25
M  V30 25 1 24 26
M  V30 26 1 26 27
M  V30 27 2 27 28
M  V30 28 1 27 29
M  V30 29 1 29 30
M  V30 30 1 30 31
M  V30 31 1 30 32
M  V30 32 2 26 33
M  V30 33 1 20 2
M  V30 34 1 33 21
M  V30 35 1 17 10
M  V30 36 1 1 34
M  V30 37 1 1 35
M  V30 38 1 1 36
M  V30 39 1 3 37
M  V30 40 1 5 38
M  V30 41 1 8 39 CFG=1
M  V30 42 1 9 40
M  V30 43 1 11 41
M  V30 44 1 14 42
M  V30 45 1 17 43
M  V30 46 1 18 44
M  V30 47 1 19 45
M  V30 48 1 22 46
M  V30 49 1 25 47
M  V30 50 1 25 48
M  V30 51 1 29 49
M  V30 52 1 30 50
M  V30 53 1 31 51
M  V30 54 1 31 52
M  V30 55 1 31 53
M  V30 56 1 32 54
M  V30 57 1 32 55
M  V30 58 1 32 56
M  V30 59 1 33 57
M  V30 END BOND
M  V30 END CTAB
M  END
>  <Dataset>  (580) 
ChEMBL_Kinases

>  <Ligand_Instance>  (580) 
nan

>  <PDB_ID>  (580) 
nan

>  <Standardized_SMILES>  (580) 
Cc1cc(NC(=O)[C@H](O)c2cc(F)cc(F)c2)ccc1-c1cnc(N)c(C(=O)NC(C)C)c1

>  <Name>  (580) 
nan

>  <Pocket>  (580) 
nan

>  <ATP_Site>  (580) 
nan

>  <Peripheral>  (580) 
nan

>  <Num_H_Atoms_ProtBoundConf>  (580) 
nan

>  <Num_Resolved_Atoms>  (580) 
nan

>  <Num_Not_Resolved_Atoms>  (580) 
nan

$$$$
CHEMBL4862494
     RDKit          3D

  0  0  0  0  0  0  0  0  0  0999 V3000
M  V30 BEGIN CTAB
M  V30 COUNTS 44 46 0 0 0
M  V30 BEGIN ATOM
M  V30 1 C -0.210486 -3.105955 3.576441 0
M  V30 2 N -1.115257 -3.481488 2.512066 0
M  V30 3 C -1.749297 -2.717757 1.509887 0
M  V30 4 N -1.486997 -1.396056 1.513990 0
M  V30 5 C -2.030061 -0.576725 0.599768 0
M  V30 6 N -2.002581 0.816154 0.300566 0
M  V30 7 C -0.948229 1.572958 -0.272331 0
M  V30 8 C -1.225269 2.689913 -1.028604 0
M  V30 9 N -0.261730 3.446550 -1.576247 0
M  V30 10 C 1.021524 3.138246 -1.404485 0
M  V30 11 C 2.013804 3.997327 -2.033476 0
M  V30 12 N 2.810061 4.688118 -2.520567 0
M  V30 13 C 1.434577 2.029778 -0.655451 0
M  V30 14 N 2.800806 1.722204 -0.496762 0
M  V30 15 C 3.672570 0.825954 0.190741 0 CFG=1
M  V30 16 C 3.808945 1.324159 1.608173 0
M  V30 17 C 2.767325 0.551206 2.357527 0
M  V30 18 N 2.728450 -0.730049 1.727042 0
M  V30 19 C 3.147500 -0.566498 0.370397 0
M  V30 20 C 0.383985 1.311073 -0.132446 0
M  V30 21 N -2.861519 -1.098736 -0.345878 0
M  V30 22 C -3.125837 -2.414152 -0.353918 0
M  V30 23 C -2.597358 -3.301546 0.558729 0
M  V30 24 C -2.866295 -4.760628 0.587509 0
M  V30 25 F -3.441127 -5.152586 1.787579 0
M  V30 26 F -3.763718 -5.016677 -0.460987 0
M  V30 27 F -1.732622 -5.526717 0.358803 0
M  V30 28 H 0.800292 -3.536942 3.386308 0
M  V30 29 H -0.087273 -2.009853 3.601036 0
M  V30 30 H -0.548564 -3.482608 4.553660 0
M  V30 31 H -1.303633 -4.497665 2.518554 0
M  V30 32 H -2.878253 1.361011 0.538083 0
M  V30 33 H -2.271282 2.950055 -1.174123 0
M  V30 34 H 3.426749 2.366193 -1.079316 0
M  V30 35 H 4.668800 0.735982 -0.306103 0
M  V30 36 H 4.836508 1.082809 2.018314 0
M  V30 37 H 3.675020 2.427037 1.678008 0
M  V30 38 H 1.835505 1.139875 2.320856 0
M  V30 39 H 3.011920 0.472796 3.444091 0
M  V30 40 H 1.845354 -1.266887 1.853718 0
M  V30 41 H 4.017924 -1.283192 0.235621 0
M  V30 42 H 2.391245 -0.880952 -0.380789 0
M  V30 43 H 0.586082 0.424771 0.458542 0
M  V30 44 H -3.779672 -2.941316 -1.066938 0
M  V30 END ATOM
M  V30 BEGIN BOND
M  V30 1 1 1 2
M  V30 2 1 2 3
M  V30 3 2 3 4
M  V30 4 1 4 5
M  V30 5 1 5 6
M  V30 6 1 6 7
M  V30 7 2 7 8
M  V30 8 1 8 9
M  V30 9 2 9 10
M  V30 10 1 10 11
M  V30 11 3 11 12
M  V30 12 1 10 13
M  V30 13 1 13 14
M  V30 14 1 14 15
M  V30 15 1 15 16
M  V30 16 1 16 17
M  V30 17 1 17 18
M  V30 18 1 18 19
M  V30 19 2 13 20
M  V30 20 2 5 21
M  V30 21 1 21 22
M  V30 22 2 22 23
M  V30 23 1 23 24
M  V30 24 1 24 25
M  V30 25 1 24 26
M  V30 26 1 24 27
M  V30 27 1 23 3
M  V30 28 1 20 7
M  V30 29 1 19 15
M  V30 30 1 1 28
M  V30 31 1 1 29
M  V30 32 1 1 30
M  V30 33 1 2 31
M  V30 34 1 6 32
M  V30 35 1 8 33
M  V30 36 1 14 34
M  V30 37 1 15 35 CFG=3
M  V30 38 1 16 36
M  V30 39 1 16 37
M  V30 40 1 17 38
M  V30 41 1 17 39
M  V30 42 1 18 40
M  V30 43 1 19 41
M  V30 44 1 19 42
M  V30 45 1 20 43
M  V30 46 1 22 44
M  V30 END BOND
M  V30 END CTAB
M  END
>  <Dataset>  (581) 
ChEMBL_Kinases

>  <Ligand_Instance>  (581) 
nan

>  <PDB_ID>  (581) 
nan

>  <Standardized_SMILES>  (581) 
CNc1nc(Nc2cnc(C#N)c(N[C@H]3CCNC3)c2)ncc1C(F)(F)F

>  <Name>  (581) 
nan

>  <Pocket>  (581) 
nan

>  <ATP_Site>  (581) 
nan

>  <Peripheral>  (581) 
nan

>  <Num_H_Atoms_ProtBoundConf>  (581) 
nan

>  <Num_Resolved_Atoms>  (581) 
nan

>  <Num_Not_Resolved_Atoms>  (581) 
nan

$$$$
CHEMBL4062554
     RDKit          3D

  0  0  0  0  0  0  0  0  0  0999 V3000
M  V30 BEGIN CTAB
M  V30 COUNTS 51 54 0 0 0
M  V30 BEGIN ATOM
M  V30 1 N 3.144690 -5.739588 3.065297 0
M  V30 2 S 2.505384 -6.182615 1.534471 0
M  V30 3 O 3.577484 -6.911644 0.763518 0
M  V30 4 O 1.353581 -7.137190 1.812356 0
M  V30 5 C 1.981033 -4.792246 0.621666 0
M  V30 6 C 0.690598 -4.292944 0.703279 0
M  V30 7 C 0.294818 -3.175221 -0.039335 0
M  V30 8 C 1.288437 -2.641092 -0.833210 0
M  V30 9 N 0.939711 -1.499314 -1.611250 0
M  V30 10 C -0.309454 -0.823768 -1.695141 0
M  V30 11 N -0.499356 0.157175 -0.813429 0
M  V30 12 C -1.587295 0.930457 -0.700203 0
M  V30 13 O -1.995291 1.959162 0.091232 0
M  V30 14 C -1.433367 2.633780 1.137748 0
M  V30 15 C -1.128942 1.902438 2.384929 0
M  V30 16 C -0.501332 2.834229 3.422882 0
M  V30 17 C 0.916848 3.182022 3.037701 0
M  V30 18 C 1.727683 1.905491 3.022706 0
M  V30 19 C 1.145848 1.031167 1.898536 0
M  V30 20 C -0.271669 0.698219 2.323304 0
M  V30 21 C -2.592539 0.630566 -1.629243 0
M  V30 22 C -3.873642 1.098545 -1.946850 0
M  V30 23 C -4.431036 0.406111 -2.998071 0
M  V30 24 N -3.525247 -0.511937 -3.371719 0
M  V30 25 C -2.450660 -0.388491 -2.579576 0
M  V30 26 N -1.295142 -1.094135 -2.581879 0
M  V30 27 C 2.570725 -3.072970 -0.965536 0
M  V30 28 C 2.911823 -4.194420 -0.199629 0
M  V30 29 H 3.368880 -4.734069 3.136936 0
M  V30 30 H 2.657490 -6.139046 3.874751 0
M  V30 31 H -0.029963 -4.766540 1.347692 0
M  V30 32 H -0.704390 -2.763651 0.004002 0
M  V30 33 H 1.572782 -0.980662 -2.250581 0
M  V30 34 H -2.184962 3.444116 1.436055 0
M  V30 35 H -0.564574 3.260559 0.787654 0
M  V30 36 H -2.107096 1.596575 2.864115 0
M  V30 37 H -0.445311 2.246301 4.364480 0
M  V30 38 H -1.127202 3.715069 3.627215 0
M  V30 39 H 1.285642 3.895370 3.805547 0
M  V30 40 H 0.984788 3.620208 2.039460 0
M  V30 41 H 1.697265 1.375127 3.984927 0
M  V30 42 H 2.764825 2.141645 2.674832 0
M  V30 43 H 1.221688 1.616704 0.982701 0
M  V30 44 H 1.684237 0.094896 1.783043 0
M  V30 45 H -0.664949 -0.192640 1.850691 0
M  V30 46 H -0.137010 0.378746 3.417618 0
M  V30 47 H -4.360104 1.910090 -1.421621 0
M  V30 48 H -5.412962 0.608669 -3.400531 0
M  V30 49 H -3.623348 -1.208254 -4.141941 0
M  V30 50 H 3.285422 -2.598536 -1.608485 0
M  V30 51 H 3.932865 -4.559172 -0.288452 0
M  V30 END ATOM
M  V30 BEGIN BOND
M  V30 1 1 1 2
M  V30 2 2 2 3
M  V30 3 2 2 4
M  V30 4 1 2 5
M  V30 5 2 5 6
M  V30 6 1 6 7
M  V30 7 2 7 8
M  V30 8 1 8 9
M  V30 9 1 9 10
M  V30 10 2 10 11
M  V30 11 1 11 12
M  V30 12 1 12 13
M  V30 13 1 13 14
M  V30 14 1 14 15
M  V30 15 1 15 16
M  V30 16 1 16 17
M  V30 17 1 17 18
M  V30 18 1 18 19
M  V30 19 1 19 20
M  V30 20 2 12 21
M  V30 21 1 21 22
M  V30 22 2 22 23
M  V30 23 1 23 24
M  V30 24 1 24 25
M  V30 25 2 25 26
M  V30 26 1 8 27
M  V30 27 2 27 28
M  V30 28 1 28 5
M  V30 29 1 26 10
M  V30 30 1 20 15
M  V30 31 1 25 21
M  V30 32 1 1 29
M  V30 33 1 1 30
M  V30 34 1 6 31
M  V30 35 1 7 32
M  V30 36 1 9 33
M  V30 37 1 14 34
M  V30 38 1 14 35
M  V30 39 1 15 36
M  V30 40 1 16 37
M  V30 41 1 16 38
M  V30 42 1 17 39
M  V30 43 1 17 40
M  V30 44 1 18 41
M  V30 45 1 18 42
M  V30 46 1 19 43
M  V30 47 1 19 44
M  V30 48 1 20 45
M  V30 49 1 20 46
M  V30 50 1 22 47
M  V30 51 1 23 48
M  V30 52 1 24 49
M  V30 53 1 27 50
M  V30 54 1 28 51
M  V30 END BOND
M  V30 END CTAB
M  END
>  <Dataset>  (582) 
ChEMBL_Kinases

>  <Ligand_Instance>  (582) 
nan

>  <PDB_ID>  (582) 
nan

>  <Standardized_SMILES>  (582) 
NS(=O)(=O)c1ccc(Nc2nc(OCC3CCCCC3)c3cc[nH]c3n2)cc1

>  <Name>  (582) 
nan

>  <Pocket>  (582) 
nan

>  <ATP_Site>  (582) 
nan

>  <Peripheral>  (582) 
nan

>  <Num_H_Atoms_ProtBoundConf>  (582) 
nan

>  <Num_Resolved_Atoms>  (582) 
nan

>  <Num_Not_Resolved_Atoms>  (582) 
nan

$$$$
CHEMBL4862258
     RDKit          3D

  0  0  0  0  0  0  0  0  0  0999 V3000
M  V30 BEGIN CTAB
M  V30 COUNTS 47 49 0 0 0
M  V30 BEGIN ATOM
M  V30 1 C 0.876692 2.149666 5.202806 0
M  V30 2 O 1.090002 1.611470 3.909512 0
M  V30 3 C 2.331801 1.192092 3.453014 0
M  V30 4 N 3.498207 1.232629 4.156631 0
M  V30 5 N 4.483554 0.761547 3.433857 0
M  V30 6 C 5.892911 0.602384 3.741526 0
M  V30 7 C 6.125860 -0.781119 4.358796 0
M  V30 8 F 5.418858 -0.969161 5.516841 0
M  V30 9 F 5.640778 -1.748461 3.468958 0
M  V30 10 F 7.456865 -1.032690 4.525671 0
M  V30 11 C 3.967635 0.400990 2.229557 0
M  V30 12 C 2.612777 0.663518 2.219284 0
M  V30 13 C 1.718172 0.408798 1.097136 0
M  V30 14 O 2.158561 -0.087181 0.029563 0
M  V30 15 N 0.330285 0.690524 1.121003 0
M  V30 16 C -0.262292 0.322326 -0.142462 0
M  V30 17 C -0.302494 1.281958 -1.125501 0
M  V30 18 C -0.870911 0.921059 -2.330538 0
M  V30 19 C -1.361324 -0.358815 -2.487552 0
M  V30 20 C -1.320020 -1.326827 -1.493863 0
M  V30 21 C -1.847296 -2.676424 -1.687844 0
M  V30 22 N -1.102762 -3.728359 -2.077762 0
M  V30 23 N -1.861185 -4.813177 -2.164635 0
M  V30 24 C -3.094626 -4.414471 -1.820374 0
M  V30 25 N -3.115863 -3.091069 -1.518907 0
M  V30 26 C -4.250656 -2.325122 -1.112506 0 CFG=1
M  V30 27 C -3.950869 -1.245904 -0.099731 0
M  V30 28 C -5.102122 -1.812359 -2.249376 0
M  V30 29 F -6.175812 -1.081638 -1.721055 0
M  V30 30 F -4.444671 -0.991255 -3.114901 0
M  V30 31 F -5.670429 -2.912409 -2.871673 0
M  V30 32 N -0.753934 -0.913943 -0.342527 0
M  V30 33 H 1.781486 2.697200 5.542660 0
M  V30 34 H 0.004361 2.819253 5.139559 0
M  V30 35 H 0.683236 1.375084 5.970192 0
M  V30 36 H 6.533342 0.663862 2.861326 0
M  V30 37 H 6.185144 1.336906 4.537308 0
M  V30 38 H 4.528622 -0.030429 1.392612 0
M  V30 39 H -0.104620 1.103325 1.974634 0
M  V30 40 H 0.088535 2.255264 -0.957177 0
M  V30 41 H -0.935001 1.629493 -3.149144 0
M  V30 42 H -1.796363 -0.592217 -3.449385 0
M  V30 43 H -3.921686 -5.102930 -1.804138 0
M  V30 44 H -4.924774 -3.045246 -0.559848 0
M  V30 45 H -4.903213 -0.946841 0.385174 0
M  V30 46 H -3.254704 -1.685594 0.648855 0
M  V30 47 H -3.489971 -0.349973 -0.513979 0
M  V30 END ATOM
M  V30 BEGIN BOND
M  V30 1 1 1 2
M  V30 2 1 2 3
M  V30 3 2 3 4
M  V30 4 1 4 5
M  V30 5 1 5 6
M  V30 6 1 6 7
M  V30 7 1 7 8
M  V30 8 1 7 9
M  V30 9 1 7 10
M  V30 10 1 5 11
M  V30 11 2 11 12
M  V30 12 1 12 13
M  V30 13 2 13 14
M  V30 14 1 13 15
M  V30 15 1 15 16
M  V30 16 2 16 17
M  V30 17 1 17 18
M  V30 18 2 18 19
M  V30 19 1 19 20
M  V30 20 1 20 21
M  V30 21 2 21 22
M  V30 22 1 22 23
M  V30 23 2 23 24
M  V30 24 1 24 25
M  V30 25 1 25 26
M  V30 26 1 26 27
M  V30 27 1 26 28
M  V30 28 1 28 29
M  V30 29 1 28 30
M  V30 30 1 28 31
M  V30 31 2 20 32
M  V30 32 1 12 3
M  V30 33 1 32 16
M  V30 34 1 25 21
M  V30 35 1 1 33
M  V30 36 1 1 34
M  V30 37 1 1 35
M  V30 38 1 6 36
M  V30 39 1 6 37
M  V30 40 1 11 38
M  V30 41 1 15 39
M  V30 42 1 17 40
M  V30 43 1 18 41
M  V30 44 1 19 42
M  V30 45 1 24 43
M  V30 46 1 26 44 CFG=1
M  V30 47 1 27 45
M  V30 48 1 27 46
M  V30 49 1 27 47
M  V30 END BOND
M  V30 END CTAB
M  END
>  <Dataset>  (583) 
ChEMBL_Kinases

>  <Ligand_Instance>  (583) 
nan

>  <PDB_ID>  (583) 
nan

>  <Standardized_SMILES>  (583) 
COc1nn(CC(F)(F)F)cc1C(=O)Nc1cccc(-c2nncn2[C@@H](C)C(F)(F)F)n1

>  <Name>  (583) 
nan

>  <Pocket>  (583) 
nan

>  <ATP_Site>  (583) 
nan

>  <Peripheral>  (583) 
nan

>  <Num_H_Atoms_ProtBoundConf>  (583) 
nan

>  <Num_Resolved_Atoms>  (583) 
nan

>  <Num_Not_Resolved_Atoms>  (583) 
nan

$$$$
CHEMBL4063908
     RDKit          3D

  0  0  0  0  0  0  0  0  0  0999 V3000
M  V30 BEGIN CTAB
M  V30 COUNTS 60 65 0 0 0
M  V30 BEGIN ATOM
M  V30 1 O -1.426325 2.232000 2.699469 0
M  V30 2 C -0.643627 1.227886 2.519472 0
M  V30 3 C 0.458777 1.011951 3.481900 0
M  V30 4 C 1.430312 0.117681 3.478469 0
M  V30 5 C 2.512513 -0.074881 4.460474 0
M  V30 6 C 2.410965 0.696139 5.630957 0
M  V30 7 N 3.441039 0.411130 6.368391 0
M  V30 8 C 4.454231 -0.357250 6.274702 0
M  V30 9 C 4.538738 -1.119104 5.096513 0
M  V30 10 C 3.510253 -0.951842 4.161414 0
M  V30 11 C 3.622811 -1.698434 2.909090 0
M  V30 12 C 3.034420 -2.558296 1.942825 0
M  V30 13 N 3.869517 -2.725974 0.992091 0
M  V30 14 N 5.023430 -2.141667 1.043927 0
M  V30 15 C 6.174556 -2.076442 0.174903 0
M  V30 16 C 7.566080 -2.139449 0.614187 0
M  V30 17 C 6.980864 -0.749735 0.377633 0
M  V30 18 C 4.857116 -1.514788 2.229104 0
M  V30 19 N -0.828129 0.354736 1.443131 0
M  V30 20 C -1.856445 0.477496 0.423044 0
M  V30 21 C -3.101105 0.264126 0.943291 0
M  V30 22 C -4.128702 0.319458 -0.029689 0
M  V30 23 C -4.000391 0.555669 -1.393309 0
M  V30 24 C -5.015253 0.622075 -2.439264 0
M  V30 25 N -5.400291 -0.572073 -3.056549 0
M  V30 26 C -5.989835 -1.611468 -2.257963 0
M  V30 27 C -5.588543 -2.910428 -2.997557 0
M  V30 28 C -4.149244 -2.495473 -3.261397 0
M  V30 29 C -4.574874 -1.202363 -4.005375 0
M  V30 30 C -5.512610 -1.896625 -4.985549 0
M  V30 31 O -6.139394 -2.896988 -4.249476 0
M  V30 32 C -2.650623 0.760750 -1.790897 0
M  V30 33 C -1.620694 0.720244 -0.900405 0
M  V30 34 H 0.478319 1.686064 4.310463 0
M  V30 35 H 1.364482 -0.543891 2.592940 0
M  V30 36 H 1.638000 1.386741 5.882447 0
M  V30 37 H 5.183318 -0.414829 7.049140 0
M  V30 38 H 5.354697 -1.790623 4.923376 0
M  V30 39 H 2.037944 -2.814706 2.316302 0
M  V30 40 H 5.979291 -2.287680 -0.923781 0
M  V30 41 H 8.318983 -2.484676 -0.152375 0
M  V30 42 H 7.796027 -2.446061 1.638641 0
M  V30 43 H 6.820241 -0.165221 1.278920 0
M  V30 44 H 7.269829 -0.196731 -0.534974 0
M  V30 45 H 5.695261 -0.901548 2.621740 0
M  V30 46 H -0.210529 -0.509634 1.304803 0
M  V30 47 H -3.509731 0.066820 1.909434 0
M  V30 48 H -5.181260 0.176168 0.215836 0
M  V30 49 H -5.939405 1.124853 -2.053372 0
M  V30 50 H -4.635507 1.364175 -3.210766 0
M  V30 51 H -7.080733 -1.554354 -2.322286 0
M  V30 52 H -5.584597 -1.657149 -1.229014 0
M  V30 53 H -5.727625 -3.801525 -2.416750 0
M  V30 54 H -3.592283 -3.162194 -3.904839 0
M  V30 55 H -3.665524 -2.225652 -2.300117 0
M  V30 56 H -3.732342 -0.690951 -4.427368 0
M  V30 57 H -6.304264 -1.166983 -5.245831 0
M  V30 58 H -4.999774 -2.248990 -5.901304 0
M  V30 59 H -2.485560 0.959974 -2.856546 0
M  V30 60 H -0.590121 0.875577 -1.197400 0
M  V30 END ATOM
M  V30 BEGIN BOND
M  V30 1 2 1 2
M  V30 2 1 2 3
M  V30 3 2 3 4
M  V30 4 1 4 5
M  V30 5 2 5 6
M  V30 6 1 6 7
M  V30 7 2 7 8
M  V30 8 1 8 9
M  V30 9 2 9 10
M  V30 10 1 10 11
M  V30 11 1 11 12
M  V30 12 2 12 13
M  V30 13 1 13 14
M  V30 14 1 14 15
M  V30 15 1 15 16
M  V30 16 1 16 17
M  V30 17 1 14 18
M  V30 18 1 2 19
M  V30 19 1 19 20
M  V30 20 2 20 21
M  V30 21 1 21 22
M  V30 22 2 22 23
M  V30 23 1 23 24
M  V30 24 1 24 25
M  V30 25 1 25 26
M  V30 26 1 26 27
M  V30 27 1 27 28
M  V30 28 1 28 29
M  V30 29 1 29 30
M  V30 30 1 30 31
M  V30 31 1 23 32
M  V30 32 2 32 33
M  V30 33 1 10 5
M  V30 34 2 18 11
M  V30 35 1 33 20
M  V30 36 1 17 15
M  V30 37 1 29 25
M  V30 38 1 31 27
M  V30 39 1 3 34
M  V30 40 1 4 35
M  V30 41 1 6 36
M  V30 42 1 8 37
M  V30 43 1 9 38
M  V30 44 1 12 39
M  V30 45 1 15 40
M  V30 46 1 16 41
M  V30 47 1 16 42
M  V30 48 1 17 43
M  V30 49 1 17 44
M  V30 50 1 18 45
M  V30 51 1 19 46
M  V30 52 1 21 47
M  V30 53 1 22 48
M  V30 54 1 24 49
M  V30 55 1 24 50
M  V30 56 1 26 51
M  V30 57 1 26 52
M  V30 58 1 27 53
M  V30 59 1 28 54
M  V30 60 1 28 55
M  V30 61 1 29 56
M  V30 62 1 30 57
M  V30 63 1 30 58
M  V30 64 1 32 59
M  V30 65 1 33 60
M  V30 END BOND
M  V30 END CTAB
M  END
>  <Dataset>  (584) 
ChEMBL_Kinases

>  <Ligand_Instance>  (584) 
nan

>  <PDB_ID>  (584) 
nan

>  <Standardized_SMILES>  (584) 
O=C(/C=C/c1cnccc1-c1cnn(C2CC2)c1)Nc1ccc(CN2CC3CC2CO3)cc1

>  <Name>  (584) 
nan

>  <Pocket>  (584) 
nan

>  <ATP_Site>  (584) 
nan

>  <Peripheral>  (584) 
nan

>  <Num_H_Atoms_ProtBoundConf>  (584) 
nan

>  <Num_Resolved_Atoms>  (584) 
nan

>  <Num_Not_Resolved_Atoms>  (584) 
nan

$$$$
CHEMBL4063842
     RDKit          3D

  0  0  0  0  0  0  0  0  0  0999 V3000
M  V30 BEGIN CTAB
M  V30 COUNTS 27 29 0 0 0
M  V30 BEGIN ATOM
M  V30 1 C 0.259068 -3.785911 4.211996 0
M  V30 2 C 0.413628 -2.428894 3.572442 0
M  V30 3 N 0.162518 -2.331648 2.259554 0
M  V30 4 C 0.278784 -1.146155 1.610374 0
M  V30 5 C 0.068921 -0.862999 0.306897 0
M  V30 6 C 0.240525 0.383119 -0.136781 0
M  V30 7 C 0.127201 1.087174 -1.403369 0
M  V30 8 C 0.371504 2.435445 -1.598286 0
M  V30 9 N 0.168140 2.739457 -2.891824 0
M  V30 10 N -0.197725 1.660036 -3.559055 0
M  V30 11 C -0.225184 0.651362 -2.662345 0
M  V30 12 C -0.588682 -0.750708 -2.989059 0
M  V30 13 S 0.727076 1.267212 1.311433 0
M  V30 14 C 0.668141 -0.122283 2.446074 0
M  V30 15 C 0.927469 -0.233268 3.812722 0
M  V30 16 O 1.270742 0.799896 4.416208 0
M  V30 17 N 0.793222 -1.436071 4.392683 0
M  V30 18 H 0.486736 -4.555133 3.424160 0
M  V30 19 H 1.012385 -3.880957 5.008740 0
M  V30 20 H -0.788030 -3.957461 4.541772 0
M  V30 21 H -0.238164 -1.591387 -0.432840 0
M  V30 22 H 0.673085 3.197678 -0.918128 0
M  V30 23 H 0.256686 3.651981 -3.395047 0
M  V30 24 H -1.474925 -1.115360 -2.409286 0
M  V30 25 H -0.780665 -0.851206 -4.091721 0
M  V30 26 H 0.251342 -1.431955 -2.755775 0
M  V30 27 H 0.981862 -1.536326 5.406693 0
M  V30 END ATOM
M  V30 BEGIN BOND
M  V30 1 1 1 2
M  V30 2 2 2 3
M  V30 3 1 3 4
M  V30 4 1 4 5
M  V30 5 2 5 6
M  V30 6 1 6 7
M  V30 7 2 7 8
M  V30 8 1 8 9
M  V30 9 1 9 10
M  V30 10 2 10 11
M  V30 11 1 11 12
M  V30 12 1 6 13
M  V30 13 1 13 14
M  V30 14 1 14 15
M  V30 15 2 15 16
M  V30 16 1 15 17
M  V30 17 1 17 2
M  V30 18 2 14 4
M  V30 19 1 11 7
M  V30 20 1 1 18
M  V30 21 1 1 19
M  V30 22 1 1 20
M  V30 23 1 5 21
M  V30 24 1 8 22
M  V30 25 1 9 23
M  V30 26 1 12 24
M  V30 27 1 12 25
M  V30 28 1 12 26
M  V30 29 1 17 27
M  V30 END BOND
M  V30 END CTAB
M  END
>  <Dataset>  (585) 
ChEMBL_Kinases

>  <Ligand_Instance>  (585) 
nan

>  <PDB_ID>  (585) 
nan

>  <Standardized_SMILES>  (585) 
Cc1nc2cc(-c3c[nH]nc3C)sc2c(=O)[nH]1

>  <Name>  (585) 
nan

>  <Pocket>  (585) 
nan

>  <ATP_Site>  (585) 
nan

>  <Peripheral>  (585) 
nan

>  <Num_H_Atoms_ProtBoundConf>  (585) 
nan

>  <Num_Resolved_Atoms>  (585) 
nan

>  <Num_Not_Resolved_Atoms>  (585) 
nan

$$$$
CHEMBL4861987
     RDKit          3D

  0  0  0  0  0  0  0  0  0  0999 V3000
M  V30 BEGIN CTAB
M  V30 COUNTS 41 45 0 0 0
M  V30 BEGIN ATOM
M  V30 1 C -0.464850 -4.735773 2.521877 0
M  V30 2 C 0.063509 -5.998336 2.721679 0
M  V30 3 N 1.242525 -6.304277 2.135198 0
M  V30 4 N 1.844710 -5.392583 1.396666 0
M  V30 5 N 2.980399 -5.515972 0.761315 0
M  V30 6 C 3.304380 -4.388936 0.102326 0
M  V30 7 C 2.276575 -3.504951 0.359853 0
M  V30 8 C 2.164733 -2.136279 -0.135179 0
M  V30 9 C 3.152304 -1.615518 -0.945833 0
M  V30 10 C 3.030553 -0.320106 -1.404772 0
M  V30 11 N 1.942934 0.424909 -1.053983 0
M  V30 12 C 0.987678 -0.094780 -0.263296 0
M  V30 13 N -0.126044 0.724797 0.072603 0
M  V30 14 C -0.282854 2.075589 -0.387778 0
M  V30 15 C -1.612560 2.552455 0.096441 0
M  V30 16 C -1.478899 3.975980 0.592536 0
M  V30 17 C -0.661269 3.799645 1.851076 0
M  V30 18 C -0.910974 2.403536 2.344351 0
M  V30 19 C -1.820464 1.730787 1.351470 0
M  V30 20 C -1.270936 0.391936 0.900937 0
M  V30 21 N 1.094201 -1.354954 0.190358 0
M  V30 22 C 1.365348 -4.145918 1.173799 0
M  V30 23 C 0.156663 -3.768144 1.748675 0
M  V30 24 H -1.411283 -4.508643 3.000253 0
M  V30 25 H -0.442951 -6.734939 3.330417 0
M  V30 26 H 4.204967 -4.229625 -0.507212 0
M  V30 27 H 4.019061 -2.225818 -1.218570 0
M  V30 28 H 3.768576 0.125516 -2.033789 0
M  V30 29 H 0.523440 2.687868 0.091195 0
M  V30 30 H -0.140919 2.184675 -1.479761 0
M  V30 31 H -2.442422 2.422717 -0.621677 0
M  V30 32 H -0.889598 4.526662 -0.181860 0
M  V30 33 H -2.451356 4.436369 0.820199 0
M  V30 34 H -0.986956 4.569413 2.597755 0
M  V30 35 H 0.420919 3.962382 1.696552 0
M  V30 36 H -1.432946 2.441688 3.323555 0
M  V30 37 H 0.036171 1.823295 2.455751 0
M  V30 38 H -2.879654 1.709638 1.633279 0
M  V30 39 H -2.039070 -0.029915 0.204110 0
M  V30 40 H -1.029326 -0.281117 1.725799 0
M  V30 41 H -0.251481 -2.779325 1.588765 0
M  V30 END ATOM
M  V30 BEGIN BOND
M  V30 1 1 1 2
M  V30 2 2 2 3
M  V30 3 1 3 4
M  V30 4 1 4 5
M  V30 5 2 5 6
M  V30 6 1 6 7
M  V30 7 1 7 8
M  V30 8 2 8 9
M  V30 9 1 9 10
M  V30 10 2 10 11
M  V30 11 1 11 12
M  V30 12 1 12 13
M  V30 13 1 13 14
M  V30 14 1 14 15
M  V30 15 1 15 16
M  V30 16 1 16 17
M  V30 17 1 17 18
M  V30 18 1 18 19
M  V30 19 1 19 20
M  V30 20 2 12 21
M  V30 21 2 7 22
M  V30 22 1 22 23
M  V30 23 2 23 1
M  V30 24 1 22 4
M  V30 25 1 21 8
M  V30 26 1 20 13
M  V30 27 1 19 15
M  V30 28 1 1 24
M  V30 29 1 2 25
M  V30 30 1 6 26
M  V30 31 1 9 27
M  V30 32 1 10 28
M  V30 33 1 14 29
M  V30 34 1 14 30
M  V30 35 1 15 31
M  V30 36 1 16 32
M  V30 37 1 16 33
M  V30 38 1 17 34
M  V30 39 1 17 35
M  V30 40 1 18 36
M  V30 41 1 18 37
M  V30 42 1 19 38
M  V30 43 1 20 39
M  V30 44 1 20 40
M  V30 45 1 23 41
M  V30 END BOND
M  V30 END CTAB
M  END
>  <Dataset>  (586) 
ChEMBL_Kinases

>  <Ligand_Instance>  (586) 
nan

>  <PDB_ID>  (586) 
nan

>  <Standardized_SMILES>  (586) 
c1cnn2ncc(-c3ccnc(N4CC5CCCC5C4)n3)c2c1

>  <Name>  (586) 
nan

>  <Pocket>  (586) 
nan

>  <ATP_Site>  (586) 
nan

>  <Peripheral>  (586) 
nan

>  <Num_H_Atoms_ProtBoundConf>  (586) 
nan

>  <Num_Resolved_Atoms>  (586) 
nan

>  <Num_Not_Resolved_Atoms>  (586) 
nan

$$$$
CHEMBL4063730
     RDKit          3D

  0  0  0  0  0  0  0  0  0  0999 V3000
M  V30 BEGIN CTAB
M  V30 COUNTS 42 45 0 0 0
M  V30 BEGIN ATOM
M  V30 1 C 0.800251 -3.687481 3.678042 0
M  V30 2 N 1.583082 -3.290103 2.534942 0
M  V30 3 C 1.949388 -2.018644 1.966263 0
M  V30 4 O 1.319685 -1.443223 2.857725 0
M  V30 5 N 2.747266 -2.087066 0.815953 0
M  V30 6 N 3.203783 -3.166956 0.224795 0
M  V30 7 C 3.967284 -2.854901 -0.818076 0
M  V30 8 C 4.018740 -1.489687 -0.923923 0
M  V30 9 N 4.648034 -0.664664 -1.773297 0
M  V30 10 C 4.554930 0.684021 -1.659000 0
M  V30 11 C 3.761738 1.130874 -0.603171 0
M  V30 12 C 3.097447 0.277671 0.290935 0
M  V30 13 N 2.355166 1.009277 1.239238 0
M  V30 14 C 0.970581 1.217623 1.565439 0
M  V30 15 C 0.587211 1.975428 2.648283 0
M  V30 16 C -0.765398 2.087255 2.825814 0
M  V30 17 N -1.671974 1.509807 2.017080 0
M  V30 18 C -1.336951 0.762748 0.950167 0
M  V30 19 C -2.417538 0.201138 0.166345 0
M  V30 20 C -3.713042 0.463101 0.556690 0
M  V30 21 C -4.806810 -0.026196 -0.124110 0
M  V30 22 Cl -6.430937 0.333163 0.409261 0
M  V30 23 C -4.664936 -0.803223 -1.231072 0
M  V30 24 C -3.394552 -1.089384 -1.655484 0
M  V30 25 C -2.323353 -0.585675 -0.953879 0
M  V30 26 F -1.101407 -0.902674 -1.421487 0
M  V30 27 C 0.018695 0.652901 0.775419 0
M  V30 28 C 3.239165 -1.068705 0.118399 0
M  V30 29 H 0.385038 -2.855291 4.240482 0
M  V30 30 H 1.347940 -4.369912 4.359689 0
M  V30 31 H -0.088765 -4.272165 3.306902 0
M  V30 32 H 1.910298 -4.216831 2.091228 0
M  V30 33 H 4.413451 -3.636299 -1.401678 0
M  V30 34 H 5.064137 1.345221 -2.343848 0
M  V30 35 H 3.726416 2.214663 -0.564635 0
M  V30 36 H 3.036350 1.533585 1.870013 0
M  V30 37 H 1.358328 2.411696 3.258104 0
M  V30 38 H -1.115047 2.675480 3.667087 0
M  V30 39 H -3.945220 1.074081 1.428755 0
M  V30 40 H -5.517011 -1.189077 -1.768084 0
M  V30 41 H -3.257075 -1.698801 -2.524029 0
M  V30 42 H 0.350504 0.064679 -0.065563 0
M  V30 END ATOM
M  V30 BEGIN BOND
M  V30 1 1 1 2
M  V30 2 1 2 3
M  V30 3 2 3 4
M  V30 4 1 3 5
M  V30 5 1 5 6
M  V30 6 2 6 7
M  V30 7 1 7 8
M  V30 8 2 8 9
M  V30 9 1 9 10
M  V30 10 2 10 11
M  V30 11 1 11 12
M  V30 12 1 12 13
M  V30 13 1 13 14
M  V30 14 2 14 15
M  V30 15 1 15 16
M  V30 16 2 16 17
M  V30 17 1 17 18
M  V30 18 1 18 19
M  V30 19 2 19 20
M  V30 20 1 20 21
M  V30 21 1 21 22
M  V30 22 2 21 23
M  V30 23 1 23 24
M  V30 24 2 24 25
M  V30 25 1 25 26
M  V30 26 2 18 27
M  V30 27 2 12 28
M  V30 28 1 28 5
M  V30 29 1 28 8
M  V30 30 1 27 14
M  V30 31 1 25 19
M  V30 32 1 1 29
M  V30 33 1 1 30
M  V30 34 1 1 31
M  V30 35 1 2 32
M  V30 36 1 7 33
M  V30 37 1 10 34
M  V30 38 1 11 35
M  V30 39 1 13 36
M  V30 40 1 15 37
M  V30 41 1 16 38
M  V30 42 1 20 39
M  V30 43 1 23 40
M  V30 44 1 24 41
M  V30 45 1 27 42
M  V30 END BOND
M  V30 END CTAB
M  END
>  <Dataset>  (587) 
ChEMBL_Kinases

>  <Ligand_Instance>  (587) 
nan

>  <PDB_ID>  (587) 
nan

>  <Standardized_SMILES>  (587) 
CNC(=O)n1ncc2nccc(Nc3ccnc(-c4cc(Cl)ccc4F)c3)c21

>  <Name>  (587) 
nan

>  <Pocket>  (587) 
nan

>  <ATP_Site>  (587) 
nan

>  <Peripheral>  (587) 
nan

>  <Num_H_Atoms_ProtBoundConf>  (587) 
nan

>  <Num_Resolved_Atoms>  (587) 
nan

>  <Num_Not_Resolved_Atoms>  (587) 
nan

$$$$
CHEMBL4862003
     RDKit          3D

  0  0  0  0  0  0  0  0  0  0999 V3000
M  V30 BEGIN CTAB
M  V30 COUNTS 57 61 0 0 0
M  V30 BEGIN ATOM
M  V30 1 O 0.844904 2.038913 2.897152 0
M  V30 2 C 0.516512 0.897572 2.485354 0
M  V30 3 N 1.084787 -0.208839 3.168297 0
M  V30 4 C 1.973567 0.012840 4.250425 0
M  V30 5 C 3.223664 0.763322 4.003373 0
M  V30 6 N 4.177977 0.254959 3.100819 0
M  V30 7 C 5.377495 1.096580 3.027768 0
M  V30 8 C 5.345341 2.073390 1.899215 0
M  V30 9 O 4.959188 1.548479 0.679368 0
M  V30 10 C 3.657629 1.076224 0.849212 0
M  V30 11 C 3.770490 -0.118628 1.792804 0
M  V30 12 C -0.406933 0.805103 1.357529 0
M  V30 13 C -0.852648 1.993022 0.813686 0
M  V30 14 C -1.734589 1.894224 -0.263195 0
M  V30 15 C -2.147663 0.684615 -0.767834 0
M  V30 16 C -1.696575 -0.492648 -0.217256 0
M  V30 17 C -0.824958 -0.407189 0.846896 0
M  V30 18 N -2.096457 -1.670020 -0.705964 0
M  V30 19 C -2.936833 -1.840969 -1.732362 0
M  V30 20 N -3.350967 -3.083229 -2.235442 0
M  V30 21 C -3.022505 -4.376167 -1.763160 0
M  V30 22 C -2.382035 -4.593595 -0.566966 0
M  V30 23 C -2.033962 -5.830441 -0.069083 0
M  V30 24 C -2.331996 -6.963987 -0.793246 0
M  V30 25 C -2.973876 -6.802952 -1.999435 0
M  V30 26 Cl -3.389059 -8.191843 -2.981540 0
M  V30 27 C -3.295189 -5.541870 -2.443008 0
M  V30 28 C -3.393182 -0.679692 -2.289311 0
M  V30 29 C -4.258045 -0.628556 -3.343776 0
M  V30 30 C -4.766559 0.502482 -3.963107 0
M  V30 31 N -4.347125 1.698890 -3.450850 0
M  V30 32 C -3.487087 1.720043 -2.402074 0
M  V30 33 C -3.014823 0.563809 -1.826933 0
M  V30 34 H 0.807798 -1.181512 2.834408 0
M  V30 35 H 2.237986 -0.996684 4.678211 0
M  V30 36 H 1.386869 0.482725 5.100856 0
M  V30 37 H 3.739215 0.846518 5.015394 0
M  V30 38 H 3.040908 1.835336 3.727575 0
M  V30 39 H 5.463089 1.684114 3.965062 0
M  V30 40 H 6.271369 0.434486 2.915960 0
M  V30 41 H 4.783788 3.011638 2.145375 0
M  V30 42 H 6.413444 2.408792 1.749083 0
M  V30 43 H 2.964444 1.843652 1.191021 0
M  V30 44 H 3.331845 0.648159 -0.120787 0
M  V30 45 H 2.838910 -0.666444 1.738708 0
M  V30 46 H 4.534363 -0.784494 1.307784 0
M  V30 47 H -0.541737 2.963392 1.193414 0
M  V30 48 H -2.058758 2.838583 -0.658686 0
M  V30 49 H -0.477543 -1.340148 1.270700 0
M  V30 50 H -3.978969 -3.159256 -3.055121 0
M  V30 51 H -2.087575 -3.810309 0.112200 0
M  V30 52 H -1.532209 -5.999426 0.867600 0
M  V30 53 H -2.108480 -7.980421 -0.504354 0
M  V30 54 H -3.808549 -5.468409 -3.415806 0
M  V30 55 H -4.627731 -1.529449 -3.792717 0
M  V30 56 H -5.451726 0.477975 -4.798784 0
M  V30 57 H -3.267228 2.733591 -2.133363 0
M  V30 END ATOM
M  V30 BEGIN BOND
M  V30 1 2 1 2
M  V30 2 1 2 3
M  V30 3 1 3 4
M  V30 4 1 4 5
M  V30 5 1 5 6
M  V30 6 1 6 7
M  V30 7 1 7 8
M  V30 8 1 8 9
M  V30 9 1 9 10
M  V30 10 1 10 11
M  V30 11 1 2 12
M  V30 12 2 12 13
M  V30 13 1 13 14
M  V30 14 2 14 15
M  V30 15 1 15 16
M  V30 16 2 16 17
M  V30 17 1 16 18
M  V30 18 2 18 19
M  V30 19 1 19 20
M  V30 20 1 20 21
M  V30 21 2 21 22
M  V30 22 1 22 23
M  V30 23 2 23 24
M  V30 24 1 24 25
M  V30 25 1 25 26
M  V30 26 2 25 27
M  V30 27 1 19 28
M  V30 28 2 28 29
M  V30 29 1 29 30
M  V30 30 2 30 31
M  V30 31 1 31 32
M  V30 32 2 32 33
M  V30 33 1 11 6
M  V30 34 1 17 12
M  V30 35 1 27 21
M  V30 36 1 33 28
M  V30 37 1 33 15
M  V30 38 1 3 34
M  V30 39 1 4 35
M  V30 40 1 4 36
M  V30 41 1 5 37
M  V30 42 1 5 38
M  V30 43 1 7 39
M  V30 44 1 7 40
M  V30 45 1 8 41
M  V30 46 1 8 42
M  V30 47 1 10 43
M  V30 48 1 10 44
M  V30 49 1 11 45
M  V30 50 1 11 46
M  V30 51 1 13 47
M  V30 52 1 14 48
M  V30 53 1 17 49
M  V30 54 1 20 50
M  V30 55 1 22 51
M  V30 56 1 23 52
M  V30 57 1 24 53
M  V30 58 1 27 54
M  V30 59 1 29 55
M  V30 60 1 30 56
M  V30 61 1 32 57
M  V30 END BOND
M  V30 END CTAB
M  END
>  <Dataset>  (588) 
ChEMBL_Kinases

>  <Ligand_Instance>  (588) 
nan

>  <PDB_ID>  (588) 
nan

>  <Standardized_SMILES>  (588) 
O=C(NCCN1CCOCC1)c1ccc2c(c1)nc(Nc1cccc(Cl)c1)c1ccncc12

>  <Name>  (588) 
nan

>  <Pocket>  (588) 
nan

>  <ATP_Site>  (588) 
nan

>  <Peripheral>  (588) 
nan

>  <Num_H_Atoms_ProtBoundConf>  (588) 
nan

>  <Num_Resolved_Atoms>  (588) 
nan

>  <Num_Not_Resolved_Atoms>  (588) 
nan

$$$$
CHEMBL4063709
     RDKit          3D

  0  0  0  0  0  0  0  0  0  0999 V3000
M  V30 BEGIN CTAB
M  V30 COUNTS 55 58 0 0 0
M  V30 BEGIN ATOM
M  V30 1 C 1.153467 -1.836557 5.761340 0
M  V30 2 N 1.803303 -0.598370 5.428328 0
M  V30 3 C 2.807424 -0.546833 4.537848 0
M  V30 4 C 3.259823 0.775888 4.398751 0
M  V30 5 C 4.235772 1.559419 3.671117 0
M  V30 6 C 5.149813 2.154562 4.545007 0
M  V30 7 C 6.219042 2.888525 4.084936 0
M  V30 8 N 6.360828 3.018101 2.756938 0
M  V30 9 C 5.497207 2.458171 1.898908 0
M  V30 10 C 4.416707 1.719224 2.327275 0
M  V30 11 C 3.474959 1.213697 1.364319 0
M  V30 12 C 2.303998 0.674206 1.305307 0
M  V30 13 C 1.543574 0.231887 0.143641 0
M  V30 14 O 2.087388 0.387911 -0.987160 0
M  V30 15 N 0.261439 -0.335629 0.366686 0
M  V30 16 C -0.493851 -0.771338 -0.747033 0
M  V30 17 C -0.426257 -2.052031 -1.264919 0
M  V30 18 C -1.207712 -2.367690 -2.354033 0
M  V30 19 C -2.073151 -1.504647 -2.992543 0
M  V30 20 C -2.907436 -1.816158 -4.149902 0
M  V30 21 N -4.195675 -2.309990 -3.802941 0
M  V30 22 C -4.939772 -1.397887 -2.982771 0
M  V30 23 C -6.175592 -2.178924 -2.502370 0
M  V30 24 O -5.715856 -2.967673 -1.444106 0
M  V30 25 C -4.569401 -3.640532 -1.778481 0
M  V30 26 C -4.245768 -3.617027 -3.258803 0
M  V30 27 C -2.086650 -0.228980 -2.411981 0
M  V30 28 C -1.333404 0.157212 -1.323973 0
M  V30 29 C 2.403612 1.435002 5.300028 0
M  V30 30 N 1.539660 0.601512 5.906930 0
M  V30 31 H 1.444810 -2.200081 6.767211 0
M  V30 32 H 1.303462 -2.620741 5.012379 0
M  V30 33 H 0.056095 -1.616707 5.784532 0
M  V30 34 H 3.336993 -1.260736 3.918686 0
M  V30 35 H 5.121648 2.107390 5.645654 0
M  V30 36 H 6.941881 3.360813 4.709470 0
M  V30 37 H 5.697586 2.620148 0.851952 0
M  V30 38 H 3.818862 1.275793 0.315521 0
M  V30 39 H 1.892691 0.600874 2.290326 0
M  V30 40 H -0.130276 -0.436923 1.318189 0
M  V30 41 H 0.228581 -2.762890 -0.808719 0
M  V30 42 H -1.112602 -3.361642 -2.710102 0
M  V30 43 H -2.365021 -2.559552 -4.786476 0
M  V30 44 H -2.942476 -0.896024 -4.779731 0
M  V30 45 H -4.311195 -1.169932 -2.073631 0
M  V30 46 H -5.217393 -0.460002 -3.466027 0
M  V30 47 H -6.491734 -2.889112 -3.293657 0
M  V30 48 H -6.994091 -1.523100 -2.200506 0
M  V30 49 H -4.756615 -4.727785 -1.542231 0
M  V30 50 H -3.696967 -3.323683 -1.204730 0
M  V30 51 H -4.957322 -4.275808 -3.825544 0
M  V30 52 H -3.262797 -4.109358 -3.383064 0
M  V30 53 H -2.738611 0.520683 -2.846670 0
M  V30 54 H -1.413477 1.167625 -0.947913 0
M  V30 55 H 2.345556 2.494762 5.565983 0
M  V30 END ATOM
M  V30 BEGIN BOND
M  V30 1 1 1 2
M  V30 2 1 2 3
M  V30 3 2 3 4
M  V30 4 1 4 5
M  V30 5 2 5 6
M  V30 6 1 6 7
M  V30 7 2 7 8
M  V30 8 1 8 9
M  V30 9 2 9 10
M  V30 10 1 10 11
M  V30 11 2 11 12
M  V30 12 1 12 13
M  V30 13 2 13 14
M  V30 14 1 13 15
M  V30 15 1 15 16
M  V30 16 2 16 17
M  V30 17 1 17 18
M  V30 18 2 18 19
M  V30 19 1 19 20
M  V30 20 1 20 21
M  V30 21 1 21 22
M  V30 22 1 22 23
M  V30 23 1 23 24
M  V30 24 1 24 25
M  V30 25 1 25 26
M  V30 26 1 19 27
M  V30 27 2 27 28
M  V30 28 1 4 29
M  V30 29 2 29 30
M  V30 30 1 30 2
M  V30 31 1 10 5
M  V30 32 1 28 16
M  V30 33 1 26 21
M  V30 34 1 1 31
M  V30 35 1 1 32
M  V30 36 1 1 33
M  V30 37 1 3 34
M  V30 38 1 6 35
M  V30 39 1 7 36
M  V30 40 1 9 37
M  V30 41 1 11 38
M  V30 42 1 12 39
M  V30 43 1 15 40
M  V30 44 1 17 41
M  V30 45 1 18 42
M  V30 46 1 20 43
M  V30 47 1 20 44
M  V30 48 1 22 45
M  V30 49 1 22 46
M  V30 50 1 23 47
M  V30 51 1 23 48
M  V30 52 1 25 49
M  V30 53 1 25 50
M  V30 54 1 26 51
M  V30 55 1 26 52
M  V30 56 1 27 53
M  V30 57 1 28 54
M  V30 58 1 29 55
M  V30 END BOND
M  V30 END CTAB
M  END
>  <Dataset>  (589) 
ChEMBL_Kinases

>  <Ligand_Instance>  (589) 
nan

>  <PDB_ID>  (589) 
nan

>  <Standardized_SMILES>  (589) 
Cn1cc(-c2ccncc2/C=C/C(=O)Nc2ccc(CN3CCOCC3)cc2)cn1

>  <Name>  (589) 
nan

>  <Pocket>  (589) 
nan

>  <ATP_Site>  (589) 
nan

>  <Peripheral>  (589) 
nan

>  <Num_H_Atoms_ProtBoundConf>  (589) 
nan

>  <Num_Resolved_Atoms>  (589) 
nan

>  <Num_Not_Resolved_Atoms>  (589) 
nan

$$$$
CHEMBL4063680
     RDKit          3D

  0  0  0  0  0  0  0  0  0  0999 V3000
M  V30 BEGIN CTAB
M  V30 COUNTS 43 46 0 0 0
M  V30 BEGIN ATOM
M  V30 1 C -0.463353 -7.047193 0.158408 0
M  V30 2 N -0.069362 -5.674307 -0.045701 0
M  V30 3 C -0.698668 -4.716109 0.872199 0
M  V30 4 C 0.854829 -5.169252 -1.032813 0
M  V30 5 O 1.197732 -6.187949 -1.653101 0
M  V30 6 C 1.129464 -3.736082 -1.056616 0
M  V30 7 C 1.980431 -3.299527 -0.049662 0
M  V30 8 C 2.292416 -1.931020 -0.015800 0
M  V30 9 C 1.766027 -1.035686 -0.961632 0
M  V30 10 O 2.207267 0.212827 -0.729158 0
M  V30 11 C 1.733072 1.245895 0.082316 0
M  V30 12 S 2.841144 2.602899 -0.106211 0
M  V30 13 C 1.927117 3.712601 1.063594 0
M  V30 14 C 2.458536 5.088666 1.293746 0
M  V30 15 N 1.722205 5.861237 2.217816 0
M  V30 16 O 3.462200 5.571248 0.744001 0
M  V30 17 C 0.901738 2.942330 1.461188 0
M  V30 18 C 0.876980 1.726331 0.920496 0
M  V30 19 C -0.390996 0.913087 1.203846 0
M  V30 20 S -0.848222 -0.780133 0.862782 0
M  V30 21 N -2.482478 -0.771629 1.757999 0
M  V30 22 C -2.438418 0.572674 2.200542 0
M  V30 23 C -1.426773 1.430962 1.945844 0
M  V30 24 C -1.456911 2.847874 2.346841 0
M  V30 25 C -0.063071 3.309802 2.523646 0
M  V30 26 C 0.910603 -1.565380 -1.948260 0
M  V30 27 N 0.628750 -2.877078 -1.957890 0
M  V30 28 H 0.186507 -7.719293 -0.401537 0
M  V30 29 H -1.514860 -7.217988 -0.162029 0
M  V30 30 H -0.479715 -7.293605 1.264493 0
M  V30 31 H -1.464538 -4.171346 0.278402 0
M  V30 32 H 0.048452 -4.007197 1.286368 0
M  V30 33 H -1.217069 -5.218552 1.699556 0
M  V30 34 H 2.397722 -3.988601 0.692974 0
M  V30 35 H 2.969898 -1.668327 0.803255 0
M  V30 36 H 1.894739 5.690564 3.250663 0
M  V30 37 H 1.099325 6.516195 2.737885 0
M  V30 38 H -3.363519 0.663596 2.736664 0
M  V30 39 H -1.970317 3.028611 3.332733 0
M  V30 40 H -2.024350 3.476620 1.608140 0
M  V30 41 H -0.017378 4.347168 2.827799 0
M  V30 42 H 0.314622 2.737219 3.454457 0
M  V30 43 H 0.563188 -0.801533 -2.619448 0
M  V30 END ATOM
M  V30 BEGIN BOND
M  V30 1 1 1 2
M  V30 2 1 2 3
M  V30 3 1 2 4
M  V30 4 2 4 5
M  V30 5 1 4 6
M  V30 6 2 6 7
M  V30 7 1 7 8
M  V30 8 2 8 9
M  V30 9 1 9 10
M  V30 10 1 10 11
M  V30 11 1 11 12
M  V30 12 1 12 13
M  V30 13 1 13 14
M  V30 14 1 14 15
M  V30 15 2 14 16
M  V30 16 2 13 17
M  V30 17 1 17 18
M  V30 18 1 18 19
M  V30 19 1 19 20
M  V30 20 1 20 21
M  V30 21 2 21 22
M  V30 22 1 22 23
M  V30 23 1 23 24
M  V30 24 1 24 25
M  V30 25 1 9 26
M  V30 26 2 26 27
M  V30 27 1 27 6
M  V30 28 2 18 11
M  V30 29 2 23 19
M  V30 30 1 25 17
M  V30 31 1 1 28
M  V30 32 1 1 29
M  V30 33 1 1 30
M  V30 34 1 3 31
M  V30 35 1 3 32
M  V30 36 1 3 33
M  V30 37 1 7 34
M  V30 38 1 8 35
M  V30 39 1 15 36
M  V30 40 1 15 37
M  V30 41 1 22 38
M  V30 42 1 24 39
M  V30 43 1 24 40
M  V30 44 1 25 41
M  V30 45 1 25 42
M  V30 46 1 26 43
M  V30 END BOND
M  V30 END CTAB
M  END
>  <Dataset>  (590) 
ChEMBL_Kinases

>  <Ligand_Instance>  (590) 
nan

>  <PDB_ID>  (590) 
nan

>  <Standardized_SMILES>  (590) 
CN(C)C(=O)c1ccc(Oc2sc(C(N)=O)c3c2-c2sncc2CC3)cn1

>  <Name>  (590) 
nan

>  <Pocket>  (590) 
nan

>  <ATP_Site>  (590) 
nan

>  <Peripheral>  (590) 
nan

>  <Num_H_Atoms_ProtBoundConf>  (590) 
nan

>  <Num_Resolved_Atoms>  (590) 
nan

>  <Num_Not_Resolved_Atoms>  (590) 
nan

$$$$
CHEMBL3700983
     RDKit          3D

  0  0  0  0  0  0  0  0  0  0999 V3000
M  V30 BEGIN CTAB
M  V30 COUNTS 73 78 0 0 0
M  V30 BEGIN ATOM
M  V30 1 C 3.569253 0.442083 5.028448 0
M  V30 2 O 3.432878 0.260910 3.654851 0
M  V30 3 C 2.593797 0.952932 2.802612 0
M  V30 4 C 1.743884 1.955984 3.210398 0
M  V30 5 C 0.921246 2.623193 2.332516 0
M  V30 6 C 0.929256 2.296002 0.995944 0
M  V30 7 C 0.187806 2.805105 -0.145811 0
M  V30 8 O -0.983072 2.453070 0.218002 0
M  V30 9 N 0.969868 3.453076 -1.174405 0
M  V30 10 C 2.430617 3.677222 -1.138114 0
M  V30 11 C 2.479571 5.205022 -1.359821 0
M  V30 12 C 1.195350 5.473724 -2.179910 0
M  V30 13 C 0.800187 4.075278 -2.500992 0 CFG=2
M  V30 14 C -0.528478 3.854832 -3.042612 0
M  V30 15 C -1.443930 4.602685 -3.688340 0
M  V30 16 C -2.679049 4.155315 -4.107938 0
M  V30 17 C -3.015257 2.820350 -3.844006 0
M  V30 18 C -2.136368 1.981882 -3.185136 0
M  V30 19 C -2.551766 0.608275 -2.932442 0
M  V30 20 O -3.587218 0.224355 -3.586165 0
M  V30 21 N -1.845654 -0.185502 -2.035594 0
M  V30 22 C -1.932113 -1.527968 -1.532515 0
M  V30 23 N -1.420566 -2.576660 -1.884418 0
M  V30 24 C -1.632858 -3.731156 -1.279649 0
M  V30 25 C -2.540713 -3.726243 -0.120362 0
M  V30 26 S -2.961250 -1.990508 -0.083378 0
M  V30 27 C -2.751853 -5.042475 0.531567 0
M  V30 28 C -1.388443 -5.574567 0.963244 0 CFG=1
M  V30 29 N -1.500321 -6.846684 1.621293 0
M  V30 30 C -2.375730 -6.753348 2.772888 0
M  V30 31 C -1.869500 -5.816523 3.818055 0
M  V30 32 O -0.601015 -6.111389 4.261391 0
M  V30 33 C 0.289141 -6.214341 3.213111 0
M  V30 34 C -0.181740 -7.170211 2.169367 0
M  V30 35 C -0.475814 -5.629291 -0.221325 0
M  V30 36 C -1.124248 -5.129118 -1.507214 0
M  V30 37 C -0.923643 2.526756 -2.808453 0
M  V30 38 C 1.788115 1.279832 0.569680 0
M  V30 39 C 2.624964 0.598780 1.453475 0
M  V30 40 Cl 3.712281 -0.689756 0.928929 0
M  V30 41 H 2.998388 1.290049 5.458128 0
M  V30 42 H 3.166262 -0.462587 5.556192 0
M  V30 43 H 4.639555 0.513243 5.377240 0
M  V30 44 H 1.693219 2.256925 4.245547 0
M  V30 45 H 0.222256 3.417558 2.541601 0
M  V30 46 H 2.859701 3.165297 -2.019604 0
M  V30 47 H 2.881931 3.388220 -0.191907 0
M  V30 48 H 3.374881 5.444389 -1.963070 0
M  V30 49 H 2.425556 5.657966 -0.371913 0
M  V30 50 H 0.513925 6.030153 -1.534304 0
M  V30 51 H 1.444998 6.028301 -3.099841 0
M  V30 52 H 1.585228 3.661031 -3.191852 0
M  V30 53 H -1.082438 5.616726 -3.842289 0
M  V30 54 H -3.350123 4.824474 -4.620883 0
M  V30 55 H -4.005064 2.484096 -4.184413 0
M  V30 56 H -1.007004 0.149927 -1.511828 0
M  V30 57 H -3.225332 -5.701120 -0.186869 0
M  V30 58 H -3.381155 -4.824975 1.419036 0
M  V30 59 H -0.998399 -4.803999 1.656509 0
M  V30 60 H -3.419322 -6.533456 2.544349 0
M  V30 61 H -2.383098 -7.781616 3.240318 0
M  V30 62 H -2.564206 -5.929950 4.698641 0
M  V30 63 H -1.956436 -4.752389 3.509676 0
M  V30 64 H 0.594769 -5.215191 2.840233 0
M  V30 65 H 1.227291 -6.647003 3.635590 0
M  V30 66 H 0.577177 -7.362096 1.397878 0
M  V30 67 H -0.325963 -8.155919 2.696894 0
M  V30 68 H -0.150711 -6.678090 -0.375912 0
M  V30 69 H 0.437091 -4.979648 -0.072463 0
M  V30 70 H -0.396970 -5.130682 -2.318009 0
M  V30 71 H -1.982517 -5.767994 -1.782868 0
M  V30 72 H -0.297530 1.776597 -2.313685 0
M  V30 73 H 1.907162 0.905216 -0.460164 0
M  V30 END ATOM
M  V30 BEGIN BOND
M  V30 1 1 1 2
M  V30 2 1 2 3
M  V30 3 2 3 4
M  V30 4 1 4 5
M  V30 5 2 5 6
M  V30 6 1 6 7
M  V30 7 2 7 8
M  V30 8 1 7 9
M  V30 9 1 9 10
M  V30 10 1 10 11
M  V30 11 1 11 12
M  V30 12 1 12 13
M  V30 13 1 13 14
M  V30 14 2 14 15
M  V30 15 1 15 16
M  V30 16 2 16 17
M  V30 17 1 17 18
M  V30 18 1 18 19
M  V30 19 2 19 20
M  V30 20 1 19 21
M  V30 21 1 21 22
M  V30 22 2 22 23
M  V30 23 1 23 24
M  V30 24 2 24 25
M  V30 25 1 25 26
M  V30 26 1 25 27
M  V30 27 1 27 28
M  V30 28 1 28 29
M  V30 29 1 29 30
M  V30 30 1 30 31
M  V30 31 1 31 32
M  V30 32 1 32 33
M  V30 33 1 33 34
M  V30 34 1 28 35
M  V30 35 1 35 36
M  V30 36 2 18 37
M  V30 37 1 6 38
M  V30 38 2 38 39
M  V30 39 1 39 40
M  V30 40 1 39 3
M  V30 41 1 13 9
M  V30 42 1 37 14
M  V30 43 1 26 22
M  V30 44 1 34 29
M  V30 45 1 36 24
M  V30 46 1 1 41
M  V30 47 1 1 42
M  V30 48 1 1 43
M  V30 49 1 4 44
M  V30 50 1 5 45
M  V30 51 1 10 46
M  V30 52 1 10 47
M  V30 53 1 11 48
M  V30 54 1 11 49
M  V30 55 1 12 50
M  V30 56 1 12 51
M  V30 57 1 13 52 CFG=3
M  V30 58 1 15 53
M  V30 59 1 16 54
M  V30 60 1 17 55
M  V30 61 1 21 56
M  V30 62 1 27 57
M  V30 63 1 27 58
M  V30 64 1 28 59 CFG=1
M  V30 65 1 30 60
M  V30 66 1 30 61
M  V30 67 1 31 62
M  V30 68 1 31 63
M  V30 69 1 33 64
M  V30 70 1 33 65
M  V30 71 1 34 66
M  V30 72 1 34 67
M  V30 73 1 35 68
M  V30 74 1 35 69
M  V30 75 1 36 70
M  V30 76 1 36 71
M  V30 77 1 37 72
M  V30 78 1 38 73
M  V30 END BOND
M  V30 END CTAB
M  END
>  <Dataset>  (591) 
ChEMBL_Kinases

>  <Ligand_Instance>  (591) 
nan

>  <PDB_ID>  (591) 
nan

>  <Standardized_SMILES>  (591) 
COc1ccc(C(=O)N2CCC[C@@H]2c2cccc(C(=O)Nc3nc4c(s3)C[C@@H](N3CCOCC3)CC4)c2)cc1Cl

>  <Name>  (591) 
nan

>  <Pocket>  (591) 
nan

>  <ATP_Site>  (591) 
nan

>  <Peripheral>  (591) 
nan

>  <Num_H_Atoms_ProtBoundConf>  (591) 
nan

>  <Num_Resolved_Atoms>  (591) 
nan

>  <Num_Not_Resolved_Atoms>  (591) 
nan

$$$$
CHEMBL4063622
     RDKit          3D

  0  0  0  0  0  0  0  0  0  0999 V3000
M  V30 BEGIN CTAB
M  V30 COUNTS 35 37 0 0 0
M  V30 BEGIN ATOM
M  V30 1 Cl -1.201983 -0.094396 5.053865 0
M  V30 2 C -0.350361 -0.906950 3.761650 0
M  V30 3 C -1.057998 -1.361939 2.669625 0
M  V30 4 C -0.312094 -1.986208 1.705334 0
M  V30 5 C 1.034692 -2.207157 1.699913 0
M  V30 6 N 1.783944 -2.837048 0.697418 0
M  V30 7 C 1.509134 -3.385955 -0.598861 0
M  V30 8 C 1.419867 -2.401010 -1.722941 0
M  V30 9 C 0.363866 -1.402694 -1.501141 0
M  V30 10 N 0.500365 -0.194219 -0.878310 0
M  V30 11 C -0.680712 0.449605 -0.860487 0
M  V30 12 C -0.791820 1.768986 -0.245632 0
M  V30 13 C 0.118686 2.751567 -0.632846 0
M  V30 14 C 0.064509 4.017412 -0.087536 0
M  V30 15 N -0.897414 4.274269 0.832223 0
M  V30 16 C -1.769285 3.335596 1.203879 0
M  V30 17 C -1.764565 2.050173 0.692931 0
M  V30 18 N -1.563096 -0.363386 -1.477475 0
M  V30 19 N -0.949466 -1.477132 -1.866305 0
M  V30 20 C 1.669543 -1.728185 2.815764 0
M  V30 21 C 1.011890 -1.092636 3.829561 0
M  V30 22 H -2.114428 -1.222835 2.607577 0
M  V30 23 H -0.900568 -2.347661 0.854777 0
M  V30 24 H 2.825019 -2.966342 0.885975 0
M  V30 25 H 0.505041 -3.920457 -0.474995 0
M  V30 26 H 2.183745 -4.240576 -0.869379 0
M  V30 27 H 1.273706 -2.904465 -2.708306 0
M  V30 28 H 2.385935 -1.813412 -1.786119 0
M  V30 29 H 0.892341 2.551680 -1.369952 0
M  V30 30 H 0.801158 4.762349 -0.420545 0
M  V30 31 H -2.529074 3.572888 1.943935 0
M  V30 32 H -2.481082 1.298612 1.006199 0
M  V30 33 H -1.401458 -2.283557 -2.372313 0
M  V30 34 H 2.751517 -1.838996 2.940024 0
M  V30 35 H 1.564607 -0.727375 4.701786 0
M  V30 END ATOM
M  V30 BEGIN BOND
M  V30 1 1 1 2
M  V30 2 2 2 3
M  V30 3 1 3 4
M  V30 4 2 4 5
M  V30 5 1 5 6
M  V30 6 1 6 7
M  V30 7 1 7 8
M  V30 8 1 8 9
M  V30 9 2 9 10
M  V30 10 1 10 11
M  V30 11 1 11 12
M  V30 12 2 12 13
M  V30 13 1 13 14
M  V30 14 2 14 15
M  V30 15 1 15 16
M  V30 16 2 16 17
M  V30 17 2 11 18
M  V30 18 1 18 19
M  V30 19 1 5 20
M  V30 20 2 20 21
M  V30 21 1 21 2
M  V30 22 1 19 9
M  V30 23 1 17 12
M  V30 24 1 3 22
M  V30 25 1 4 23
M  V30 26 1 6 24
M  V30 27 1 7 25
M  V30 28 1 7 26
M  V30 29 1 8 27
M  V30 30 1 8 28
M  V30 31 1 13 29
M  V30 32 1 14 30
M  V30 33 1 16 31
M  V30 34 1 17 32
M  V30 35 1 19 33
M  V30 36 1 20 34
M  V30 37 1 21 35
M  V30 END BOND
M  V30 END CTAB
M  END
>  <Dataset>  (592) 
ChEMBL_Kinases

>  <Ligand_Instance>  (592) 
nan

>  <PDB_ID>  (592) 
nan

>  <Standardized_SMILES>  (592) 
Clc1ccc(NCCc2nc(-c3ccncc3)n[nH]2)cc1

>  <Name>  (592) 
nan

>  <Pocket>  (592) 
nan

>  <ATP_Site>  (592) 
nan

>  <Peripheral>  (592) 
nan

>  <Num_H_Atoms_ProtBoundConf>  (592) 
nan

>  <Num_Resolved_Atoms>  (592) 
nan

>  <Num_Not_Resolved_Atoms>  (592) 
nan

$$$$
CHEMBL370100
     RDKit          3D

  0  0  0  0  0  0  0  0  0  0999 V3000
M  V30 BEGIN CTAB
M  V30 COUNTS 60 66 0 0 0
M  V30 BEGIN ATOM
M  V30 1 C 2.979139 -3.452170 4.678733 0
M  V30 2 O 2.061469 -3.153617 3.684541 0
M  V30 3 C 2.352775 -1.948267 3.032084 0 CFG=1
M  V30 4 C 2.755708 -2.123950 1.626967 0 CFG=2
M  V30 5 O 4.055333 -2.573499 1.419344 0
M  V30 6 C 2.610133 -0.676072 0.971484 0 CFG=1
M  V30 7 O 3.159093 -0.836403 -0.274436 0
M  V30 8 C 1.114996 -0.425007 0.934192 0 CFG=2
M  V30 9 N 0.512068 0.379138 -0.043123 0
M  V30 10 C 0.784928 1.549582 -0.661285 0
M  V30 11 C 1.822588 2.413353 -0.376231 0
M  V30 12 Cl 3.004658 2.239995 0.892864 0
M  V30 13 C 2.054803 3.606891 -1.020911 0
M  V30 14 C 1.175990 3.989890 -2.048469 0
M  V30 15 C 0.157125 3.104777 -2.297912 0
M  V30 16 C -0.082248 1.920187 -1.666114 0
M  V30 17 C -1.010073 0.909785 -1.706272 0
M  V30 18 C -2.107391 0.725391 -2.473405 0
M  V30 19 C -2.927192 -0.368616 -2.331381 0
M  V30 20 C -2.611561 -1.294796 -1.373509 0
M  V30 21 C -3.260943 -2.441724 -0.995991 0
M  V30 22 C -4.366786 -3.179991 -1.326349 0
M  V30 23 C -4.794876 -4.350952 -0.743546 0
M  V30 24 C -4.051334 -4.856658 0.282964 0
M  V30 25 C -2.922585 -4.172463 0.675780 0
M  V30 26 Cl -2.006072 -4.865436 1.996168 0
M  V30 27 C -2.531338 -2.979914 0.045150 0
M  V30 28 N -1.495181 -2.148860 0.244158 0
M  V30 29 C -1.498180 -1.101030 -0.601750 0
M  V30 30 C -0.638002 0.002179 -0.726375 0
M  V30 31 C -4.012763 -0.297313 -3.290122 0
M  V30 32 O -4.990205 -0.994561 -3.579339 0
M  V30 33 N -3.869535 0.895069 -4.070374 0
M  V30 34 C -2.677347 1.520363 -3.548558 0
M  V30 35 O -2.380868 2.597086 -4.114715 0
M  V30 36 O 0.576985 -0.422669 2.174058 0
M  V30 37 C 1.264946 -0.960502 3.189580 0 CFG=2
M  V30 38 C 1.701530 0.097253 4.225512 0
M  V30 39 O 0.562802 0.700358 4.729076 0
M  V30 40 H 3.038809 -2.687180 5.482514 0
M  V30 41 H 2.600284 -4.375570 5.172524 0
M  V30 42 H 3.979565 -3.710628 4.272179 0
M  V30 43 H 3.301005 -1.615011 3.576352 0
M  V30 44 H 2.079611 -2.774167 1.048962 0
M  V30 45 H 4.630976 -2.317903 2.173716 0
M  V30 46 H 3.181966 -0.140481 1.729636 0
M  V30 47 H 2.947510 -1.723802 -0.667227 0
M  V30 48 H 0.817567 -1.513455 0.551771 0
M  V30 49 H 2.859050 4.331786 -0.841601 0
M  V30 50 H 1.293339 4.919460 -2.605942 0
M  V30 51 H -0.481022 3.423164 -3.069566 0
M  V30 52 H -4.976189 -2.826247 -2.118214 0
M  V30 53 H -5.686128 -4.865279 -1.074657 0
M  V30 54 H -4.347525 -5.774368 0.771480 0
M  V30 55 H -0.859283 -2.412220 1.026241 0
M  V30 56 H -4.494393 1.247072 -4.856812 0
M  V30 57 H 0.463497 -1.522734 3.807587 0
M  V30 58 H 2.162937 -0.482602 5.052930 0
M  V30 59 H 2.414318 0.784269 3.779597 0
M  V30 60 H 0.558193 1.664108 4.520911 0
M  V30 END ATOM
M  V30 BEGIN BOND
M  V30 1 1 1 2
M  V30 2 1 2 3
M  V30 3 1 3 4
M  V30 4 1 4 5
M  V30 5 1 4 6
M  V30 6 1 6 7
M  V30 7 1 6 8
M  V30 8 1 8 9
M  V30 9 1 9 10
M  V30 10 2 10 11
M  V30 11 1 11 12
M  V30 12 1 11 13
M  V30 13 2 13 14
M  V30 14 1 14 15
M  V30 15 2 15 16
M  V30 16 1 16 17
M  V30 17 2 17 18
M  V30 18 1 18 19
M  V30 19 2 19 20
M  V30 20 1 20 21
M  V30 21 2 21 22
M  V30 22 1 22 23
M  V30 23 2 23 24
M  V30 24 1 24 25
M  V30 25 1 25 26
M  V30 26 2 25 27
M  V30 27 1 27 28
M  V30 28 1 28 29
M  V30 29 2 29 30
M  V30 30 1 19 31
M  V30 31 2 31 32
M  V30 32 1 31 33
M  V30 33 1 33 34
M  V30 34 2 34 35
M  V30 35 1 8 36
M  V30 36 1 36 37
M  V30 37 1 37 38
M  V30 38 1 38 39
M  V30 39 1 37 3
M  V30 40 1 30 9
M  V30 41 1 16 10
M  V30 42 1 30 17
M  V30 43 1 34 18
M  V30 44 1 29 20
M  V30 45 1 27 21
M  V30 46 1 1 40
M  V30 47 1 1 41
M  V30 48 1 1 42
M  V30 49 1 3 43 CFG=1
M  V30 50 1 4 44 CFG=3
M  V30 51 1 5 45
M  V30 52 1 6 46 CFG=1
M  V30 53 1 7 47
M  V30 54 1 8 48 CFG=3
M  V30 55 1 13 49
M  V30 56 1 14 50
M  V30 57 1 15 51
M  V30 58 1 22 52
M  V30 59 1 23 53
M  V30 60 1 24 54
M  V30 61 1 28 55
M  V30 62 1 33 56
M  V30 63 1 37 57 CFG=1
M  V30 64 1 38 58
M  V30 65 1 38 59
M  V30 66 1 39 60
M  V30 END BOND
M  V30 END CTAB
M  END
>  <Dataset>  (593) 
ChEMBL_Kinases

>  <Ligand_Instance>  (593) 
nan

>  <PDB_ID>  (593) 
nan

>  <Standardized_SMILES>  (593) 
CO[C@H]1[C@H](O)[C@@H](O)[C@H](n2c3c(Cl)cccc3c3c4c(c5c6cccc(Cl)c6[nH]c5c32)C(=O)NC4=O)O[C@@H]1CO

>  <Name>  (593) 
REBECCAMYCIN

>  <Pocket>  (593) 
nan

>  <ATP_Site>  (593) 
nan

>  <Peripheral>  (593) 
nan

>  <Num_H_Atoms_ProtBoundConf>  (593) 
nan

>  <Num_Resolved_Atoms>  (593) 
nan

>  <Num_Not_Resolved_Atoms>  (593) 
nan

$$$$
CHEMBL3701062
     RDKit          3D

  0  0  0  0  0  0  0  0  0  0999 V3000
M  V30 BEGIN CTAB
M  V30 COUNTS 52 55 0 0 0
M  V30 BEGIN ATOM
M  V30 1 C -3.194931 -4.473832 3.464935 0
M  V30 2 C -2.441762 -3.221424 3.826054 0
M  V30 3 N -2.381190 -2.817458 5.108255 0
M  V30 4 C -1.703781 -1.696811 5.409141 0
M  V30 5 C -1.083354 -0.976418 4.420208 0
M  V30 6 C -1.110429 -1.344503 3.072152 0
M  V30 7 C -0.433531 -0.541095 2.065953 0
M  V30 8 C -0.696177 0.821059 2.259507 0
M  V30 9 C -0.156262 1.788948 1.418557 0
M  V30 10 C 0.654665 1.359715 0.376890 0
M  V30 11 C 1.229224 2.361462 -0.514708 0
M  V30 12 O 0.653719 2.759976 -1.563675 0
M  V30 13 N 2.512980 2.927096 -0.189818 0
M  V30 14 C 3.041462 3.914476 -1.101277 0
M  V30 15 C 4.121560 4.760934 -0.520679 0
M  V30 16 O 4.783944 4.206883 0.550612 0
M  V30 17 C 3.950080 3.715196 1.535311 0
M  V30 18 C 3.220316 2.521872 0.982208 0
M  V30 19 C 0.916264 0.018931 0.182234 0
M  V30 20 Cl 1.921565 -0.550316 -1.104749 0
M  V30 21 C 0.376689 -0.934302 1.021007 0
M  V30 22 C -1.820345 -2.501827 2.827479 0
M  V30 23 C -1.899451 -2.953566 1.465705 0
M  V30 24 C -1.974239 -3.357477 0.311814 0
M  V30 25 C -2.057029 -3.855557 -1.036673 0
M  V30 26 C -1.459363 -5.076955 -1.273022 0
M  V30 27 C -1.528110 -5.572097 -2.561596 0
M  V30 28 C -2.190384 -4.792708 -3.487971 0
M  V30 29 N -2.296732 -5.246005 -4.834136 0
M  V30 30 N -2.758067 -3.605554 -3.207528 0
M  V30 31 C -2.719406 -3.076076 -1.963255 0
M  V30 32 H -2.717047 -4.974175 2.597650 0
M  V30 33 H -3.101414 -5.157537 4.326721 0
M  V30 34 H -4.257548 -4.229518 3.240989 0
M  V30 35 H -1.670755 -1.392687 6.454856 0
M  V30 36 H -0.554755 -0.087170 4.716113 0
M  V30 37 H -1.316097 1.256168 3.043231 0
M  V30 38 H -0.331522 2.844391 1.530493 0
M  V30 39 H 2.178518 4.524189 -1.456770 0
M  V30 40 H 3.427927 3.371708 -1.988597 0
M  V30 41 H 4.878455 5.022207 -1.287268 0
M  V30 42 H 3.668422 5.723645 -0.184050 0
M  V30 43 H 4.609629 3.316568 2.345254 0
M  V30 44 H 3.303333 4.466982 2.008120 0
M  V30 45 H 3.976480 1.729027 0.781693 0
M  V30 46 H 2.589812 2.132771 1.794684 0
M  V30 47 H 0.504874 -2.007260 0.974618 0
M  V30 48 H -0.959917 -5.623904 -0.489908 0
M  V30 49 H -1.089517 -6.519715 -2.841263 0
M  V30 50 H -2.781067 -5.647240 -5.650287 0
M  V30 51 H -1.324029 -5.072034 -5.214031 0
M  V30 52 H -3.147366 -2.135525 -1.657496 0
M  V30 END ATOM
M  V30 BEGIN BOND
M  V30 1 1 1 2
M  V30 2 2 2 3
M  V30 3 1 3 4
M  V30 4 2 4 5
M  V30 5 1 5 6
M  V30 6 1 6 7
M  V30 7 2 7 8
M  V30 8 1 8 9
M  V30 9 2 9 10
M  V30 10 1 10 11
M  V30 11 2 11 12
M  V30 12 1 11 13
M  V30 13 1 13 14
M  V30 14 1 14 15
M  V30 15 1 15 16
M  V30 16 1 16 17
M  V30 17 1 17 18
M  V30 18 1 10 19
M  V30 19 1 19 20
M  V30 20 2 19 21
M  V30 21 2 6 22
M  V30 22 1 22 23
M  V30 23 3 23 24
M  V30 24 1 24 25
M  V30 25 2 25 26
M  V30 26 1 26 27
M  V30 27 2 27 28
M  V30 28 1 28 29
M  V30 29 1 28 30
M  V30 30 2 30 31
M  V30 31 1 22 2
M  V30 32 1 31 25
M  V30 33 1 21 7
M  V30 34 1 18 13
M  V30 35 1 1 32
M  V30 36 1 1 33
M  V30 37 1 1 34
M  V30 38 1 4 35
M  V30 39 1 5 36
M  V30 40 1 8 37
M  V30 41 1 9 38
M  V30 42 1 14 39
M  V30 43 1 14 40
M  V30 44 1 15 41
M  V30 45 1 15 42
M  V30 46 1 17 43
M  V30 47 1 17 44
M  V30 48 1 18 45
M  V30 49 1 18 46
M  V30 50 1 21 47
M  V30 51 1 26 48
M  V30 52 1 27 49
M  V30 53 1 29 50
M  V30 54 1 29 51
M  V30 55 1 31 52
M  V30 END BOND
M  V30 END CTAB
M  END
>  <Dataset>  (594) 
ChEMBL_Kinases

>  <Ligand_Instance>  (594) 
nan

>  <PDB_ID>  (594) 
nan

>  <Standardized_SMILES>  (594) 
Cc1nccc(-c2ccc(C(=O)N3CCOCC3)c(Cl)c2)c1C#Cc1ccc(N)nc1

>  <Name>  (594) 
nan

>  <Pocket>  (594) 
nan

>  <ATP_Site>  (594) 
nan

>  <Peripheral>  (594) 
nan

>  <Num_H_Atoms_ProtBoundConf>  (594) 
nan

>  <Num_Resolved_Atoms>  (594) 
nan

>  <Num_Not_Resolved_Atoms>  (594) 
nan

$$$$
CHEMBL4862196
     RDKit          3D

  0  0  0  0  0  0  0  0  0  0999 V3000
M  V30 BEGIN CTAB
M  V30 COUNTS 85 90 0 0 0
M  V30 BEGIN ATOM
M  V30 1 C -2.079542 -4.771984 -4.407414 0
M  V30 2 C -3.023207 -3.604529 -4.150137 0
M  V30 3 C -2.490004 -2.812577 -3.013565 0
M  V30 4 O -1.450987 -3.221898 -2.458857 0
M  V30 5 N -3.234871 -1.638700 -2.665520 0
M  V30 6 C -2.759233 -0.834863 -1.572951 0 CFG=1
M  V30 7 C -2.275116 0.483929 -2.198506 0
M  V30 8 C -1.594785 1.372772 -1.207124 0
M  V30 9 C -2.172031 1.042018 0.155336 0 CFG=1
M  V30 10 N -1.862483 2.066802 1.126166 0
M  V30 11 C -2.245930 3.350967 1.052396 0
M  V30 12 O -2.951419 3.697776 0.076113 0
M  V30 13 C -1.838502 4.202440 2.055884 0
M  V30 14 C -1.052101 3.856753 3.162165 0
M  V30 15 C -0.731668 4.873101 4.155529 0
M  V30 16 C -0.957908 4.771793 5.532276 0
M  V30 17 C -0.611105 5.772814 6.408793 0
M  V30 18 C -0.028418 6.910894 5.952015 0
M  V30 19 C 0.204679 7.032835 4.587149 0
M  V30 20 C -0.132822 6.042932 3.684145 0
M  V30 21 C -0.686235 2.526778 3.187987 0
M  V30 22 C 0.096464 2.130039 4.249233 0
M  V30 23 N 0.479480 0.833199 4.306664 0
M  V30 24 C 0.090811 -0.034371 3.333940 0
M  V30 25 N 0.321180 -1.422143 3.107585 0
M  V30 26 C 1.092171 -1.921549 2.046993 0
M  V30 27 C 1.660574 -0.999205 1.195263 0
M  V30 28 C 2.417854 -1.338535 0.107137 0
M  V30 29 C 2.583373 -2.693223 -0.092757 0
M  V30 30 N 3.360660 -3.147884 -1.208244 0
M  V30 31 C 3.382150 -4.506707 -1.778778 0
M  V30 32 C 2.749208 -4.348333 -3.150855 0
M  V30 33 N 3.421977 -3.375594 -3.920758 0
M  V30 34 C 3.269797 -3.418944 -5.330643 0
M  V30 35 C 3.733303 -2.129959 -3.328943 0
M  V30 36 C 4.265140 -2.282673 -1.938207 0
M  V30 37 C 2.036936 -3.653591 0.730432 0
M  V30 38 C 1.275757 -3.290285 1.823920 0
M  V30 39 O 0.644896 -4.086344 2.765451 0
M  V30 40 C 0.674048 -5.499332 2.767896 0
M  V30 41 N -0.673154 0.389418 2.309945 0
M  V30 42 C -1.092214 1.674732 2.188207 0
M  V30 43 C -3.637847 0.810909 -0.025489 0
M  V30 44 C -3.901792 -0.545315 -0.642656 0
M  V30 45 H -2.373820 -5.294691 -5.355255 0
M  V30 46 H -1.046918 -4.396299 -4.594144 0
M  V30 47 H -2.038608 -5.472639 -3.574283 0
M  V30 48 H -4.004268 -4.079084 -3.872578 0
M  V30 49 H -3.164038 -3.010469 -5.058475 0
M  V30 50 H -4.097327 -1.360919 -3.178589 0
M  V30 51 H -1.880051 -1.271041 -1.066636 0
M  V30 52 H -1.547673 0.181979 -2.981807 0
M  V30 53 H -3.107142 0.986483 -2.712078 0
M  V30 54 H -0.505382 1.144266 -1.230093 0
M  V30 55 H -1.744352 2.416763 -1.498047 0
M  V30 56 H -1.722800 0.075633 0.440282 0
M  V30 57 H -2.157105 5.248356 1.984794 0
M  V30 58 H -1.435156 3.867877 5.898835 0
M  V30 59 H -0.810139 5.639634 7.473538 0
M  V30 60 H 0.271276 7.743208 6.597854 0
M  V30 61 H 0.668103 7.931564 4.188148 0
M  V30 62 H 0.059567 6.164836 2.631492 0
M  V30 63 H 0.428779 2.769257 5.022574 0
M  V30 64 H -0.167508 -1.996807 3.844473 0
M  V30 65 H 1.516182 0.071068 1.371571 0
M  V30 66 H 2.832627 -0.581569 -0.519245 0
M  V30 67 H 2.862751 -5.244293 -1.181777 0
M  V30 68 H 4.427230 -4.834136 -1.933263 0
M  V30 69 H 1.682215 -4.064957 -3.038625 0
M  V30 70 H 2.864595 -5.337638 -3.659534 0
M  V30 71 H 2.460865 -4.082339 -5.693235 0
M  V30 72 H 3.050469 -2.386127 -5.724952 0
M  V30 73 H 4.261521 -3.703611 -5.790077 0
M  V30 74 H 4.563171 -1.675569 -3.939156 0
M  V30 75 H 2.883589 -1.418662 -3.353020 0
M  V30 76 H 5.255441 -2.814691 -2.006155 0
M  V30 77 H 4.469346 -1.317445 -1.438803 0
M  V30 78 H 2.126199 -4.718333 0.632473 0
M  V30 79 H 0.893892 -5.941082 1.774923 0
M  V30 80 H -0.332177 -5.852625 3.141111 0
M  V30 81 H 1.421091 -5.795355 3.545464 0
M  V30 82 H -4.026065 1.579650 -0.756550 0
M  V30 83 H -4.172178 0.919030 0.935336 0
M  V30 84 H -4.024479 -1.321772 0.141213 0
M  V30 85 H -4.862405 -0.485166 -1.182178 0
M  V30 END ATOM
M  V30 BEGIN BOND
M  V30 1 1 1 2
M  V30 2 1 2 3
M  V30 3 2 3 4
M  V30 4 1 3 5
M  V30 5 1 5 6
M  V30 6 1 6 7
M  V30 7 1 7 8
M  V30 8 1 8 9
M  V30 9 1 9 10
M  V30 10 1 10 11
M  V30 11 2 11 12
M  V30 12 1 11 13
M  V30 13 2 13 14
M  V30 14 1 14 15
M  V30 15 2 15 16
M  V30 16 1 16 17
M  V30 17 2 17 18
M  V30 18 1 18 19
M  V30 19 2 19 20
M  V30 20 1 14 21
M  V30 21 2 21 22
M  V30 22 1 22 23
M  V30 23 2 23 24
M  V30 24 1 24 25
M  V30 25 1 25 26
M  V30 26 2 26 27
M  V30 27 1 27 28
M  V30 28 2 28 29
M  V30 29 1 29 30
M  V30 30 1 30 31
M  V30 31 1 31 32
M  V30 32 1 32 33
M  V30 33 1 33 34
M  V30 34 1 33 35
M  V30 35 1 35 36
M  V30 36 1 29 37
M  V30 37 2 37 38
M  V30 38 1 38 39
M  V30 39 1 39 40
M  V30 40 1 24 41
M  V30 41 2 41 42
M  V30 42 1 9 43
M  V30 43 1 43 44
M  V30 44 1 44 6
M  V30 45 1 42 10
M  V30 46 1 20 15
M  V30 47 1 42 21
M  V30 48 1 38 26
M  V30 49 1 36 30
M  V30 50 1 1 45
M  V30 51 1 1 46
M  V30 52 1 1 47
M  V30 53 1 2 48
M  V30 54 1 2 49
M  V30 55 1 5 50
M  V30 56 1 6 51 CFG=1
M  V30 57 1 7 52
M  V30 58 1 7 53
M  V30 59 1 8 54
M  V30 60 1 8 55
M  V30 61 1 9 56 CFG=1
M  V30 62 1 13 57
M  V30 63 1 16 58
M  V30 64 1 17 59
M  V30 65 1 18 60
M  V30 66 1 19 61
M  V30 67 1 20 62
M  V30 68 1 22 63
M  V30 69 1 25 64
M  V30 70 1 27 65
M  V30 71 1 28 66
M  V30 72 1 31 67
M  V30 73 1 31 68
M  V30 74 1 32 69
M  V30 75 1 32 70
M  V30 76 1 34 71
M  V30 77 1 34 72
M  V30 78 1 34 73
M  V30 79 1 35 74
M  V30 80 1 35 75
M  V30 81 1 36 76
M  V30 82 1 36 77
M  V30 83 1 37 78
M  V30 84 1 40 79
M  V30 85 1 40 80
M  V30 86 1 40 81
M  V30 87 1 43 82
M  V30 88 1 43 83
M  V30 89 1 44 84
M  V30 90 1 44 85
M  V30 END BOND
M  V30 END CTAB
M  END
>  <Dataset>  (595) 
ChEMBL_Kinases

>  <Ligand_Instance>  (595) 
nan

>  <PDB_ID>  (595) 
nan

>  <Standardized_SMILES>  (595) 
CCC(=O)N[C@H]1CC[C@@H](n2c(=O)cc(-c3ccccc3)c3cnc(Nc4ccc(N5CCN(C)CC5)cc4OC)nc32)CC1

>  <Name>  (595) 
nan

>  <Pocket>  (595) 
nan

>  <ATP_Site>  (595) 
nan

>  <Peripheral>  (595) 
nan

>  <Num_H_Atoms_ProtBoundConf>  (595) 
nan

>  <Num_Resolved_Atoms>  (595) 
nan

>  <Num_Not_Resolved_Atoms>  (595) 
nan

$$$$
CHEMBL3700981
     RDKit          3D

  0  0  0  0  0  0  0  0  0  0999 V3000
M  V30 BEGIN CTAB
M  V30 COUNTS 64 68 0 0 0
M  V30 BEGIN ATOM
M  V30 1 C 6.242175 3.153872 5.045185 0
M  V30 2 N 6.846664 2.243539 4.146804 0
M  V30 3 C 6.366292 0.906719 4.176907 0
M  V30 4 C 6.058087 0.314236 2.834665 0
M  V30 5 C 5.098917 1.209803 2.123155 0
M  V30 6 N 3.922016 1.056083 1.524524 0
M  V30 7 C 3.290160 1.905308 0.998079 0
M  V30 8 N 1.974306 1.511458 0.378260 0
M  V30 9 C 0.856634 1.593204 1.210707 0
M  V30 10 O 1.025804 1.982448 2.395649 0
M  V30 11 C -0.501192 1.255727 0.796232 0
M  V30 12 C -1.514599 1.399665 1.750627 0
M  V30 13 C -2.811225 1.080069 1.363546 0
M  V30 14 C -3.122939 0.632916 0.088297 0
M  V30 15 C -2.115689 0.494218 -0.846139 0
M  V30 16 C -2.477416 0.021647 -2.176913 0
M  V30 17 C -1.300097 -0.361696 -3.055207 0
M  V30 18 C -1.877540 -1.193860 -4.211766 0
M  V30 19 C -3.322609 -0.793514 -4.502889 0
M  V30 20 C -4.245415 -1.152644 -3.328492 0
M  V30 21 N -3.331107 -1.152095 -2.171586 0
M  V30 22 C -3.220358 -2.124529 -1.139381 0
M  V30 23 O -2.364846 -1.959917 -0.234372 0
M  V30 24 N -4.026365 -3.280231 -1.070121 0
M  V30 25 C -4.033666 -4.321598 -0.120544 0
M  V30 26 C -3.240812 -4.449539 0.971680 0
M  V30 27 C -3.288805 -5.492487 1.873170 0
M  V30 28 C -4.204590 -6.502150 1.677451 0
M  V30 29 C -5.032416 -6.414212 0.579097 0
M  V30 30 C -6.002047 -7.441003 0.333624 0
M  V30 31 N -6.792173 -8.263197 0.144233 0
M  V30 32 C -4.937421 -5.347854 -0.286228 0
M  V30 33 C -0.803993 0.811358 -0.474321 0
M  V30 34 S 4.283515 3.429363 1.196420 0
M  V30 35 C 5.632815 2.482923 2.129845 0
M  V30 36 C 6.969316 2.698515 2.799567 0
M  V30 37 H 6.868005 3.438454 5.914877 0
M  V30 38 H 5.315061 2.705576 5.454405 0
M  V30 39 H 5.904046 4.088212 4.523334 0
M  V30 40 H 5.484049 0.834543 4.844914 0
M  V30 41 H 7.147891 0.280650 4.676530 0
M  V30 42 H 6.973126 0.242792 2.214777 0
M  V30 43 H 5.663576 -0.701946 2.960527 0
M  V30 44 H 1.886305 1.201976 -0.588612 0
M  V30 45 H -1.320742 1.747241 2.766127 0
M  V30 46 H -3.605433 1.189836 2.102429 0
M  V30 47 H -4.160413 0.408290 -0.122319 0
M  V30 48 H -2.948853 0.891451 -2.701137 0
M  V30 49 H -0.585396 -0.957405 -2.464150 0
M  V30 50 H -0.850669 0.543659 -3.510857 0
M  V30 51 H -1.846169 -2.272129 -3.974130 0
M  V30 52 H -1.325132 -1.030434 -5.140182 0
M  V30 53 H -3.604368 -1.373469 -5.402938 0
M  V30 54 H -3.310790 0.299958 -4.688267 0
M  V30 55 H -4.744369 -2.104628 -3.485769 0
M  V30 56 H -4.903849 -0.276773 -3.168483 0
M  V30 57 H -4.707097 -3.322178 -1.870681 0
M  V30 58 H -2.510544 -3.713381 1.191452 0
M  V30 59 H -2.640265 -5.556070 2.728854 0
M  V30 60 H -4.300229 -7.350433 2.341006 0
M  V30 61 H -5.630157 -5.344769 -1.140371 0
M  V30 62 H -0.011935 0.703165 -1.206214 0
M  V30 63 H 7.251700 3.770360 2.740732 0
M  V30 64 H 7.723733 2.139526 2.218095 0
M  V30 END ATOM
M  V30 BEGIN BOND
M  V30 1 1 1 2
M  V30 2 1 2 3
M  V30 3 1 3 4
M  V30 4 1 4 5
M  V30 5 1 5 6
M  V30 6 2 6 7
M  V30 7 1 7 8
M  V30 8 1 8 9
M  V30 9 2 9 10
M  V30 10 1 9 11
M  V30 11 2 11 12
M  V30 12 1 12 13
M  V30 13 2 13 14
M  V30 14 1 14 15
M  V30 15 1 15 16
M  V30 16 1 16 17
M  V30 17 1 17 18
M  V30 18 1 18 19
M  V30 19 1 19 20
M  V30 20 1 20 21
M  V30 21 1 21 22
M  V30 22 2 22 23
M  V30 23 1 22 24
M  V30 24 1 24 25
M  V30 25 2 25 26
M  V30 26 1 26 27
M  V30 27 2 27 28
M  V30 28 1 28 29
M  V30 29 1 29 30
M  V30 30 3 30 31
M  V30 31 2 29 32
M  V30 32 2 15 33
M  V30 33 1 7 34
M  V30 34 1 34 35
M  V30 35 1 35 36
M  V30 36 1 36 2
M  V30 37 2 35 5
M  V30 38 1 33 11
M  V30 39 1 21 16
M  V30 40 1 32 25
M  V30 41 1 1 37
M  V30 42 1 1 38
M  V30 43 1 1 39
M  V30 44 1 3 40
M  V30 45 1 3 41
M  V30 46 1 4 42
M  V30 47 1 4 43
M  V30 48 1 8 44
M  V30 49 1 12 45
M  V30 50 1 13 46
M  V30 51 1 14 47
M  V30 52 1 16 48
M  V30 53 1 17 49
M  V30 54 1 17 50
M  V30 55 1 18 51
M  V30 56 1 18 52
M  V30 57 1 19 53
M  V30 58 1 19 54
M  V30 59 1 20 55
M  V30 60 1 20 56
M  V30 61 1 24 57
M  V30 62 1 26 58
M  V30 63 1 27 59
M  V30 64 1 28 60
M  V30 65 1 32 61
M  V30 66 1 33 62
M  V30 67 1 36 63
M  V30 68 1 36 64
M  V30 END BOND
M  V30 END CTAB
M  END
>  <Dataset>  (596) 
ChEMBL_Kinases

>  <Ligand_Instance>  (596) 
nan

>  <PDB_ID>  (596) 
nan

>  <Standardized_SMILES>  (596) 
CN1CCc2nc(NC(=O)c3cccc(C4CCCCN4C(=O)Nc4cccc(C#N)c4)c3)sc2C1

>  <Name>  (596) 
nan

>  <Pocket>  (596) 
nan

>  <ATP_Site>  (596) 
nan

>  <Peripheral>  (596) 
nan

>  <Num_H_Atoms_ProtBoundConf>  (596) 
nan

>  <Num_Resolved_Atoms>  (596) 
nan

>  <Num_Not_Resolved_Atoms>  (596) 
nan

$$$$
CHEMBL4862079
     RDKit          3D

  0  0  0  0  0  0  0  0  0  0999 V3000
M  V30 BEGIN CTAB
M  V30 COUNTS 55 61 0 0 0
M  V30 BEGIN ATOM
M  V30 1 C -2.631644 -3.333657 3.103369 0
M  V30 2 C -1.350852 -2.866556 3.341071 0
M  V30 3 C -0.506629 -2.493344 2.299419 0
M  V30 4 C 0.832278 -2.009182 2.624105 0
M  V30 5 N 1.651567 -2.593370 3.519267 0
M  V30 6 N 2.781952 -1.887012 3.557973 0
M  V30 7 C 2.725276 -0.854513 2.711256 0
M  V30 8 C 3.604259 0.146174 2.384244 0
M  V30 9 C 3.187366 1.051464 1.447754 0
M  V30 10 C 1.960763 1.083986 0.773700 0
M  V30 11 C 1.642387 2.098892 -0.204465 0
M  V30 12 N 1.972128 1.963615 -1.519388 0
M  V30 13 N 1.545101 3.061950 -2.162420 0
M  V30 14 C 0.978990 3.812033 -1.220859 0
M  V30 15 N 1.013317 3.253362 0.026163 0
M  V30 16 C 0.478431 3.843724 1.217096 0
M  V30 17 C 1.363991 3.941268 2.416487 0
M  V30 18 C 0.475436 2.929654 3.115250 0
M  V30 19 C -0.517257 3.027783 1.994936 0
M  V30 20 C 1.128307 0.029278 1.168036 0
M  V30 21 C 1.489878 -0.907382 2.100102 0
M  V30 22 C -0.994442 -2.606924 1.028959 0
M  V30 23 C -2.272197 -3.070047 0.739219 0
M  V30 24 N -2.714066 -3.160801 -0.633932 0
M  V30 25 C -3.947538 -2.965167 -1.148183 0
M  V30 26 N -3.831192 -3.169611 -2.474693 0
M  V30 27 C -2.561380 -3.484972 -2.787819 0
M  V30 28 C -1.953519 -3.794611 -4.110789 0
M  V30 29 C -0.470557 -3.525516 -4.269619 0
M  V30 30 C -0.908122 -4.936929 -4.132838 0
M  V30 31 C -1.822063 -3.485027 -1.613108 0
M  V30 32 C -3.096063 -3.436219 1.791656 0
M  V30 33 H -3.228356 -3.602863 3.939015 0
M  V30 34 H -0.998878 -2.791252 4.379733 0
M  V30 35 H 3.634900 -2.070278 4.153776 0
M  V30 36 H 4.579031 0.241761 2.823854 0
M  V30 37 H 3.888499 1.853097 1.184213 0
M  V30 38 H 0.556171 4.772967 -1.535927 0
M  V30 39 H 0.018171 4.852634 1.015779 0
M  V30 40 H 1.294549 4.920527 2.971234 0
M  V30 41 H 2.418839 3.690621 2.313093 0
M  V30 42 H 0.912578 1.950746 3.325706 0
M  V30 43 H 0.027047 3.300915 4.084490 0
M  V30 44 H -1.454739 3.582136 2.301242 0
M  V30 45 H -0.836124 2.113116 1.494271 0
M  V30 46 H 0.152714 -0.010292 0.683682 0
M  V30 47 H -0.358558 -2.323511 0.202046 0
M  V30 48 H -4.824002 -2.696681 -0.556377 0
M  V30 49 H -2.610376 -3.773716 -5.000371 0
M  V30 50 H -0.090865 -3.161850 -5.231472 0
M  V30 51 H -0.005692 -2.987785 -3.400862 0
M  V30 52 H -0.659377 -5.408805 -3.160225 0
M  V30 53 H -0.859239 -5.557295 -5.056672 0
M  V30 54 H -0.768572 -3.696761 -1.503919 0
M  V30 55 H -4.096545 -3.800711 1.598992 0
M  V30 END ATOM
M  V30 BEGIN BOND
M  V30 1 2 1 2
M  V30 2 1 2 3
M  V30 3 1 3 4
M  V30 4 2 4 5
M  V30 5 1 5 6
M  V30 6 1 6 7
M  V30 7 2 7 8
M  V30 8 1 8 9
M  V30 9 2 9 10
M  V30 10 1 10 11
M  V30 11 2 11 12
M  V30 12 1 12 13
M  V30 13 2 13 14
M  V30 14 1 14 15
M  V30 15 1 15 16
M  V30 16 1 16 17
M  V30 17 1 17 18
M  V30 18 1 18 19
M  V30 19 1 10 20
M  V30 20 2 20 21
M  V30 21 2 3 22
M  V30 22 1 22 23
M  V30 23 1 23 24
M  V30 24 1 24 25
M  V30 25 2 25 26
M  V30 26 1 26 27
M  V30 27 1 27 28
M  V30 28 1 28 29
M  V30 29 1 29 30
M  V30 30 2 27 31
M  V30 31 2 23 32
M  V30 32 1 32 1
M  V30 33 1 21 4
M  V30 34 1 31 24
M  V30 35 1 21 7
M  V30 36 1 30 28
M  V30 37 1 15 11
M  V30 38 1 19 16
M  V30 39 1 1 33
M  V30 40 1 2 34
M  V30 41 1 6 35
M  V30 42 1 8 36
M  V30 43 1 9 37
M  V30 44 1 14 38
M  V30 45 1 16 39
M  V30 46 1 17 40
M  V30 47 1 17 41
M  V30 48 1 18 42
M  V30 49 1 18 43
M  V30 50 1 19 44
M  V30 51 1 19 45
M  V30 52 1 20 46
M  V30 53 1 22 47
M  V30 54 1 25 48
M  V30 55 1 28 49
M  V30 56 1 29 50
M  V30 57 1 29 51
M  V30 58 1 30 52
M  V30 59 1 30 53
M  V30 60 1 31 54
M  V30 61 1 32 55
M  V30 END BOND
M  V30 END CTAB
M  END
>  <Dataset>  (597) 
ChEMBL_Kinases

>  <Ligand_Instance>  (597) 
nan

>  <PDB_ID>  (597) 
nan

>  <Standardized_SMILES>  (597) 
c1cc(-c2n[nH]c3ccc(-c4nncn4C4CCC4)cc23)cc(-n2cnc(C3CC3)c2)c1

>  <Name>  (597) 
nan

>  <Pocket>  (597) 
nan

>  <ATP_Site>  (597) 
nan

>  <Peripheral>  (597) 
nan

>  <Num_H_Atoms_ProtBoundConf>  (597) 
nan

>  <Num_Resolved_Atoms>  (597) 
nan

>  <Num_Not_Resolved_Atoms>  (597) 
nan

$$$$
CHEMBL4063489
     RDKit          3D

  0  0  0  0  0  0  0  0  0  0999 V3000
M  V30 BEGIN CTAB
M  V30 COUNTS 55 58 0 0 0
M  V30 BEGIN ATOM
M  V30 1 O 0.456238 0.451660 3.623252 0
M  V30 2 C 0.828491 -0.048406 2.556042 0
M  V30 3 C 2.258456 -0.144277 2.282780 0
M  V30 4 C 3.239046 0.249493 3.055939 0
M  V30 5 C 4.679140 0.317108 3.115224 0
M  V30 6 C 5.330886 0.694603 4.274754 0
M  V30 7 N 6.662205 0.745842 4.323344 0
M  V30 8 C 7.434742 0.444073 3.281595 0
M  V30 9 C 6.800751 0.068180 2.119928 0
M  V30 10 C 5.408275 -0.003914 2.005322 0
M  V30 11 C 5.051356 -0.338226 0.652654 0
M  V30 12 C 5.416188 -1.582405 0.112709 0
M  V30 13 N 5.026554 -1.677842 -1.182208 0
M  V30 14 N 4.417061 -0.551868 -1.534272 0
M  V30 15 C 3.818175 -0.126591 -2.782290 0
M  V30 16 F 3.921426 1.257925 -2.900474 0
M  V30 17 F 2.472195 -0.438500 -2.820244 0
M  V30 18 C 4.426015 0.248741 -0.455361 0
M  V30 19 N 0.038759 -0.559872 1.524079 0
M  V30 20 C -1.366911 -0.658152 1.392621 0
M  V30 21 C -2.062397 -1.775861 1.838501 0
M  V30 22 C -3.446471 -1.862882 1.698253 0
M  V30 23 C -4.114691 -0.812377 1.105373 0
M  V30 24 C -5.589825 -0.829255 0.911412 0
M  V30 25 N -6.005904 -1.376812 -0.341849 0
M  V30 26 C -5.649766 -2.702436 -0.637561 0
M  V30 27 C -5.400311 -2.813265 -2.148970 0
M  V30 28 O -4.365779 -1.888270 -2.400792 0
M  V30 29 C -4.991695 -0.649716 -2.471681 0
M  V30 30 C -6.041155 -0.452943 -1.422388 0
M  V30 31 C -3.419672 0.299562 0.662646 0
M  V30 32 C -2.049912 0.407388 0.790953 0
M  V30 33 H 2.709035 -0.581915 1.411214 0
M  V30 34 H 2.758806 0.673732 3.956383 0
M  V30 35 H 4.776796 0.953798 5.158818 0
M  V30 36 H 8.491674 0.518448 3.433083 0
M  V30 37 H 7.547693 -0.155481 1.335974 0
M  V30 38 H 5.928318 -2.444072 0.520826 0
M  V30 39 H 4.312417 -0.616522 -3.650023 0
M  V30 40 H 4.037082 1.262692 -0.291468 0
M  V30 41 H 0.375975 -0.976814 0.628277 0
M  V30 42 H -1.535503 -2.600555 2.304627 0
M  V30 43 H -3.970067 -2.742265 2.053227 0
M  V30 44 H -6.041941 -1.449787 1.720422 0
M  V30 45 H -5.994935 0.179830 1.017401 0
M  V30 46 H -4.730057 -3.101198 -0.180924 0
M  V30 47 H -6.447691 -3.446868 -0.340318 0
M  V30 48 H -4.989531 -3.808969 -2.344283 0
M  V30 49 H -6.315989 -2.546279 -2.693551 0
M  V30 50 H -5.428920 -0.574095 -3.491662 0
M  V30 51 H -4.202145 0.134771 -2.418586 0
M  V30 52 H -7.053601 -0.487843 -1.881121 0
M  V30 53 H -5.943813 0.568086 -0.998750 0
M  V30 54 H -3.956384 1.116635 0.200562 0
M  V30 55 H -1.563606 1.293028 0.427829 0
M  V30 END ATOM
M  V30 BEGIN BOND
M  V30 1 2 1 2
M  V30 2 1 2 3
M  V30 3 2 3 4
M  V30 4 1 4 5
M  V30 5 2 5 6
M  V30 6 1 6 7
M  V30 7 2 7 8
M  V30 8 1 8 9
M  V30 9 2 9 10
M  V30 10 1 10 11
M  V30 11 1 11 12
M  V30 12 2 12 13
M  V30 13 1 13 14
M  V30 14 1 14 15
M  V30 15 1 15 16
M  V30 16 1 15 17
M  V30 17 1 14 18
M  V30 18 1 2 19
M  V30 19 1 19 20
M  V30 20 2 20 21
M  V30 21 1 21 22
M  V30 22 2 22 23
M  V30 23 1 23 24
M  V30 24 1 24 25
M  V30 25 1 25 26
M  V30 26 1 26 27
M  V30 27 1 27 28
M  V30 28 1 28 29
M  V30 29 1 29 30
M  V30 30 1 23 31
M  V30 31 2 31 32
M  V30 32 1 10 5
M  V30 33 2 18 11
M  V30 34 1 32 20
M  V30 35 1 30 25
M  V30 36 1 3 33
M  V30 37 1 4 34
M  V30 38 1 6 35
M  V30 39 1 8 36
M  V30 40 1 9 37
M  V30 41 1 12 38
M  V30 42 1 15 39
M  V30 43 1 18 40
M  V30 44 1 19 41
M  V30 45 1 21 42
M  V30 46 1 22 43
M  V30 47 1 24 44
M  V30 48 1 24 45
M  V30 49 1 26 46
M  V30 50 1 26 47
M  V30 51 1 27 48
M  V30 52 1 27 49
M  V30 53 1 29 50
M  V30 54 1 29 51
M  V30 55 1 30 52
M  V30 56 1 30 53
M  V30 57 1 31 54
M  V30 58 1 32 55
M  V30 END BOND
M  V30 END CTAB
M  END
>  <Dataset>  (598) 
ChEMBL_Kinases

>  <Ligand_Instance>  (598) 
nan

>  <PDB_ID>  (598) 
nan

>  <Standardized_SMILES>  (598) 
O=C(/C=C/c1cnccc1-c1cnn(C(F)F)c1)Nc1ccc(CN2CCOCC2)cc1

>  <Name>  (598) 
nan

>  <Pocket>  (598) 
nan

>  <ATP_Site>  (598) 
nan

>  <Peripheral>  (598) 
nan

>  <Num_H_Atoms_ProtBoundConf>  (598) 
nan

>  <Num_Resolved_Atoms>  (598) 
nan

>  <Num_Not_Resolved_Atoms>  (598) 
nan

$$$$
CHEMBL4862107
     RDKit          3D

  0  0  0  0  0  0  0  0  0  0999 V3000
M  V30 BEGIN CTAB
M  V30 COUNTS 55 57 0 0 0
M  V30 BEGIN ATOM
M  V30 1 H 3.541617 -3.311611 4.158280 0 MASS=2
M  V30 2 C 2.999535 -2.733755 3.363746 0
M  V30 3 H 2.451908 -1.934041 3.929687 0 MASS=2
M  V30 4 H 2.241221 -3.340868 2.858507 0 MASS=2
M  V30 5 O 3.872791 -2.200910 2.450324 0
M  V30 6 C 3.248775 -1.463092 1.426850 0 CFG=1
M  V30 7 C 3.652985 -0.030797 1.502211 0
M  V30 8 C 3.614362 0.709529 0.202000 0
M  V30 9 C 2.932865 -0.057339 -0.900531 0 CFG=2
M  V30 10 N 1.576553 -0.426229 -0.627355 0
M  V30 11 C 0.546676 0.552848 -0.382004 0
M  V30 12 N 0.872251 1.856145 -0.416043 0
M  V30 13 C -0.076379 2.777999 -0.189221 0
M  V30 14 C -1.348908 2.320606 0.069249 0
M  V30 15 C -2.343549 3.356096 0.309729 0
M  V30 16 N -2.076079 4.749210 0.288683 0
M  V30 17 O -3.540344 3.507395 0.570483 0
M  V30 18 C -1.730464 0.999027 0.114666 0
M  V30 19 N -3.029171 0.543423 0.378748 0
M  V30 20 C -3.283280 -0.880548 0.393736 0 CFG=2
M  V30 21 C -2.460916 -1.609689 1.432256 0
M  V30 22 C -3.167038 -2.910069 1.733575 0
M  V30 23 C -4.040563 -3.357405 0.583360 0
M  V30 24 C -3.459714 -3.007049 -0.755431 0 CFG=2
M  V30 25 O -2.385043 -3.869696 -0.980921 0
M  V30 26 C -3.089614 -1.562591 -0.918992 0
M  V30 27 N -0.712513 0.154753 -0.124816 0
M  V30 28 C 3.754514 -1.317568 -1.051574 0
M  V30 29 C 3.497270 -2.152594 0.146978 0
M  V30 30 H 2.162715 -1.518180 1.652324 0
M  V30 31 H 4.695487 0.016189 1.883469 0
M  V30 32 H 3.039007 0.541739 2.231477 0
M  V30 33 H 4.635442 0.921264 -0.177943 0
M  V30 34 H 3.121942 1.696448 0.285087 0
M  V30 35 H 3.013427 0.593139 -1.809242 0
M  V30 36 H 1.282499 -1.449383 -0.597618 0
M  V30 37 H 0.187911 3.822210 -0.217219 0
M  V30 38 H -2.246535 5.477411 -0.467486 0
M  V30 39 H -1.645904 5.366176 1.027986 0
M  V30 40 H -3.819011 1.197613 0.564921 0
M  V30 41 H -4.354545 -1.078032 0.690105 0
M  V30 42 H -2.258970 -1.004878 2.318979 0
M  V30 43 H -1.502287 -1.906571 0.922316 0
M  V30 44 H -3.857123 -2.710191 2.584157 0
M  V30 45 H -2.473197 -3.725950 2.016832 0
M  V30 46 H -4.089444 -4.466637 0.628499 0
M  V30 47 H -5.097777 -3.016250 0.713126 0
M  V30 48 H -4.236796 -3.262664 -1.515649 0
M  V30 49 H -2.280242 -4.547475 -0.260313 0
M  V30 50 H -3.645374 -1.073557 -1.751362 0
M  V30 51 H -2.009683 -1.541137 -1.171832 0
M  V30 52 H 4.840138 -1.076249 -1.186473 0
M  V30 53 H 3.393991 -1.839890 -1.960702 0
M  V30 54 H 2.650594 -2.859704 -0.098241 0
M  V30 55 H 4.379069 -2.857558 0.235870 0
M  V30 END ATOM
M  V30 BEGIN BOND
M  V30 1 1 1 2
M  V30 2 1 2 3
M  V30 3 1 2 4
M  V30 4 1 2 5
M  V30 5 1 5 6
M  V30 6 1 6 7
M  V30 7 1 7 8
M  V30 8 1 8 9
M  V30 9 1 9 10
M  V30 10 1 10 11
M  V30 11 2 11 12
M  V30 12 1 12 13
M  V30 13 2 13 14
M  V30 14 1 14 15
M  V30 15 1 15 16
M  V30 16 2 15 17
M  V30 17 1 14 18
M  V30 18 1 18 19
M  V30 19 1 19 20
M  V30 20 1 20 21
M  V30 21 1 21 22
M  V30 22 1 22 23
M  V30 23 1 23 24
M  V30 24 1 24 25
M  V30 25 1 24 26
M  V30 26 2 18 27
M  V30 27 1 9 28
M  V30 28 1 28 29
M  V30 29 1 29 6
M  V30 30 1 27 11
M  V30 31 1 26 20
M  V30 32 1 6 30 CFG=1
M  V30 33 1 7 31
M  V30 34 1 7 32
M  V30 35 1 8 33
M  V30 36 1 8 34
M  V30 37 1 9 35 CFG=3
M  V30 38 1 10 36
M  V30 39 1 13 37
M  V30 40 1 16 38
M  V30 41 1 16 39
M  V30 42 1 19 40
M  V30 43 1 20 41 CFG=1
M  V30 44 1 21 42
M  V30 45 1 21 43
M  V30 46 1 22 44
M  V30 47 1 22 45
M  V30 48 1 23 46
M  V30 49 1 23 47
M  V30 50 1 24 48 CFG=3
M  V30 51 1 25 49
M  V30 52 1 26 50
M  V30 53 1 26 51
M  V30 54 1 28 52
M  V30 55 1 28 53
M  V30 56 1 29 54
M  V30 57 1 29 55
M  V30 END BOND
M  V30 END CTAB
M  END
>  <Dataset>  (599) 
ChEMBL_Kinases

>  <Ligand_Instance>  (599) 
nan

>  <PDB_ID>  (599) 
nan

>  <Standardized_SMILES>  (599) 
[2H]C([2H])([2H])O[C@H]1CC[C@H](Nc2ncc(C(N)=O)c(N[C@@H]3CCC[C@H](O)C3)n2)CC1

>  <Name>  (599) 
nan

>  <Pocket>  (599) 
nan

>  <ATP_Site>  (599) 
nan

>  <Peripheral>  (599) 
nan

>  <Num_H_Atoms_ProtBoundConf>  (599) 
nan

>  <Num_Resolved_Atoms>  (599) 
nan

>  <Num_Not_Resolved_Atoms>  (599) 
nan

$$$$
CHEMBL4063398
     RDKit          3D

  0  0  0  0  0  0  0  0  0  0999 V3000
M  V30 BEGIN CTAB
M  V30 COUNTS 81 86 0 0 0
M  V30 BEGIN ATOM
M  V30 1 C -4.029390 -2.506234 -5.809987 0
M  V30 2 C -3.461392 -1.148673 -5.711216 0
M  V30 3 C -2.021616 -0.936883 -5.572732 0 CFG=2
M  V30 4 C -1.110017 -1.391496 -6.616007 0
M  V30 5 C -1.128140 -1.865384 -7.880546 0
M  V30 6 C -2.261592 -2.240906 -8.671584 0
M  V30 7 N -2.021116 -2.762980 -10.001931 0
M  V30 8 O -3.448506 -2.402381 -8.920505 0
M  V30 9 N 0.144189 -1.908225 -8.362662 0
M  V30 10 C 0.915567 -1.454278 -7.369288 0
M  V30 11 N 0.164703 -1.125279 -6.259787 0
M  V30 12 C 0.749112 -0.776245 -4.992792 0
M  V30 13 C 2.079550 -0.472053 -4.902642 0
M  V30 14 N 2.444292 -0.123238 -3.683088 0
M  V30 15 C 1.678107 -0.044360 -2.586654 0
M  V30 16 N 2.343777 0.407467 -1.437124 0
M  V30 17 C 2.082816 0.631309 -0.083437 0
M  V30 18 C 0.889704 0.273644 0.525171 0
M  V30 19 C 0.517782 0.421301 1.842006 0
M  V30 20 C 1.471336 1.007357 2.658349 0
M  V30 21 C 1.262275 1.233845 4.077507 0
M  V30 22 O 2.108398 1.875115 4.790214 0
M  V30 23 N 0.142246 0.801298 4.871586 0
M  V30 24 C -0.000271 1.063863 6.266449 0
M  V30 25 C -1.280468 1.716783 6.676222 0
M  V30 26 C -1.142784 2.163529 8.126471 0
M  V30 27 N -0.829904 1.000027 8.966333 0
M  V30 28 C -0.681147 1.535894 10.327725 0
M  V30 29 C 0.415905 0.397931 8.550877 0
M  V30 30 C 0.163868 -0.168081 7.143720 0
M  V30 31 C 2.677882 1.392008 2.141762 0
M  V30 32 C 2.958540 1.206595 0.826780 0
M  V30 33 O 4.195224 1.612411 0.337720 0
M  V30 34 C 5.132197 2.205346 1.195428 0
M  V30 35 N 0.393057 -0.357432 -2.744581 0
M  V30 36 C -0.137446 -0.729299 -3.911555 0
M  V30 37 N -1.472097 -1.062132 -4.223191 0
M  V30 38 C -2.261648 -1.613762 -3.186663 0
M  V30 39 C -2.318183 -3.138673 -3.259532 0
M  V30 40 C -1.435250 -3.614654 -2.120546 0
M  V30 41 C -1.297412 -2.455642 -1.152469 0
M  V30 42 C -1.989265 -1.277790 -1.772199 0
M  V30 43 H -3.242140 -3.238914 -6.045870 0
M  V30 44 H -4.822662 -2.586811 -6.629295 0
M  V30 45 H -4.658351 -2.792361 -4.911245 0
M  V30 46 H -3.994566 -0.474289 -4.997015 0
M  V30 47 H -3.740942 -0.642502 -6.714210 0
M  V30 48 H -1.932386 0.241857 -5.695270 0
M  V30 49 H -1.880580 -3.780476 -10.292931 0
M  V30 50 H -1.927401 -2.292779 -10.928894 0
M  V30 51 H 1.999007 -1.409324 -7.569127 0
M  V30 52 H 2.757321 -0.513877 -5.741440 0
M  V30 53 H 3.366966 0.673067 -1.583056 0
M  V30 54 H 0.128840 -0.174606 -0.052880 0
M  V30 55 H -0.420578 0.125352 2.252122 0
M  V30 56 H -0.592929 0.258424 4.331536 0
M  V30 57 H 0.844051 1.741232 6.581453 0
M  V30 58 H -2.147512 1.002359 6.654646 0
M  V30 59 H -1.525172 2.625241 6.074552 0
M  V30 60 H -0.365822 2.945614 8.214268 0
M  V30 61 H -2.121887 2.566393 8.468591 0
M  V30 62 H 0.009510 2.415684 10.328738 0
M  V30 63 H -0.280007 0.799166 11.034577 0
M  V30 64 H -1.692447 1.837746 10.682800 0
M  V30 65 H 0.701060 -0.398114 9.246787 0
M  V30 66 H 1.174516 1.204594 8.438213 0
M  V30 67 H 1.068390 -0.714264 6.855972 0
M  V30 68 H -0.750196 -0.772161 7.218165 0
M  V30 69 H 3.435475 1.847309 2.757837 0
M  V30 70 H 5.350396 1.629363 2.106589 0
M  V30 71 H 6.113902 2.280754 0.653507 0
M  V30 72 H 4.778425 3.229749 1.462673 0
M  V30 73 H -3.354273 -1.326153 -3.355524 0
M  V30 74 H -3.310850 -3.564481 -3.202439 0
M  V30 75 H -1.799274 -3.438419 -4.185179 0
M  V30 76 H -1.931875 -4.493380 -1.668568 0
M  V30 77 H -0.431195 -3.957123 -2.462794 0
M  V30 78 H -1.770592 -2.802968 -0.188088 0
M  V30 79 H -0.233446 -2.301265 -0.891046 0
M  V30 80 H -2.978986 -1.203133 -1.174957 0
M  V30 81 H -1.555589 -0.288178 -1.588881 0
M  V30 END ATOM
M  V30 BEGIN BOND
M  V30 1 1 1 2
M  V30 2 1 2 3
M  V30 3 1 3 4
M  V30 4 2 4 5
M  V30 5 1 5 6
M  V30 6 1 6 7
M  V30 7 2 6 8
M  V30 8 1 5 9
M  V30 9 2 9 10
M  V30 10 1 10 11
M  V30 11 1 11 12
M  V30 12 2 12 13
M  V30 13 1 13 14
M  V30 14 2 14 15
M  V30 15 1 15 16
M  V30 16 1 16 17
M  V30 17 2 17 18
M  V30 18 1 18 19
M  V30 19 2 19 20
M  V30 20 1 20 21
M  V30 21 2 21 22
M  V30 22 1 21 23
M  V30 23 1 23 24
M  V30 24 1 24 25
M  V30 25 1 25 26
M  V30 26 1 26 27
M  V30 27 1 27 28
M  V30 28 1 27 29
M  V30 29 1 29 30
M  V30 30 1 20 31
M  V30 31 2 31 32
M  V30 32 1 32 33
M  V30 33 1 33 34
M  V30 34 1 15 35
M  V30 35 2 35 36
M  V30 36 1 36 37
M  V30 37 1 37 38
M  V30 38 1 38 39
M  V30 39 1 39 40
M  V30 40 1 40 41
M  V30 41 1 41 42
M  V30 42 1 37 3
M  V30 43 1 42 38
M  V30 44 1 11 4
M  V30 45 1 36 12
M  V30 46 1 32 17
M  V30 47 1 30 24
M  V30 48 1 1 43
M  V30 49 1 1 44
M  V30 50 1 1 45
M  V30 51 1 2 46
M  V30 52 1 2 47
M  V30 53 1 3 48 CFG=3
M  V30 54 1 7 49
M  V30 55 1 7 50
M  V30 56 1 10 51
M  V30 57 1 13 52
M  V30 58 1 16 53
M  V30 59 1 18 54
M  V30 60 1 19 55
M  V30 61 1 23 56
M  V30 62 1 24 57
M  V30 63 1 25 58
M  V30 64 1 25 59
M  V30 65 1 26 60
M  V30 66 1 26 61
M  V30 67 1 28 62
M  V30 68 1 28 63
M  V30 69 1 28 64
M  V30 70 1 29 65
M  V30 71 1 29 66
M  V30 72 1 30 67
M  V30 73 1 30 68
M  V30 74 1 31 69
M  V30 75 1 34 70
M  V30 76 1 34 71
M  V30 77 1 34 72
M  V30 78 1 38 73
M  V30 79 1 39 74
M  V30 80 1 39 75
M  V30 81 1 40 76
M  V30 82 1 40 77
M  V30 83 1 41 78
M  V30 84 1 41 79
M  V30 85 1 42 80
M  V30 86 1 42 81
M  V30 END BOND
M  V30 END CTAB
M  END
>  <Dataset>  (600) 
ChEMBL_Kinases

>  <Ligand_Instance>  (600) 
nan

>  <PDB_ID>  (600) 
nan

>  <Standardized_SMILES>  (600) 
CC[C@@H]1c2c(C(N)=O)ncn2-c2cnc(Nc3ccc(C(=O)NC4CCN(C)CC4)cc3OC)nc2N1C1CCCC1

>  <Name>  (600) 
nan

>  <Pocket>  (600) 
nan

>  <ATP_Site>  (600) 
nan

>  <Peripheral>  (600) 
nan

>  <Num_H_Atoms_ProtBoundConf>  (600) 
nan

>  <Num_Resolved_Atoms>  (600) 
nan

>  <Num_Not_Resolved_Atoms>  (600) 
nan

$$$$
CHEMBL4063358
     RDKit          3D

  0  0  0  0  0  0  0  0  0  0999 V3000
M  V30 BEGIN CTAB
M  V30 COUNTS 31 33 0 0 0
M  V30 BEGIN ATOM
M  V30 1 C -2.033871 -3.906417 -0.040722 0
M  V30 2 S -0.416073 -3.390641 -0.732052 0
M  V30 3 C 0.280224 -2.186741 0.290748 0
M  V30 4 S 1.284697 -2.829672 1.615711 0
M  V30 5 C 1.728010 -1.309199 2.320008 0
M  V30 6 C 2.581524 -1.129362 3.494094 0
M  V30 7 N 3.100152 -2.289337 4.123978 0
M  V30 8 O 2.965319 -0.069615 4.086452 0
M  V30 9 C 1.079310 -0.339866 1.500529 0
M  V30 10 C 0.350907 -0.841076 0.474861 0
M  V30 11 C -0.291599 0.161410 -0.345641 0
M  V30 12 C -0.166342 1.501971 -0.093481 0
M  V30 13 C -0.854339 2.274503 -1.002495 0
M  V30 14 N -1.401906 1.333324 -1.817341 0
M  V30 15 N -1.067677 0.121801 -1.425144 0
M  V30 16 C -1.570059 -0.979323 -2.200823 0
M  V30 17 C 0.614786 2.056423 1.021734 0
M  V30 18 C 1.283964 1.076244 1.876589 0
M  V30 19 H -2.614776 -4.464444 -0.797516 0
M  V30 20 H -2.605570 -3.018685 0.302420 0
M  V30 21 H -1.885551 -4.565511 0.850527 0
M  V30 22 H 3.921619 -2.928451 3.988425 0
M  V30 23 H 2.517603 -2.607353 4.949105 0
M  V30 24 H -0.980786 3.340537 -1.115126 0
M  V30 25 H -2.318492 -1.550295 -1.644482 0
M  V30 26 H -2.195438 -0.582042 -3.080083 0
M  V30 27 H -0.784008 -1.528390 -2.740823 0
M  V30 28 H 1.341574 2.801551 0.582198 0
M  V30 29 H -0.075290 2.723200 1.620074 0
M  V30 30 H 0.979946 1.265733 2.951964 0
M  V30 31 H 2.386779 1.335408 1.901776 0
M  V30 END ATOM
M  V30 BEGIN BOND
M  V30 1 1 1 2
M  V30 2 1 2 3
M  V30 3 1 3 4
M  V30 4 1 4 5
M  V30 5 1 5 6
M  V30 6 1 6 7
M  V30 7 2 6 8
M  V30 8 2 5 9
M  V30 9 1 9 10
M  V30 10 1 10 11
M  V30 11 2 11 12
M  V30 12 1 12 13
M  V30 13 2 13 14
M  V30 14 1 14 15
M  V30 15 1 15 16
M  V30 16 1 12 17
M  V30 17 1 17 18
M  V30 18 2 10 3
M  V30 19 1 15 11
M  V30 20 1 18 9
M  V30 21 1 1 19
M  V30 22 1 1 20
M  V30 23 1 1 21
M  V30 24 1 7 22
M  V30 25 1 7 23
M  V30 26 1 13 24
M  V30 27 1 16 25
M  V30 28 1 16 26
M  V30 29 1 16 27
M  V30 30 1 17 28
M  V30 31 1 17 29
M  V30 32 1 18 30
M  V30 33 1 18 31
M  V30 END BOND
M  V30 END CTAB
M  END
>  <Dataset>  (601) 
ChEMBL_Kinases

>  <Ligand_Instance>  (601) 
nan

>  <PDB_ID>  (601) 
nan

>  <Standardized_SMILES>  (601) 
CSc1sc(C(N)=O)c2c1-c1c(cnn1C)CC2

>  <Name>  (601) 
nan

>  <Pocket>  (601) 
nan

>  <ATP_Site>  (601) 
nan

>  <Peripheral>  (601) 
nan

>  <Num_H_Atoms_ProtBoundConf>  (601) 
nan

>  <Num_Resolved_Atoms>  (601) 
nan

>  <Num_Not_Resolved_Atoms>  (601) 
nan

$$$$
CHEMBL99115
     RDKit          3D

  0  0  0  0  0  0  0  0  0  0999 V3000
M  V30 BEGIN CTAB
M  V30 COUNTS 60 61 0 0 0
M  V30 BEGIN ATOM
M  V30 1 C 2.707246 -0.361313 3.333610 0
M  V30 2 C 2.815037 1.154698 3.287854 0
M  V30 3 C 2.060281 1.640747 2.049538 0
M  V30 4 C 2.120211 3.138744 1.929587 0
M  V30 5 C 1.384964 3.686315 0.728584 0
M  V30 6 C 1.984260 3.158311 -0.514733 0
M  V30 7 C 1.330249 3.609800 -1.798452 0
M  V30 8 C -0.120816 3.204576 -1.907285 0
M  V30 9 C -0.208492 1.691977 -1.838129 0
M  V30 10 C -1.584504 1.144121 -1.945182 0
M  V30 11 O -1.624697 -0.244635 -1.859319 0
M  V30 12 C -1.284092 -1.039138 -0.807371 0
M  V30 13 C -0.835728 -0.779784 0.463682 0
M  V30 14 C -0.538172 -1.724687 1.414201 0
M  V30 15 C -0.701809 -3.047940 1.075974 0
M  V30 16 C -1.154383 -3.449420 -0.183888 0
M  V30 17 C -1.414994 -2.412097 -1.051557 0
M  V30 18 C -1.716244 -3.144556 -2.302494 0
M  V30 19 O -2.033397 -2.689761 -3.431976 0
M  V30 20 O -1.626902 -4.521004 -2.172103 0
M  V30 21 C -1.431158 -4.734148 -0.755461 0 CFG=1
M  V30 22 C -0.185965 -5.653546 -0.650455 0
M  V30 23 O 0.889570 -4.993283 -1.233913 0
M  V30 24 C -2.620133 -5.453561 -0.260741 0
M  V30 25 O -2.703926 -5.634625 1.102619 0
M  V30 26 C -3.151094 -4.668344 1.976217 0
M  V30 27 C -3.106903 -5.128436 3.405137 0
M  V30 28 O -3.576201 -3.510277 1.805650 0
M  V30 29 H 3.599442 -0.829947 3.794113 0
M  V30 30 H 1.854101 -0.640697 3.967901 0
M  V30 31 H 2.569699 -0.790098 2.319113 0
M  V30 32 H 2.378141 1.569168 4.223430 0
M  V30 33 H 3.892519 1.391169 3.230220 0
M  V30 34 H 0.990273 1.307964 2.203939 0
M  V30 35 H 2.476570 1.112722 1.191663 0
M  V30 36 H 3.213644 3.388478 1.885632 0
M  V30 37 H 1.745476 3.574331 2.883997 0
M  V30 38 H 0.315771 3.443645 0.876653 0
M  V30 39 H 1.504152 4.795512 0.740433 0
M  V30 40 H 3.026623 3.601496 -0.573687 0
M  V30 41 H 2.143665 2.082533 -0.501863 0
M  V30 42 H 1.859177 3.092991 -2.624654 0
M  V30 43 H 1.479992 4.686771 -1.923832 0
M  V30 44 H -0.462726 3.529275 -2.910887 0
M  V30 45 H -0.784569 3.666170 -1.170807 0
M  V30 46 H 0.304517 1.365101 -0.951020 0
M  V30 47 H 0.368503 1.295396 -2.728793 0
M  V30 48 H -2.288308 1.556255 -1.188259 0
M  V30 49 H -2.027856 1.411178 -2.935546 0
M  V30 50 H -0.730042 0.252468 0.731561 0
M  V30 51 H -0.191635 -1.401029 2.379426 0
M  V30 52 H -0.440416 -3.751658 1.875056 0
M  V30 53 H 0.029817 -5.833557 0.426484 0
M  V30 54 H -0.413143 -6.575533 -1.194123 0
M  V30 55 H 1.514071 -4.662863 -0.546439 0
M  V30 56 H -3.585509 -4.938428 -0.592551 0
M  V30 57 H -2.732481 -6.470416 -0.738018 0
M  V30 58 H -3.147574 -4.280439 4.106984 0
M  V30 59 H -2.189244 -5.747272 3.595628 0
M  V30 60 H -3.988182 -5.784385 3.553521 0
M  V30 END ATOM
M  V30 BEGIN BOND
M  V30 1 1 1 2
M  V30 2 1 2 3
M  V30 3 1 3 4
M  V30 4 1 4 5
M  V30 5 1 5 6
M  V30 6 1 6 7
M  V30 7 1 7 8
M  V30 8 1 8 9
M  V30 9 1 9 10
M  V30 10 1 10 11
M  V30 11 1 11 12
M  V30 12 2 12 13
M  V30 13 1 13 14
M  V30 14 2 14 15
M  V30 15 1 15 16
M  V30 16 2 16 17
M  V30 17 1 17 18
M  V30 18 2 18 19
M  V30 19 1 18 20
M  V30 20 1 20 21
M  V30 21 1 21 22 CFG=3
M  V30 22 1 22 23
M  V30 23 1 21 24
M  V30 24 1 24 25
M  V30 25 1 25 26
M  V30 26 1 26 27
M  V30 27 2 26 28
M  V30 28 1 17 12
M  V30 29 1 21 16
M  V30 30 1 1 29
M  V30 31 1 1 30
M  V30 32 1 1 31
M  V30 33 1 2 32
M  V30 34 1 2 33
M  V30 35 1 3 34
M  V30 36 1 3 35
M  V30 37 1 4 36
M  V30 38 1 4 37
M  V30 39 1 5 38
M  V30 40 1 5 39
M  V30 41 1 6 40
M  V30 42 1 6 41
M  V30 43 1 7 42
M  V30 44 1 7 43
M  V30 45 1 8 44
M  V30 46 1 8 45
M  V30 47 1 9 46
M  V30 48 1 9 47
M  V30 49 1 10 48
M  V30 50 1 10 49
M  V30 51 1 13 50
M  V30 52 1 14 51
M  V30 53 1 15 52
M  V30 54 1 22 53
M  V30 55 1 22 54
M  V30 56 1 23 55
M  V30 57 1 24 56
M  V30 58 1 24 57
M  V30 59 1 27 58
M  V30 60 1 27 59
M  V30 61 1 27 60
M  V30 END BOND
M  V30 END CTAB
M  END
>  <Dataset>  (602) 
ChEMBL_Kinases

>  <Ligand_Instance>  (602) 
nan

>  <PDB_ID>  (602) 
nan

>  <Standardized_SMILES>  (602) 
CCCCCCCCCCOc1cccc2c1C(=O)O[C@]2(CO)COC(C)=O

>  <Name>  (602) 
nan

>  <Pocket>  (602) 
nan

>  <ATP_Site>  (602) 
nan

>  <Peripheral>  (602) 
nan

>  <Num_H_Atoms_ProtBoundConf>  (602) 
nan

>  <Num_Resolved_Atoms>  (602) 
nan

>  <Num_Not_Resolved_Atoms>  (602) 
nan

$$$$
CHEMBL4862119
     RDKit          3D

  0  0  0  0  0  0  0  0  0  0999 V3000
M  V30 BEGIN CTAB
M  V30 COUNTS 33 36 0 0 0
M  V30 BEGIN ATOM
M  V30 1 O 1.762300 -5.056458 3.529480 0
M  V30 2 C 1.727432 -3.808527 3.448010 0
M  V30 3 O 2.377923 -3.052718 4.414122 0
M  V30 4 C 1.014461 -3.153624 2.354925 0
M  V30 5 C 0.376221 -3.932646 1.407851 0
M  V30 6 C -0.296804 -3.277281 0.375137 0
M  V30 7 C -0.334834 -1.905866 0.286040 0
M  V30 8 C 0.307818 -1.146799 1.240246 0
M  V30 9 C 0.991067 -1.776163 2.287822 0
M  V30 10 C 0.341157 0.220331 1.259152 0
M  V30 11 C -0.333989 0.841867 0.224007 0
M  V30 12 C -0.351746 2.331858 0.162840 0
M  V30 13 C 0.728145 3.006991 -0.585302 0
M  V30 14 C 0.665499 3.124513 0.896529 0
M  V30 15 C -0.981867 0.099121 -0.738478 0
M  V30 16 C -1.632973 0.807291 -1.739281 0
M  V30 17 C -2.270329 0.031227 -2.685096 0
M  V30 18 N -2.267557 -1.303792 -2.650143 0
M  V30 19 C -1.644041 -2.018335 -1.690911 0
M  V30 20 C -0.999985 -1.268920 -0.734353 0
M  V30 21 H 2.496758 -3.403404 5.374134 0
M  V30 22 H 0.416554 -5.023419 1.493978 0
M  V30 23 H -0.763902 -3.954469 -0.315515 0
M  V30 24 H 1.514189 -1.236280 3.066349 0
M  V30 25 H 0.847731 0.768173 2.012466 0
M  V30 26 H -1.385967 2.773026 0.172377 0
M  V30 27 H 1.535052 2.359703 -0.967039 0
M  V30 28 H 0.455005 3.873804 -1.209440 0
M  V30 29 H 0.377637 4.135387 1.281821 0
M  V30 30 H 1.442661 2.660353 1.535240 0
M  V30 31 H -1.671762 1.885682 -1.822771 0
M  V30 32 H -2.802904 0.507074 -3.501316 0
M  V30 33 H -1.697972 -3.089772 -1.747774 0
M  V30 END ATOM
M  V30 BEGIN BOND
M  V30 1 2 1 2
M  V30 2 1 2 3
M  V30 3 1 2 4
M  V30 4 2 4 5
M  V30 5 1 5 6
M  V30 6 2 6 7
M  V30 7 1 7 8
M  V30 8 2 8 9
M  V30 9 1 8 10
M  V30 10 2 10 11
M  V30 11 1 11 12
M  V30 12 1 12 13
M  V30 13 1 13 14
M  V30 14 1 11 15
M  V30 15 2 15 16
M  V30 16 1 16 17
M  V30 17 2 17 18
M  V30 18 1 18 19
M  V30 19 2 19 20
M  V30 20 1 9 4
M  V30 21 1 14 12
M  V30 22 1 20 15
M  V30 23 1 20 7
M  V30 24 1 3 21
M  V30 25 1 5 22
M  V30 26 1 6 23
M  V30 27 1 9 24
M  V30 28 1 10 25
M  V30 29 1 12 26
M  V30 30 1 13 27
M  V30 31 1 13 28
M  V30 32 1 14 29
M  V30 33 1 14 30
M  V30 34 1 16 31
M  V30 35 1 17 32
M  V30 36 1 19 33
M  V30 END BOND
M  V30 END CTAB
M  END
>  <Dataset>  (603) 
ChEMBL_Kinases

>  <Ligand_Instance>  (603) 
nan

>  <PDB_ID>  (603) 
nan

>  <Standardized_SMILES>  (603) 
O=C(O)c1ccc2c(c1)cc(C1CC1)c1ccncc12

>  <Name>  (603) 
nan

>  <Pocket>  (603) 
nan

>  <ATP_Site>  (603) 
nan

>  <Peripheral>  (603) 
nan

>  <Num_H_Atoms_ProtBoundConf>  (603) 
nan

>  <Num_Resolved_Atoms>  (603) 
nan

>  <Num_Not_Resolved_Atoms>  (603) 
nan

$$$$
CHEMBL4862159
     RDKit          3D

  0  0  0  0  0  0  0  0  0  0999 V3000
M  V30 BEGIN CTAB
M  V30 COUNTS 39 42 0 0 0
M  V30 BEGIN ATOM
M  V30 1 C 0.837551 -7.268212 1.643455 0
M  V30 2 N 0.060657 -6.607334 0.601636 0
M  V30 3 C 0.483095 -5.244148 0.538476 0
M  V30 4 O 1.387412 -4.841716 1.321957 0
M  V30 5 C -0.114619 -4.310272 -0.415730 0
M  V30 6 C 0.138559 -3.001717 -0.623919 0
M  V30 7 C -0.603496 -2.382829 -1.606283 0
M  V30 8 N -0.394091 -0.976036 -1.886305 0
M  V30 9 N -0.026794 -0.333438 -2.987080 0
M  V30 10 C 0.039741 0.988904 -2.738662 0
M  V30 11 C -0.303027 1.178943 -1.420849 0
M  V30 12 N -0.390934 2.315839 -0.665770 0
M  V30 13 C -0.757279 2.224820 0.645984 0
M  V30 14 N -0.821115 3.419893 1.455264 0
M  V30 15 C 0.274878 3.643676 2.380149 0
M  V30 16 C 1.275170 2.669025 2.467886 0
M  V30 17 C 2.305348 2.888083 3.375226 0
M  V30 18 C 2.334228 4.033234 4.161366 0
M  V30 19 C 1.352407 5.006620 4.085702 0
M  V30 20 C 0.324825 4.767509 3.167026 0
M  V30 21 Cl -0.923920 5.981602 3.041371 0
M  V30 22 N -1.037744 1.010820 1.211078 0
M  V30 23 C -0.945884 -0.115883 0.446717 0
M  V30 24 C -0.582364 -0.086961 -0.871639 0
M  V30 25 C -1.529536 -3.084019 -2.305571 0
M  V30 26 S -1.403232 -4.785606 -1.568549 0
M  V30 27 H 1.930192 -7.184214 1.452408 0
M  V30 28 H 0.560328 -8.337684 1.725706 0
M  V30 29 H 0.611811 -6.779818 2.612596 0
M  V30 30 H -0.690198 -6.875209 -0.074223 0
M  V30 31 H 0.903254 -2.524657 -0.013153 0
M  V30 32 H 0.316943 1.718753 -3.482011 0
M  V30 33 H -1.574666 4.164467 1.455366 0
M  V30 34 H 1.234147 1.799800 1.853781 0
M  V30 35 H 3.060757 2.113722 3.418290 0
M  V30 36 H 3.160332 4.158405 4.856413 0
M  V30 37 H 1.419020 5.878184 4.717955 0
M  V30 38 H -1.153109 -1.097041 0.847818 0
M  V30 39 H -2.171683 -2.766312 -3.077768 0
M  V30 END ATOM
M  V30 BEGIN BOND
M  V30 1 1 1 2
M  V30 2 1 2 3
M  V30 3 2 3 4
M  V30 4 1 3 5
M  V30 5 2 5 6
M  V30 6 1 6 7
M  V30 7 1 7 8
M  V30 8 1 8 9
M  V30 9 2 9 10
M  V30 10 1 10 11
M  V30 11 2 11 12
M  V30 12 1 12 13
M  V30 13 1 13 14
M  V30 14 1 14 15
M  V30 15 2 15 16
M  V30 16 1 16 17
M  V30 17 2 17 18
M  V30 18 1 18 19
M  V30 19 2 19 20
M  V30 20 1 20 21
M  V30 21 2 13 22
M  V30 22 1 22 23
M  V30 23 2 23 24
M  V30 24 2 7 25
M  V30 25 1 25 26
M  V30 26 1 26 5
M  V30 27 1 24 8
M  V30 28 1 24 11
M  V30 29 1 20 15
M  V30 30 1 1 27
M  V30 31 1 1 28
M  V30 32 1 1 29
M  V30 33 1 2 30
M  V30 34 1 6 31
M  V30 35 1 10 32
M  V30 36 1 14 33
M  V30 37 1 16 34
M  V30 38 1 17 35
M  V30 39 1 18 36
M  V30 40 1 19 37
M  V30 41 1 23 38
M  V30 42 1 25 39
M  V30 END BOND
M  V30 END CTAB
M  END
>  <Dataset>  (604) 
ChEMBL_Kinases

>  <Ligand_Instance>  (604) 
nan

>  <PDB_ID>  (604) 
nan

>  <Standardized_SMILES>  (604) 
CNC(=O)c1cc(-n2ncc3nc(Nc4ccccc4Cl)ncc32)cs1

>  <Name>  (604) 
nan

>  <Pocket>  (604) 
nan

>  <ATP_Site>  (604) 
nan

>  <Peripheral>  (604) 
nan

>  <Num_H_Atoms_ProtBoundConf>  (604) 
nan

>  <Num_Resolved_Atoms>  (604) 
nan

>  <Num_Not_Resolved_Atoms>  (604) 
nan

$$$$
CHEMBL4063243
     RDKit          3D

  0  0  0  0  0  0  0  0  0  0999 V3000
M  V30 BEGIN CTAB
M  V30 COUNTS 48 51 0 0 0
M  V30 BEGIN ATOM
M  V30 1 C 0.979092 -3.672674 2.805206 0
M  V30 2 C 1.973852 -2.961109 1.937545 0
M  V30 3 C 2.462799 -3.828026 0.795268 0
M  V30 4 C 1.425168 -1.667679 1.370666 0
M  V30 5 C 2.507973 -1.055132 0.526589 0
M  V30 6 C 3.772415 -0.742953 1.280607 0
M  V30 7 C 4.487961 0.147394 0.283859 0
M  V30 8 C 3.368711 0.833645 -0.506655 0
M  V30 9 N 2.148982 0.278842 0.054866 0
M  V30 10 C 0.891118 0.939985 0.109311 0
M  V30 11 C 0.827219 2.213617 -0.416586 0
M  V30 12 C -0.377409 2.915290 -0.393600 0
M  V30 13 C -1.472258 2.260243 0.178436 0
M  V30 14 F -2.666052 2.922161 0.215371 0
M  V30 15 C -1.393231 0.980960 0.702695 0
M  V30 16 N -2.554795 0.385504 1.267203 0
M  V30 17 C -2.874834 -0.075042 2.495996 0
M  V30 18 O -2.039794 -0.018112 3.433382 0
M  V30 19 N -4.134266 -0.543076 2.465547 0
M  V30 20 C -4.648564 -0.393695 1.220624 0
M  V30 21 N -5.866965 -0.725781 0.754382 0
M  V30 22 C -6.168791 -0.483150 -0.537103 0
M  V30 23 C -5.215793 0.104932 -1.360752 0
M  V30 24 C -3.973465 0.433238 -0.848059 0
M  V30 25 C -3.633591 0.194074 0.482906 0
M  V30 26 N -0.181912 0.359132 0.643864 0
M  V30 27 H 0.590746 -4.540670 2.241288 0
M  V30 28 H 1.489547 -4.093609 3.696222 0
M  V30 29 H 0.229220 -2.961362 3.151605 0
M  V30 30 H 2.859295 -2.692840 2.557502 0
M  V30 31 H 2.290085 -4.882507 1.092499 0
M  V30 32 H 1.847920 -3.653691 -0.117564 0
M  V30 33 H 3.545705 -3.711197 0.603672 0
M  V30 34 H 0.620003 -1.973055 0.661124 0
M  V30 35 H 1.055399 -1.000015 2.156151 0
M  V30 36 H 2.765399 -1.701068 -0.335315 0
M  V30 37 H 4.358858 -1.650099 1.526040 0
M  V30 38 H 3.504919 -0.174245 2.195141 0
M  V30 39 H 5.088973 -0.518313 -0.368882 0
M  V30 40 H 5.127971 0.900236 0.798525 0
M  V30 41 H 3.441169 1.921478 -0.451275 0
M  V30 42 H 3.476730 0.512955 -1.567348 0
M  V30 43 H 1.635080 2.771508 -0.870462 0
M  V30 44 H -0.492273 3.904497 -0.784610 0
M  V30 45 H -4.607634 -0.952112 3.297961 0
M  V30 46 H -7.108938 -0.695873 -1.054505 0
M  V30 47 H -5.397662 0.327260 -2.414393 0
M  V30 48 H -3.220057 0.892921 -1.480217 0
M  V30 END ATOM
M  V30 BEGIN BOND
M  V30 1 1 1 2
M  V30 2 1 2 3
M  V30 3 1 2 4
M  V30 4 1 4 5
M  V30 5 1 5 6
M  V30 6 1 6 7
M  V30 7 1 7 8
M  V30 8 1 8 9
M  V30 9 1 9 10
M  V30 10 2 10 11
M  V30 11 1 11 12
M  V30 12 2 12 13
M  V30 13 1 13 14
M  V30 14 1 13 15
M  V30 15 1 15 16
M  V30 16 1 16 17
M  V30 17 2 17 18
M  V30 18 1 17 19
M  V30 19 1 19 20
M  V30 20 2 20 21
M  V30 21 1 21 22
M  V30 22 2 22 23
M  V30 23 1 23 24
M  V30 24 2 24 25
M  V30 25 2 15 26
M  V30 26 1 9 5
M  V30 27 1 26 10
M  V30 28 1 25 16
M  V30 29 1 25 20
M  V30 30 1 1 27
M  V30 31 1 1 28
M  V30 32 1 1 29
M  V30 33 1 2 30
M  V30 34 1 3 31
M  V30 35 1 3 32
M  V30 36 1 3 33
M  V30 37 1 4 34
M  V30 38 1 4 35
M  V30 39 1 5 36
M  V30 40 1 6 37
M  V30 41 1 6 38
M  V30 42 1 7 39
M  V30 43 1 7 40
M  V30 44 1 8 41
M  V30 45 1 8 42
M  V30 46 1 11 43
M  V30 47 1 12 44
M  V30 48 1 19 45
M  V30 49 1 22 46
M  V30 50 1 23 47
M  V30 51 1 24 48
M  V30 END BOND
M  V30 END CTAB
M  END
>  <Dataset>  (605) 
ChEMBL_Kinases

>  <Ligand_Instance>  (605) 
nan

>  <PDB_ID>  (605) 
nan

>  <Standardized_SMILES>  (605) 
CC(C)CC1CCCN1c1ccc(F)c(-n2c(=O)[nH]c3ncccc32)n1

>  <Name>  (605) 
nan

>  <Pocket>  (605) 
nan

>  <ATP_Site>  (605) 
nan

>  <Peripheral>  (605) 
nan

>  <Num_H_Atoms_ProtBoundConf>  (605) 
nan

>  <Num_Resolved_Atoms>  (605) 
nan

>  <Num_Not_Resolved_Atoms>  (605) 
nan

$$$$
CHEMBL4063216
     RDKit          3D

  0  0  0  0  0  0  0  0  0  0999 V3000
M  V30 BEGIN CTAB
M  V30 COUNTS 37 39 0 0 0
M  V30 BEGIN ATOM
M  V30 1 C -2.453876 -2.136114 2.879965 0
M  V30 2 C -1.472923 -3.186206 2.597996 0
M  V30 3 N -1.457817 -4.473755 2.956382 0
M  V30 4 N -0.359760 -5.056518 2.471657 0
M  V30 5 C 0.393864 -4.160132 1.769124 0
M  V30 6 C 1.683328 -4.433784 1.082718 0
M  V30 7 C -0.327988 -2.969974 1.857522 0
M  V30 8 C 0.193114 -1.770992 1.206497 0
M  V30 9 C -0.209071 -1.574817 -0.100654 0
M  V30 10 C 0.215972 -0.477405 -0.824418 0
M  V30 11 C 1.058959 0.455317 -0.253027 0
M  V30 12 C 1.637333 1.681906 -0.807569 0
M  V30 13 C 0.939799 2.204695 -2.036462 0
M  V30 14 C -0.216716 2.987754 -1.478136 0
M  V30 15 C 0.240837 3.394163 -0.097720 0
M  V30 16 N 1.523983 2.771899 0.144186 0
M  V30 17 C 1.469119 0.259692 1.072880 0
M  V30 18 C 1.036250 -0.853928 1.803531 0
M  V30 19 H -2.564986 -1.389014 2.080648 0
M  V30 20 H -2.224495 -1.556187 3.802389 0
M  V30 21 H -3.430820 -2.651167 3.089002 0
M  V30 22 H -0.047628 -6.059928 2.572893 0
M  V30 23 H 2.366900 -3.574893 1.338351 0
M  V30 24 H 1.559311 -4.459436 -0.023556 0
M  V30 25 H 2.063866 -5.394370 1.461926 0
M  V30 26 H -0.863970 -2.246085 -0.630657 0
M  V30 27 H -0.037890 -0.243022 -1.827946 0
M  V30 28 H 2.722982 1.566482 -0.995749 0
M  V30 29 H 1.607932 2.911860 -2.567962 0
M  V30 30 H 0.616606 1.452491 -2.750732 0
M  V30 31 H -0.450891 3.871525 -2.103675 0
M  V30 32 H -1.157599 2.371508 -1.449912 0
M  V30 33 H 0.271359 4.483816 0.011707 0
M  V30 34 H -0.514545 2.988256 0.622965 0
M  V30 35 H 2.324898 3.436954 0.089503 0
M  V30 36 H 2.128708 0.906087 1.654528 0
M  V30 37 H 1.333502 -1.033101 2.824775 0
M  V30 END ATOM
M  V30 BEGIN BOND
M  V30 1 1 1 2
M  V30 2 2 2 3
M  V30 3 1 3 4
M  V30 4 1 4 5
M  V30 5 1 5 6
M  V30 6 2 5 7
M  V30 7 1 7 8
M  V30 8 2 8 9
M  V30 9 1 9 10
M  V30 10 2 10 11
M  V30 11 1 11 12
M  V30 12 1 12 13
M  V30 13 1 13 14
M  V30 14 1 14 15
M  V30 15 1 15 16
M  V30 16 1 11 17
M  V30 17 2 17 18
M  V30 18 1 7 2
M  V30 19 1 18 8
M  V30 20 1 16 12
M  V30 21 1 1 19
M  V30 22 1 1 20
M  V30 23 1 1 21
M  V30 24 1 4 22
M  V30 25 1 6 23
M  V30 26 1 6 24
M  V30 27 1 6 25
M  V30 28 1 9 26
M  V30 29 1 10 27
M  V30 30 1 12 28
M  V30 31 1 13 29
M  V30 32 1 13 30
M  V30 33 1 14 31
M  V30 34 1 14 32
M  V30 35 1 15 33
M  V30 36 1 15 34
M  V30 37 1 16 35
M  V30 38 1 17 36
M  V30 39 1 18 37
M  V30 END BOND
M  V30 END CTAB
M  END
>  <Dataset>  (606) 
ChEMBL_Kinases

>  <Ligand_Instance>  (606) 
nan

>  <PDB_ID>  (606) 
nan

>  <Standardized_SMILES>  (606) 
Cc1n[nH]c(C)c1-c1ccc(C2CCCN2)cc1

>  <Name>  (606) 
nan

>  <Pocket>  (606) 
nan

>  <ATP_Site>  (606) 
nan

>  <Peripheral>  (606) 
nan

>  <Num_H_Atoms_ProtBoundConf>  (606) 
nan

>  <Num_Resolved_Atoms>  (606) 
nan

>  <Num_Not_Resolved_Atoms>  (606) 
nan

$$$$
CHEMBL4862023
     RDKit          3D

  0  0  0  0  0  0  0  0  0  0999 V3000
M  V30 BEGIN CTAB
M  V30 COUNTS 44 46 0 0 0
M  V30 BEGIN ATOM
M  V30 1 C -0.831050 -1.805381 4.567992 0
M  V30 2 N -1.195118 -2.576331 3.386957 0
M  V30 3 C -1.654140 -2.203066 2.105925 0
M  V30 4 N -1.804480 -0.886931 1.874827 0
M  V30 5 C -2.239199 -0.466707 0.660222 0
M  V30 6 N -2.494266 0.844662 0.175541 0
M  V30 7 C -1.486323 1.766528 -0.288860 0
M  V30 8 C -1.725221 2.979571 -0.889995 0
M  V30 9 N -0.708742 3.773451 -1.271825 0
M  V30 10 C 0.579903 3.432535 -1.090623 0
M  V30 11 C 1.674870 4.273498 -1.488789 0
M  V30 12 N 2.570615 4.941417 -1.824169 0
M  V30 13 C 0.853150 2.222088 -0.490479 0
M  V30 14 N 2.175696 1.727777 -0.230910 0
M  V30 15 C 2.647620 0.530315 0.391228 0 CFG=2
M  V30 16 C 4.157388 0.407599 0.440120 0
M  V30 17 C 4.307210 -1.097518 0.542437 0
M  V30 18 N 3.399316 -1.560904 -0.484208 0
M  V30 19 C 2.207103 -0.750045 -0.220161 0
M  V30 20 C -0.172875 1.357957 -0.075206 0
M  V30 21 N -2.525694 -1.366292 -0.330660 0
M  V30 22 C -2.363867 -2.697918 -0.064220 0
M  V30 23 C -1.926392 -3.162421 1.151770 0
M  V30 24 C -1.753141 -4.631412 1.415624 0
M  V30 25 F -2.563114 -4.976121 2.481948 0
M  V30 26 F -2.164949 -5.302397 0.272485 0
M  V30 27 F -0.430297 -4.917410 1.671166 0
M  V30 28 H 0.219627 -2.096020 4.865846 0
M  V30 29 H -0.747513 -0.722833 4.312661 0
M  V30 30 H -1.525065 -1.946264 5.393668 0
M  V30 31 H -1.066489 -3.590677 3.609804 0
M  V30 32 H -3.474671 1.252769 0.116282 0
M  V30 33 H -2.754806 3.254111 -1.033498 0
M  V30 34 H 2.943114 2.379796 -0.566286 0
M  V30 35 H 2.335126 0.604938 1.475308 0
M  V30 36 H 4.604258 0.867701 1.345259 0
M  V30 37 H 4.639554 0.741677 -0.479933 0
M  V30 38 H 3.885891 -1.472792 1.517320 0
M  V30 39 H 5.343947 -1.427539 0.391486 0
M  V30 40 H 3.706194 -1.336071 -1.449142 0
M  V30 41 H 1.637277 -1.328134 0.561577 0
M  V30 42 H 1.663200 -0.663005 -1.155399 0
M  V30 43 H 0.027783 0.417962 0.389183 0
M  V30 44 H -2.573546 -3.462980 -0.804687 0
M  V30 END ATOM
M  V30 BEGIN BOND
M  V30 1 1 1 2
M  V30 2 1 2 3
M  V30 3 2 3 4
M  V30 4 1 4 5
M  V30 5 1 5 6
M  V30 6 1 6 7
M  V30 7 2 7 8
M  V30 8 1 8 9
M  V30 9 2 9 10
M  V30 10 1 10 11
M  V30 11 3 11 12
M  V30 12 1 10 13
M  V30 13 1 13 14
M  V30 14 1 14 15
M  V30 15 1 15 16
M  V30 16 1 16 17
M  V30 17 1 17 18
M  V30 18 1 18 19
M  V30 19 2 13 20
M  V30 20 2 5 21
M  V30 21 1 21 22
M  V30 22 2 22 23
M  V30 23 1 23 24
M  V30 24 1 24 25
M  V30 25 1 24 26
M  V30 26 1 24 27
M  V30 27 1 23 3
M  V30 28 1 20 7
M  V30 29 1 19 15
M  V30 30 1 1 28
M  V30 31 1 1 29
M  V30 32 1 1 30
M  V30 33 1 2 31
M  V30 34 1 6 32
M  V30 35 1 8 33
M  V30 36 1 14 34
M  V30 37 1 15 35 CFG=1
M  V30 38 1 16 36
M  V30 39 1 16 37
M  V30 40 1 17 38
M  V30 41 1 17 39
M  V30 42 1 18 40
M  V30 43 1 19 41
M  V30 44 1 19 42
M  V30 45 1 20 43
M  V30 46 1 22 44
M  V30 END BOND
M  V30 END CTAB
M  END
>  <Dataset>  (607) 
ChEMBL_Kinases

>  <Ligand_Instance>  (607) 
nan

>  <PDB_ID>  (607) 
nan

>  <Standardized_SMILES>  (607) 
CNc1nc(Nc2cnc(C#N)c(N[C@@H]3CCNC3)c2)ncc1C(F)(F)F

>  <Name>  (607) 
nan

>  <Pocket>  (607) 
nan

>  <ATP_Site>  (607) 
nan

>  <Peripheral>  (607) 
nan

>  <Num_H_Atoms_ProtBoundConf>  (607) 
nan

>  <Num_Resolved_Atoms>  (607) 
nan

>  <Num_Not_Resolved_Atoms>  (607) 
nan

$$$$
CHEMBL4061774
     RDKit          3D

  0  0  0  0  0  0  0  0  0  0999 V3000
M  V30 BEGIN CTAB
M  V30 COUNTS 37 39 0 0 0
M  V30 BEGIN ATOM
M  V30 1 O -0.997094 -1.858632 4.761071 0
M  V30 2 C -0.265844 -1.378686 3.862029 0
M  V30 3 N 0.972168 -0.733374 4.135992 0
M  V30 4 C 1.550236 -0.302352 2.908778 0
M  V30 5 C 2.726419 0.369865 2.551572 0
M  V30 6 C 3.035800 0.662990 1.230220 0
M  V30 7 C 2.183264 0.297014 0.209780 0
M  V30 8 C 2.542289 0.622074 -1.166296 0
M  V30 9 O 3.632045 1.276903 -1.314990 0
M  V30 10 N 1.784310 0.268439 -2.315270 0
M  V30 11 C 2.200425 0.625617 -3.652581 0
M  V30 12 C 2.309495 2.131175 -3.848864 0
M  V30 13 O 2.715909 2.352574 -5.161141 0
M  V30 14 C 1.025928 -0.362570 0.544583 0
M  V30 15 C 0.704460 -0.660634 1.850017 0
M  V30 16 C -0.443700 -1.340047 2.441556 0
M  V30 17 C -1.494763 -1.862166 1.833438 0
M  V30 18 C -2.634051 -2.553273 2.417732 0
M  V30 19 C -3.912640 -2.144018 2.005438 0
M  V30 20 C -4.861364 -2.942900 2.655054 0
M  V30 21 C -4.132061 -3.808435 3.437487 0
M  V30 22 N -2.829133 -3.565629 3.285488 0
M  V30 23 H 1.394608 -0.596473 5.092077 0
M  V30 24 H 3.424022 0.672872 3.345878 0
M  V30 25 H 3.974047 1.188789 1.039822 0
M  V30 26 H 0.907806 -0.266287 -2.134042 0
M  V30 27 H 3.189496 0.183629 -3.893906 0
M  V30 28 H 1.425200 0.265973 -4.357780 0
M  V30 29 H 1.286679 2.580493 -3.771820 0
M  V30 30 H 2.974218 2.603004 -3.121599 0
M  V30 31 H 3.153871 1.557859 -5.580504 0
M  V30 32 H 0.327499 -0.668129 -0.220456 0
M  V30 33 H -1.467433 -1.739473 0.734229 0
M  V30 34 H -4.223817 -1.355555 1.309992 0
M  V30 35 H -5.951612 -2.849787 2.524765 0
M  V30 36 H -4.591719 -4.560388 4.067864 0
M  V30 37 H -2.037317 -4.066888 3.737357 0
M  V30 END ATOM
M  V30 BEGIN BOND
M  V30 1 2 1 2
M  V30 2 1 2 3
M  V30 3 1 3 4
M  V30 4 2 4 5
M  V30 5 1 5 6
M  V30 6 2 6 7
M  V30 7 1 7 8
M  V30 8 2 8 9
M  V30 9 1 8 10
M  V30 10 1 10 11
M  V30 11 1 11 12
M  V30 12 1 12 13
M  V30 13 1 7 14
M  V30 14 2 14 15
M  V30 15 1 15 16
M  V30 16 2 16 17
M  V30 17 1 17 18
M  V30 18 2 18 19
M  V30 19 1 19 20
M  V30 20 2 20 21
M  V30 21 1 21 22
M  V30 22 1 16 2
M  V30 23 1 22 18
M  V30 24 1 15 4
M  V30 25 1 3 23
M  V30 26 1 5 24
M  V30 27 1 6 25
M  V30 28 1 10 26
M  V30 29 1 11 27
M  V30 30 1 11 28
M  V30 31 1 12 29
M  V30 32 1 12 30
M  V30 33 1 13 31
M  V30 34 1 14 32
M  V30 35 1 17 33
M  V30 36 1 19 34
M  V30 37 1 20 35
M  V30 38 1 21 36
M  V30 39 1 22 37
M  V30 END BOND
M  V30 END CTAB
M  END
>  <Dataset>  (608) 
ChEMBL_Kinases

>  <Ligand_Instance>  (608) 
nan

>  <PDB_ID>  (608) 
nan

>  <Standardized_SMILES>  (608) 
O=C1Nc2ccc(C(=O)NCCO)cc2/C1=C/c1ccc[nH]1

>  <Name>  (608) 
nan

>  <Pocket>  (608) 
nan

>  <ATP_Site>  (608) 
nan

>  <Peripheral>  (608) 
nan

>  <Num_H_Atoms_ProtBoundConf>  (608) 
nan

>  <Num_Resolved_Atoms>  (608) 
nan

>  <Num_Not_Resolved_Atoms>  (608) 
nan

$$$$
CHEMBL4061742
     RDKit          3D

  0  0  0  0  0  0  0  0  0  0999 V3000
M  V30 BEGIN CTAB
M  V30 COUNTS 54 57 0 0 0
M  V30 BEGIN ATOM
M  V30 1 C 2.170263 -1.715585 5.421863 0
M  V30 2 O 2.024228 -1.657320 4.029570 0
M  V30 3 C 2.635449 -2.537707 3.154416 0
M  V30 4 C 3.422163 -3.510657 3.701851 0
M  V30 5 C 4.065787 -4.426284 2.899567 0
M  V30 6 C 3.863451 -4.292462 1.545950 0
M  V30 7 C 3.069657 -3.308735 1.001891 0
M  V30 8 C 2.414224 -2.377450 1.813424 0
M  V30 9 N 1.591192 -1.364026 1.292882 0
M  V30 10 C 1.290716 -1.057912 -0.061258 0
M  V30 11 N 0.438028 -0.045409 -0.301793 0
M  V30 12 C 0.062667 0.363835 -1.521568 0
M  V30 13 N -0.850120 1.445329 -1.588893 0
M  V30 14 C -1.645347 2.151426 -0.676351 0
M  V30 15 C -1.158184 3.453338 -0.497069 0
M  V30 16 C -1.786400 4.349868 0.339897 0
M  V30 17 C -2.918062 3.945668 1.008930 0
M  V30 18 C -3.337781 2.654598 0.782131 0
M  V30 19 C -2.759916 1.681721 -0.050469 0
M  V30 20 S -3.524186 0.169948 -0.220870 0
M  V30 21 O -4.072575 0.024885 -1.660881 0
M  V30 22 O -4.803351 0.190459 0.610032 0
M  V30 23 C -2.631905 -1.272189 0.201285 0
M  V30 24 C -3.575841 -2.475839 0.197591 0
M  V30 25 C -2.130357 -1.063673 1.645729 0
M  V30 26 C 0.561456 -0.269043 -2.608080 0
M  V30 27 C 0.360366 -0.070862 -3.953569 0
M  V30 28 C 1.150075 -1.034923 -4.584586 0
M  V30 29 N 1.776908 -1.754493 -3.623133 0
M  V30 30 C 1.437969 -1.310846 -2.401133 0
M  V30 31 N 1.756899 -1.651261 -1.143156 0
M  V30 32 H 1.858328 -2.669349 5.883123 0
M  V30 33 H 1.480528 -0.941061 5.846938 0
M  V30 34 H 3.190816 -1.513647 5.791718 0
M  V30 35 H 3.551963 -3.580046 4.763696 0
M  V30 36 H 4.687258 -5.201089 3.313842 0
M  V30 37 H 4.361225 -5.004923 0.904318 0
M  V30 38 H 2.985443 -3.299182 -0.070358 0
M  V30 39 H 1.143668 -0.760213 2.030530 0
M  V30 40 H -0.989647 1.839180 -2.569448 0
M  V30 41 H -0.278439 3.862436 -0.978917 0
M  V30 42 H -1.435147 5.357839 0.500594 0
M  V30 43 H -3.441523 4.614577 1.675023 0
M  V30 44 H -4.245546 2.397246 1.346133 0
M  V30 45 H -1.801220 -1.441791 -0.474190 0
M  V30 46 H -3.146000 -3.255147 0.834756 0
M  V30 47 H -4.568076 -2.184716 0.597055 0
M  V30 48 H -3.671676 -2.870990 -0.830821 0
M  V30 49 H -1.346021 -1.825335 1.846865 0
M  V30 50 H -1.742133 -0.042682 1.778794 0
M  V30 51 H -3.017112 -1.174927 2.288337 0
M  V30 52 H -0.262273 0.660257 -4.418390 0
M  V30 53 H 1.232701 -1.165098 -5.650843 0
M  V30 54 H 2.446371 -2.559192 -3.754256 0
M  V30 END ATOM
M  V30 BEGIN BOND
M  V30 1 1 1 2
M  V30 2 1 2 3
M  V30 3 2 3 4
M  V30 4 1 4 5
M  V30 5 2 5 6
M  V30 6 1 6 7
M  V30 7 2 7 8
M  V30 8 1 8 9
M  V30 9 1 9 10
M  V30 10 2 10 11
M  V30 11 1 11 12
M  V30 12 1 12 13
M  V30 13 1 13 14
M  V30 14 2 14 15
M  V30 15 1 15 16
M  V30 16 2 16 17
M  V30 17 1 17 18
M  V30 18 2 18 19
M  V30 19 1 19 20
M  V30 20 2 20 21
M  V30 21 2 20 22
M  V30 22 1 20 23
M  V30 23 1 23 24
M  V30 24 1 23 25
M  V30 25 2 12 26
M  V30 26 1 26 27
M  V30 27 2 27 28
M  V30 28 1 28 29
M  V30 29 1 29 30
M  V30 30 2 30 31
M  V30 31 1 8 3
M  V30 32 1 31 10
M  V30 33 1 19 14
M  V30 34 1 30 26
M  V30 35 1 1 32
M  V30 36 1 1 33
M  V30 37 1 1 34
M  V30 38 1 4 35
M  V30 39 1 5 36
M  V30 40 1 6 37
M  V30 41 1 7 38
M  V30 42 1 9 39
M  V30 43 1 13 40
M  V30 44 1 15 41
M  V30 45 1 16 42
M  V30 46 1 17 43
M  V30 47 1 18 44
M  V30 48 1 23 45
M  V30 49 1 24 46
M  V30 50 1 24 47
M  V30 51 1 24 48
M  V30 52 1 25 49
M  V30 53 1 25 50
M  V30 54 1 25 51
M  V30 55 1 27 52
M  V30 56 1 28 53
M  V30 57 1 29 54
M  V30 END BOND
M  V30 END CTAB
M  END
>  <Dataset>  (609) 
ChEMBL_Kinases

>  <Ligand_Instance>  (609) 
nan

>  <PDB_ID>  (609) 
nan

>  <Standardized_SMILES>  (609) 
COc1ccccc1Nc1nc(Nc2ccccc2S(=O)(=O)C(C)C)c2cc[nH]c2n1

>  <Name>  (609) 
nan

>  <Pocket>  (609) 
nan

>  <ATP_Site>  (609) 
nan

>  <Peripheral>  (609) 
nan

>  <Num_H_Atoms_ProtBoundConf>  (609) 
nan

>  <Num_Resolved_Atoms>  (609) 
nan

>  <Num_Not_Resolved_Atoms>  (609) 
nan

$$$$
CHEMBL4061650
     RDKit          3D

  0  0  0  0  0  0  0  0  0  0999 V3000
M  V30 BEGIN CTAB
M  V30 COUNTS 59 61 0 0 0
M  V30 BEGIN ATOM
M  V30 1 C 4.424595 -1.891150 3.886309 0
M  V30 2 C 3.303013 -2.090862 2.931555 0
M  V30 3 C 3.575283 -2.093382 1.579418 0
M  V30 4 C 2.509214 -2.281516 0.691174 0
M  V30 5 C 1.216602 -2.459104 1.194731 0
M  V30 6 C 0.273353 -2.630376 0.065240 0
M  V30 7 C -0.427819 -1.622971 -0.618127 0
M  V30 8 C -0.266558 -0.250200 -0.194940 0
M  V30 9 C 0.103604 0.867499 -0.793886 0
M  V30 10 C 0.431904 0.732926 -2.182154 0
M  V30 11 N 0.698222 0.604431 -3.298201 0
M  V30 12 C 0.176128 2.139670 -0.098379 0
M  V30 13 O 0.540733 3.147741 -0.751141 0
M  V30 14 O -0.146830 2.222726 1.231733 0
M  V30 15 C -0.119185 3.370830 2.015368 0
M  V30 16 C 1.268505 3.982235 2.085004 0
M  V30 17 C -1.159351 4.393968 1.656284 0
M  V30 18 C -0.430782 2.907851 3.442699 0
M  V30 19 N -1.158749 -2.228582 -1.561172 0
M  V30 20 C -2.089503 -1.669995 -2.503926 0
M  V30 21 C -3.496931 -1.679606 -1.926043 0
M  V30 22 C -4.427197 -1.074628 -2.966002 0
M  V30 23 O -4.011606 0.232674 -3.221513 0
M  V30 24 C -0.951353 -3.578061 -1.509227 0
M  V30 25 N -1.445115 -4.623226 -2.237521 0
M  V30 26 C -1.022715 -5.859277 -1.915266 0
M  V30 27 N -0.143047 -6.157405 -0.923002 0
M  V30 28 C 0.367505 -5.133727 -0.178243 0
M  V30 29 N 1.285390 -5.426709 0.856990 0
M  V30 30 C -0.056427 -3.846197 -0.494721 0
M  V30 31 C 0.961088 -2.454330 2.549389 0
M  V30 32 C 2.024156 -2.267496 3.413272 0
M  V30 33 H 4.200255 -1.118607 4.666352 0
M  V30 34 H 4.720998 -2.802219 4.408609 0
M  V30 35 H 5.309794 -1.469876 3.330356 0
M  V30 36 H 4.596292 -1.950191 1.251939 0
M  V30 37 H 2.820266 -2.267661 -0.335840 0
M  V30 38 H -0.508501 -0.081951 0.872543 0
M  V30 39 H 1.888863 3.405870 2.833807 0
M  V30 40 H 1.833393 3.936201 1.154180 0
M  V30 41 H 1.183553 5.003800 2.516183 0
M  V30 42 H -2.086447 3.876307 1.340551 0
M  V30 43 H -0.809910 5.176533 0.953255 0
M  V30 44 H -1.418446 4.942258 2.587199 0
M  V30 45 H 0.033005 1.905559 3.647841 0
M  V30 46 H -1.526797 2.761516 3.560679 0
M  V30 47 H -0.047601 3.633546 4.177554 0
M  V30 48 H -1.860028 -0.656176 -2.861981 0
M  V30 49 H -2.099761 -2.294806 -3.442631 0
M  V30 50 H -3.538902 -1.008996 -1.046847 0
M  V30 51 H -3.842749 -2.673313 -1.647289 0
M  V30 52 H -4.352996 -1.622939 -3.929052 0
M  V30 53 H -5.464386 -1.070376 -2.630930 0
M  V30 54 H -3.516284 0.577020 -2.436569 0
M  V30 55 H -1.459690 -6.633365 -2.539229 0
M  V30 56 H 0.979934 -5.593855 1.841751 0
M  V30 57 H 2.149691 -5.394264 0.281248 0
M  V30 58 H -0.084372 -2.605316 2.772772 0
M  V30 59 H 1.763568 -2.273387 4.457394 0
M  V30 END ATOM
M  V30 BEGIN BOND
M  V30 1 1 1 2
M  V30 2 2 2 3
M  V30 3 1 3 4
M  V30 4 2 4 5
M  V30 5 1 5 6
M  V30 6 2 6 7
M  V30 7 1 7 8
M  V30 8 2 8 9
M  V30 9 1 9 10
M  V30 10 3 10 11
M  V30 11 1 9 12
M  V30 12 2 12 13
M  V30 13 1 12 14
M  V30 14 1 14 15
M  V30 15 1 15 16
M  V30 16 1 15 17
M  V30 17 1 15 18
M  V30 18 1 7 19
M  V30 19 1 19 20
M  V30 20 1 20 21
M  V30 21 1 21 22
M  V30 22 1 22 23
M  V30 23 1 19 24
M  V30 24 2 24 25
M  V30 25 1 25 26
M  V30 26 2 26 27
M  V30 27 1 27 28
M  V30 28 1 28 29
M  V30 29 2 28 30
M  V30 30 1 5 31
M  V30 31 2 31 32
M  V30 32 1 32 2
M  V30 33 1 30 6
M  V30 34 1 30 24
M  V30 35 1 1 33
M  V30 36 1 1 34
M  V30 37 1 1 35
M  V30 38 1 3 36
M  V30 39 1 4 37
M  V30 40 1 8 38
M  V30 41 1 16 39
M  V30 42 1 16 40
M  V30 43 1 16 41
M  V30 44 1 17 42
M  V30 45 1 17 43
M  V30 46 1 17 44
M  V30 47 1 18 45
M  V30 48 1 18 46
M  V30 49 1 18 47
M  V30 50 1 20 48
M  V30 51 1 20 49
M  V30 52 1 21 50
M  V30 53 1 21 51
M  V30 54 1 22 52
M  V30 55 1 22 53
M  V30 56 1 23 54
M  V30 57 1 26 55
M  V30 58 1 29 56
M  V30 59 1 29 57
M  V30 60 1 31 58
M  V30 61 1 32 59
M  V30 END BOND
M  V30 END CTAB
M  END
>  <Dataset>  (610) 
ChEMBL_Kinases

>  <Ligand_Instance>  (610) 
nan

>  <PDB_ID>  (610) 
nan

>  <Standardized_SMILES>  (610) 
Cc1ccc(-c2c(/C=C(\C#N)C(=O)OC(C)(C)C)n(CCCO)c3ncnc(N)c23)cc1

>  <Name>  (610) 
nan

>  <Pocket>  (610) 
nan

>  <ATP_Site>  (610) 
nan

>  <Peripheral>  (610) 
nan

>  <Num_H_Atoms_ProtBoundConf>  (610) 
nan

>  <Num_Resolved_Atoms>  (610) 
nan

>  <Num_Not_Resolved_Atoms>  (610) 
nan

$$$$
CHEMBL4061584
     RDKit          3D

  0  0  0  0  0  0  0  0  0  0999 V3000
M  V30 BEGIN CTAB
M  V30 COUNTS 57 61 0 0 0
M  V30 BEGIN ATOM
M  V30 1 C 6.353360 0.569682 3.328192 0
M  V30 2 N 4.995059 0.145899 3.021831 0
M  V30 3 C 4.703042 -0.519325 1.889960 0
M  V30 4 C 3.355184 -0.789678 1.855964 0
M  V30 5 C 2.507818 -1.473065 0.888338 0
M  V30 6 C 2.764730 -2.668046 0.254843 0
M  V30 7 C 1.871599 -3.214943 -0.642836 0
M  V30 8 C 0.688600 -2.565096 -0.925476 0
M  V30 9 C 0.411549 -1.347885 -0.289939 0
M  V30 10 C 1.331786 -0.804743 0.621779 0
M  V30 11 C 0.816489 0.463372 1.147552 0
M  V30 12 O 1.804241 1.228710 0.934541 0
M  V30 13 N -0.470840 0.639899 1.717088 0
M  V30 14 C -0.897655 1.947183 2.212341 0 CFG=2
M  V30 15 C -1.118552 1.890511 3.715019 0
M  V30 16 O -2.085393 0.977068 4.092704 0
M  V30 17 C -2.150853 2.273017 1.489473 0
M  V30 18 C -3.100017 1.263904 1.460126 0
M  V30 19 C -4.310099 1.409528 0.823441 0
M  V30 20 C -4.609041 2.603207 0.181896 0
M  V30 21 C -3.667834 3.631914 0.199313 0
M  V30 22 C -2.462537 3.445761 0.850881 0
M  V30 23 C -0.098814 -3.340832 -1.907966 0
M  V30 24 C -1.275939 -3.069678 -2.406518 0
M  V30 25 C -2.006974 -3.864197 -3.374061 0
M  V30 26 C -1.918863 -4.530911 -4.553778 0
M  V30 27 C -3.133850 -5.121957 -4.892639 0
M  V30 28 C -4.003134 -4.802792 -3.874488 0
M  V30 29 N -3.311191 -4.062754 -2.997588 0
M  V30 30 C 0.693010 -4.514956 -2.205421 0
M  V30 31 O 0.406318 -5.447055 -2.988674 0
M  V30 32 N 1.887076 -4.417516 -1.425130 0
M  V30 33 C 2.899484 -0.234089 3.044121 0
M  V30 34 N 3.895328 0.333345 3.750466 0
M  V30 35 H 6.755833 1.094979 2.457103 0
M  V30 36 H 6.913149 -0.355658 3.608043 0
M  V30 37 H 6.357352 1.242556 4.224602 0
M  V30 38 H 5.380305 -0.830865 1.082603 0
M  V30 39 H 3.692582 -3.136776 0.503303 0
M  V30 40 H -0.540242 -0.897813 -0.566152 0
M  V30 41 H -1.067407 -0.208691 1.753272 0
M  V30 42 H -0.131037 2.710990 2.045229 0
M  V30 43 H -0.178805 1.647650 4.220360 0
M  V30 44 H -1.523957 2.895956 4.007659 0
M  V30 45 H -2.927733 1.386243 4.403046 0
M  V30 46 H -3.031065 0.270107 1.910930 0
M  V30 47 H -5.093283 0.670651 0.760092 0
M  V30 48 H -5.567933 2.748869 -0.336338 0
M  V30 49 H -3.866947 4.577018 -0.292959 0
M  V30 50 H -1.682816 4.201590 0.904776 0
M  V30 51 H -1.690528 -2.123592 -2.011361 0
M  V30 52 H -0.967859 -4.502964 -5.053190 0
M  V30 53 H -3.150683 -5.674623 -5.822081 0
M  V30 54 H -5.001024 -5.187795 -3.985893 0
M  V30 55 H -3.934007 -3.779128 -2.178996 0
M  V30 56 H 2.666118 -5.105860 -1.411480 0
M  V30 57 H 1.888912 -0.190076 3.473168 0
M  V30 END ATOM
M  V30 BEGIN BOND
M  V30 1 1 1 2
M  V30 2 1 2 3
M  V30 3 2 3 4
M  V30 4 1 4 5
M  V30 5 2 5 6
M  V30 6 1 6 7
M  V30 7 2 7 8
M  V30 8 1 8 9
M  V30 9 2 9 10
M  V30 10 1 10 11
M  V30 11 2 11 12
M  V30 12 1 11 13
M  V30 13 1 13 14
M  V30 14 1 14 15
M  V30 15 1 15 16
M  V30 16 1 14 17
M  V30 17 2 17 18
M  V30 18 1 18 19
M  V30 19 2 19 20
M  V30 20 1 20 21
M  V30 21 2 21 22
M  V30 22 1 8 23
M  V30 23 2 23 24
M  V30 24 1 24 25
M  V30 25 2 25 26
M  V30 26 1 26 27
M  V30 27 2 27 28
M  V30 28 1 28 29
M  V30 29 1 23 30
M  V30 30 2 30 31
M  V30 31 1 30 32
M  V30 32 1 4 33
M  V30 33 2 33 34
M  V30 34 1 34 2
M  V30 35 1 10 5
M  V30 36 1 22 17
M  V30 37 1 29 25
M  V30 38 1 32 7
M  V30 39 1 1 35
M  V30 40 1 1 36
M  V30 41 1 1 37
M  V30 42 1 3 38
M  V30 43 1 6 39
M  V30 44 1 9 40
M  V30 45 1 13 41
M  V30 46 1 14 42 CFG=1
M  V30 47 1 15 43
M  V30 48 1 15 44
M  V30 49 1 16 45
M  V30 50 1 18 46
M  V30 51 1 19 47
M  V30 52 1 20 48
M  V30 53 1 21 49
M  V30 54 1 22 50
M  V30 55 1 24 51
M  V30 56 1 26 52
M  V30 57 1 27 53
M  V30 58 1 28 54
M  V30 59 1 29 55
M  V30 60 1 32 56
M  V30 61 1 33 57
M  V30 END BOND
M  V30 END CTAB
M  END
>  <Dataset>  (611) 
ChEMBL_Kinases

>  <Ligand_Instance>  (611) 
nan

>  <PDB_ID>  (611) 
nan

>  <Standardized_SMILES>  (611) 
Cn1cc(-c2cc3c(cc2C(=O)N[C@H](CO)c2ccccc2)/C(=C/c2ccc[nH]2)C(=O)N3)cn1

>  <Name>  (611) 
nan

>  <Pocket>  (611) 
nan

>  <ATP_Site>  (611) 
nan

>  <Peripheral>  (611) 
nan

>  <Num_H_Atoms_ProtBoundConf>  (611) 
nan

>  <Num_Resolved_Atoms>  (611) 
nan

>  <Num_Not_Resolved_Atoms>  (611) 
nan

$$$$
CHEMBL4061578
     RDKit          3D

  0  0  0  0  0  0  0  0  0  0999 V3000
M  V30 BEGIN CTAB
M  V30 COUNTS 51 54 0 0 0
M  V30 BEGIN ATOM
M  V30 1 C -1.711763 -2.783565 3.309003 0
M  V30 2 O -0.426943 -2.484231 3.841218 0
M  V30 3 C 0.661819 -2.355187 2.989208 0
M  V30 4 C 1.893250 -2.064750 3.529734 0
M  V30 5 C 2.987613 -1.933048 2.693158 0
M  V30 6 C 2.830435 -2.094352 1.332108 0
M  V30 7 C 1.602974 -2.390377 0.725487 0
M  V30 8 C 1.456639 -2.560164 -0.741127 0
M  V30 9 C 1.045235 -1.263410 -1.347756 0
M  V30 10 N -0.428583 -1.179117 -1.394404 0
M  V30 11 C -1.011716 -0.144168 -0.612377 0
M  V30 12 N -0.125519 0.713061 -0.073533 0
M  V30 13 C -0.491149 1.761310 0.705807 0
M  V30 14 C 0.546183 2.634935 1.241247 0
M  V30 15 C 0.299119 3.727770 2.041707 0
M  V30 16 C 1.313999 4.532631 2.529761 0
M  V30 17 N 2.584824 4.249201 2.219635 0
M  V30 18 C 2.902806 3.194606 1.440427 0
M  V30 19 C 1.874526 2.398877 0.960178 0
M  V30 20 C -1.827657 1.953081 0.953834 0
M  V30 21 C -2.750410 1.086811 0.412102 0
M  V30 22 O -3.979636 1.224071 0.613297 0
M  V30 23 N -2.312785 0.066855 -0.352412 0
M  V30 24 C -3.272194 -0.863118 -0.910699 0
M  V30 25 C -0.890633 -2.200592 -2.263605 0
M  V30 26 C -0.648193 -3.515617 -1.523257 0
M  V30 27 N 0.701127 -3.684223 -1.143721 0
M  V30 28 C 0.565429 -2.505073 1.624447 0
M  V30 29 H -2.473007 -2.832249 4.108771 0
M  V30 30 H -2.031220 -1.976212 2.619237 0
M  V30 31 H -1.704159 -3.725486 2.722357 0
M  V30 32 H 2.003814 -1.941836 4.598055 0
M  V30 33 H 3.967610 -1.707933 3.065277 0
M  V30 34 H 3.705517 -1.986398 0.689380 0
M  V30 35 H 2.517084 -2.743307 -1.103379 0
M  V30 36 H 1.464860 -0.413248 -0.773395 0
M  V30 37 H 1.387517 -1.137750 -2.392760 0
M  V30 38 H -0.729248 3.944960 2.284328 0
M  V30 39 H 1.092989 5.378504 3.151973 0
M  V30 40 H 3.953016 2.971180 1.192084 0
M  V30 41 H 2.198473 1.574879 0.346140 0
M  V30 42 H -2.184013 2.751920 1.553734 0
M  V30 43 H -4.236446 -0.708956 -0.321538 0
M  V30 44 H -3.563144 -0.689007 -1.937513 0
M  V30 45 H -3.012233 -1.915539 -0.664652 0
M  V30 46 H -0.211142 -2.239002 -3.165467 0
M  V30 47 H -1.883013 -2.125280 -2.683399 0
M  V30 48 H -0.874892 -4.309415 -2.292040 0
M  V30 49 H -1.353030 -3.673360 -0.708819 0
M  V30 50 H 1.239247 -4.417086 -1.633365 0
M  V30 51 H -0.415672 -2.728305 1.270185 0
M  V30 END ATOM
M  V30 BEGIN BOND
M  V30 1 1 1 2
M  V30 2 1 2 3
M  V30 3 2 3 4
M  V30 4 1 4 5
M  V30 5 2 5 6
M  V30 6 1 6 7
M  V30 7 1 7 8
M  V30 8 1 8 9
M  V30 9 1 9 10
M  V30 10 1 10 11
M  V30 11 2 11 12
M  V30 12 1 12 13
M  V30 13 1 13 14
M  V30 14 2 14 15
M  V30 15 1 15 16
M  V30 16 2 16 17
M  V30 17 1 17 18
M  V30 18 2 18 19
M  V30 19 2 13 20
M  V30 20 1 20 21
M  V30 21 2 21 22
M  V30 22 1 21 23
M  V30 23 1 23 24
M  V30 24 1 10 25
M  V30 25 1 25 26
M  V30 26 1 26 27
M  V30 27 2 7 28
M  V30 28 1 28 3
M  V30 29 1 27 8
M  V30 30 1 23 11
M  V30 31 1 19 14
M  V30 32 1 1 29
M  V30 33 1 1 30
M  V30 34 1 1 31
M  V30 35 1 4 32
M  V30 36 1 5 33
M  V30 37 1 6 34
M  V30 38 1 8 35
M  V30 39 1 9 36
M  V30 40 1 9 37
M  V30 41 1 15 38
M  V30 42 1 16 39
M  V30 43 1 18 40
M  V30 44 1 19 41
M  V30 45 1 20 42
M  V30 46 1 24 43
M  V30 47 1 24 44
M  V30 48 1 24 45
M  V30 49 1 25 46
M  V30 50 1 25 47
M  V30 51 1 26 48
M  V30 52 1 26 49
M  V30 53 1 27 50
M  V30 54 1 28 51
M  V30 END BOND
M  V30 END CTAB
M  END
>  <Dataset>  (612) 
ChEMBL_Kinases

>  <Ligand_Instance>  (612) 
nan

>  <PDB_ID>  (612) 
nan

>  <Standardized_SMILES>  (612) 
COc1cccc(C2CN(c3nc(-c4ccncc4)cc(=O)n3C)CCN2)c1

>  <Name>  (612) 
nan

>  <Pocket>  (612) 
nan

>  <ATP_Site>  (612) 
nan

>  <Peripheral>  (612) 
nan

>  <Num_H_Atoms_ProtBoundConf>  (612) 
nan

>  <Num_Resolved_Atoms>  (612) 
nan

>  <Num_Not_Resolved_Atoms>  (612) 
nan

$$$$
CHEMBL4862873
     RDKit          3D

  0  0  0  0  0  0  0  0  0  0999 V3000
M  V30 BEGIN CTAB
M  V30 COUNTS 35 38 0 0 0
M  V30 BEGIN ATOM
M  V30 1 C 1.351448 -3.915743 3.316534 0
M  V30 2 N 0.624030 -3.528619 2.098042 0
M  V30 3 C 0.531148 -4.706756 1.186980 0
M  V30 4 C -0.036889 -2.374444 1.512931 0
M  V30 5 N -1.393153 -2.217718 1.702607 0
M  V30 6 C -2.010251 -1.188833 1.113386 0
M  V30 7 C -1.256366 -0.313280 0.331473 0
M  V30 8 C 0.140806 -0.480152 0.147440 0
M  V30 9 C 0.716308 0.626537 -0.585674 0
M  V30 10 C 0.975755 0.171551 -1.910633 0
M  V30 11 N 1.637075 1.097419 -2.572633 0
M  V30 12 N 1.845272 2.167561 -1.779168 0
M  V30 13 N 2.371477 3.410264 -1.750369 0
M  V30 14 C 2.334893 4.206279 -0.685949 0
M  V30 15 C 1.729029 3.876393 0.554232 0
M  V30 16 C 1.170143 2.610792 0.585695 0
M  V30 17 C 1.279990 1.864750 -0.594152 0
M  V30 18 N 0.679054 -1.553844 0.782844 0
M  V30 19 C -2.206270 0.704832 -0.155798 0
M  V30 20 O -3.305139 0.628308 0.659460 0
M  V30 21 C -3.380847 -0.667621 1.144553 0
M  V30 22 H 1.768967 -4.899769 3.216763 0
M  V30 23 H 0.566940 -3.878808 4.147063 0
M  V30 24 H 2.140457 -3.154337 3.591362 0
M  V30 25 H -0.129924 -5.497872 1.660460 0
M  V30 26 H 0.202187 -4.444588 0.179853 0
M  V30 27 H 1.550755 -5.204751 1.130419 0
M  V30 28 H 0.850870 -0.627645 -2.630644 0
M  V30 29 H 2.790718 5.183718 -0.764491 0
M  V30 30 H 1.726872 4.578479 1.361594 0
M  V30 31 H 0.664746 2.283871 1.505625 0
M  V30 32 H -1.725891 1.716903 -0.225013 0
M  V30 33 H -2.529890 0.434790 -1.204508 0
M  V30 34 H -4.165008 -1.293912 0.692007 0
M  V30 35 H -3.615149 -0.485207 2.266999 0
M  V30 END ATOM
M  V30 BEGIN BOND
M  V30 1 1 1 2
M  V30 2 1 2 3
M  V30 3 1 2 4
M  V30 4 2 4 5
M  V30 5 1 5 6
M  V30 6 2 6 7
M  V30 7 1 7 8
M  V30 8 1 8 9
M  V30 9 1 9 10
M  V30 10 2 10 11
M  V30 11 1 11 12
M  V30 12 1 12 13
M  V30 13 2 13 14
M  V30 14 1 14 15
M  V30 15 2 15 16
M  V30 16 1 16 17
M  V30 17 2 8 18
M  V30 18 1 7 19
M  V30 19 1 19 20
M  V30 20 1 20 21
M  V30 21 1 18 4
M  V30 22 1 21 6
M  V30 23 2 17 9
M  V30 24 1 17 12
M  V30 25 1 1 22
M  V30 26 1 1 23
M  V30 27 1 1 24
M  V30 28 1 3 25
M  V30 29 1 3 26
M  V30 30 1 3 27
M  V30 31 1 10 28
M  V30 32 1 14 29
M  V30 33 1 15 30
M  V30 34 1 16 31
M  V30 35 1 19 32
M  V30 36 1 19 33
M  V30 37 1 21 34
M  V30 38 1 21 35
M  V30 END BOND
M  V30 END CTAB
M  END
>  <Dataset>  (613) 
ChEMBL_Kinases

>  <Ligand_Instance>  (613) 
nan

>  <PDB_ID>  (613) 
nan

>  <Standardized_SMILES>  (613) 
CN(C)c1nc2c(c(-c3cnn4ncccc34)n1)COC2

>  <Name>  (613) 
nan

>  <Pocket>  (613) 
nan

>  <ATP_Site>  (613) 
nan

>  <Peripheral>  (613) 
nan

>  <Num_H_Atoms_ProtBoundConf>  (613) 
nan

>  <Num_Resolved_Atoms>  (613) 
nan

>  <Num_Not_Resolved_Atoms>  (613) 
nan

$$$$
CHEMBL4061525
     RDKit          3D

  0  0  0  0  0  0  0  0  0  0999 V3000
M  V30 BEGIN CTAB
M  V30 COUNTS 38 41 0 0 0
M  V30 BEGIN ATOM
M  V30 1 C -0.798918 -4.412614 4.984375 0
M  V30 2 N 0.278332 -3.536828 5.395730 0
M  V30 3 C 0.671697 -2.491913 4.514821 0
M  V30 4 C 1.669346 -2.804660 3.591456 0
M  V30 5 C 2.091194 -1.808097 2.701724 0
M  V30 6 C 1.456080 -0.563488 2.827092 0
M  V30 7 O 1.837513 0.412274 1.994168 0
M  V30 8 C 1.396034 0.770358 0.787103 0
M  V30 9 S 2.310912 2.142042 0.203661 0
M  V30 10 C 1.517185 2.367483 -1.356142 0
M  V30 11 C 1.865279 3.392963 -2.313169 0
M  V30 12 N 1.149686 3.472295 -3.537174 0
M  V30 13 O 2.799577 4.173057 -2.004253 0
M  V30 14 C 0.560804 1.347791 -1.350641 0
M  V30 15 C 0.528044 0.556650 -0.246633 0
M  V30 16 C -0.460321 -0.545053 -0.161686 0
M  V30 17 S -0.850849 -1.734261 0.971258 0
M  V30 18 N -2.233074 -2.515153 -0.017797 0
M  V30 19 C -2.190512 -1.669020 -1.186050 0
M  V30 20 C -1.290878 -0.666395 -1.263254 0
M  V30 21 C -1.338295 0.136166 -2.500410 0
M  V30 22 C -0.328903 1.201059 -2.515785 0
M  V30 23 C 0.454078 -0.264815 3.761360 0
M  V30 24 N 0.078951 -1.264552 4.602744 0
M  V30 25 H -0.610261 -4.900334 4.013838 0
M  V30 26 H -1.781308 -3.929154 4.964951 0
M  V30 27 H -0.841967 -5.239766 5.740697 0
M  V30 28 H 0.840927 -3.549849 6.279747 0
M  V30 29 H 2.117231 -3.767651 3.540842 0
M  V30 30 H 2.846462 -1.945729 1.958977 0
M  V30 31 H 0.396337 3.988824 -4.041263 0
M  V30 32 H 0.404906 3.940972 -4.111509 0
M  V30 33 H -2.993860 -2.172217 -1.688887 0
M  V30 34 H -2.346060 0.656811 -2.588628 0
M  V30 35 H -1.313065 -0.490859 -3.427853 0
M  V30 36 H 0.341719 0.987216 -3.416348 0
M  V30 37 H -0.785117 2.186078 -2.806800 0
M  V30 38 H 0.025813 0.719235 3.781918 0
M  V30 END ATOM
M  V30 BEGIN BOND
M  V30 1 1 1 2
M  V30 2 1 2 3
M  V30 3 2 3 4
M  V30 4 1 4 5
M  V30 5 2 5 6
M  V30 6 1 6 7
M  V30 7 1 7 8
M  V30 8 1 8 9
M  V30 9 1 9 10
M  V30 10 1 10 11
M  V30 11 1 11 12
M  V30 12 2 11 13
M  V30 13 2 10 14
M  V30 14 1 14 15
M  V30 15 1 15 16
M  V30 16 1 16 17
M  V30 17 1 17 18
M  V30 18 2 18 19
M  V30 19 1 19 20
M  V30 20 1 20 21
M  V30 21 1 21 22
M  V30 22 1 6 23
M  V30 23 2 23 24
M  V30 24 1 24 3
M  V30 25 2 15 8
M  V30 26 2 20 16
M  V30 27 1 22 14
M  V30 28 1 1 25
M  V30 29 1 1 26
M  V30 30 1 1 27
M  V30 31 1 2 28
M  V30 32 1 4 29
M  V30 33 1 5 30
M  V30 34 1 12 31
M  V30 35 1 12 32
M  V30 36 1 19 33
M  V30 37 1 21 34
M  V30 38 1 21 35
M  V30 39 1 22 36
M  V30 40 1 22 37
M  V30 41 1 23 38
M  V30 END BOND
M  V30 END CTAB
M  END
>  <Dataset>  (614) 
ChEMBL_Kinases

>  <Ligand_Instance>  (614) 
nan

>  <PDB_ID>  (614) 
nan

>  <Standardized_SMILES>  (614) 
CNc1ccc(Oc2sc(C(N)=O)c3c2-c2sncc2CC3)cn1

>  <Name>  (614) 
nan

>  <Pocket>  (614) 
nan

>  <ATP_Site>  (614) 
nan

>  <Peripheral>  (614) 
nan

>  <Num_H_Atoms_ProtBoundConf>  (614) 
nan

>  <Num_Resolved_Atoms>  (614) 
nan

>  <Num_Not_Resolved_Atoms>  (614) 
nan

$$$$
CHEMBL4061509
     RDKit          3D

  0  0  0  0  0  0  0  0  0  0999 V3000
M  V30 BEGIN CTAB
M  V30 COUNTS 54 57 0 0 0
M  V30 BEGIN ATOM
M  V30 1 C 1.259890 -7.523996 -1.205344 0
M  V30 2 O 1.422517 -7.068100 0.121931 0
M  V30 3 C 1.559348 -5.707700 0.327815 0
M  V30 4 C 1.706077 -5.422233 1.692675 0
M  V30 5 C 1.857414 -4.101105 2.110523 0
M  V30 6 C 1.853465 -3.131647 1.129860 0
M  V30 7 C 1.712524 -3.371418 -0.216003 0
M  V30 8 C 1.699705 -2.334063 -1.239089 0
M  V30 9 C 1.811241 -0.994707 -0.932684 0
M  V30 10 C 1.787186 0.002083 -1.920349 0
M  V30 11 C 1.910228 1.386499 -1.441813 0
M  V30 12 O 3.122639 1.541559 -1.703401 0
M  V30 13 N 0.778010 2.026114 -0.906561 0
M  V30 14 C 0.729240 3.388323 -0.383443 0
M  V30 15 C 0.166294 3.409325 1.016479 0
M  V30 16 N -1.007592 2.599761 1.168670 0
M  V30 17 C -1.225294 2.432136 2.599517 0
M  V30 18 C -2.423140 1.622342 2.916418 0
M  V30 19 C -2.522500 0.276209 3.092532 0
M  V30 20 C -3.727952 -0.335177 3.386170 0
M  V30 21 C -4.856870 0.423205 3.504790 0
M  V30 22 Cl -6.398808 -0.362395 3.879929 0
M  V30 23 C -4.831860 1.805546 3.337918 0
M  V30 24 C -3.593270 2.382658 3.042447 0
M  V30 25 C -0.924183 1.298983 0.587631 0
M  V30 26 C -0.482954 1.324191 -0.842172 0
M  V30 27 C 1.646588 -0.393456 -3.241262 0
M  V30 28 C 1.535228 -1.747142 -3.533593 0
M  V30 29 N 1.565599 -2.650728 -2.537198 0
M  V30 30 C 1.564979 -4.685583 -0.596837 0
M  V30 31 H 1.963937 -6.954091 -1.843289 0
M  V30 32 H 1.478277 -8.609900 -1.302230 0
M  V30 33 H 0.226518 -7.273903 -1.565552 0
M  V30 34 H 1.713210 -6.176079 2.496390 0
M  V30 35 H 1.971649 -3.871227 3.166801 0
M  V30 36 H 1.971519 -2.138114 1.486446 0
M  V30 37 H 1.923389 -0.675644 0.107893 0
M  V30 38 H 0.035347 3.966872 -1.055765 0
M  V30 39 H 1.693419 3.895330 -0.384324 0
M  V30 40 H 0.968462 3.078155 1.707385 0
M  V30 41 H -0.111171 4.458063 1.244080 0
M  V30 42 H -0.325544 1.903058 3.029250 0
M  V30 43 H -1.259812 3.398820 3.138930 0
M  V30 44 H -1.595706 -0.265384 2.985600 0
M  V30 45 H -3.773605 -1.407091 3.520583 0
M  V30 46 H -5.720740 2.421698 3.429299 0
M  V30 47 H -3.618237 3.454512 2.921871 0
M  V30 48 H -0.249433 0.659599 1.211814 0
M  V30 49 H -1.956965 0.852536 0.700283 0
M  V30 50 H -0.428345 0.300461 -1.256100 0
M  V30 51 H -1.220106 1.979913 -1.385308 0
M  V30 52 H 1.635351 0.415451 -3.982174 0
M  V30 53 H 1.427905 -2.026470 -4.571709 0
M  V30 54 H 1.447892 -4.999503 -1.607030 0
M  V30 END ATOM
M  V30 BEGIN BOND
M  V30 1 1 1 2
M  V30 2 1 2 3
M  V30 3 2 3 4
M  V30 4 1 4 5
M  V30 5 2 5 6
M  V30 6 1 6 7
M  V30 7 1 7 8
M  V30 8 2 8 9
M  V30 9 1 9 10
M  V30 10 1 10 11
M  V30 11 2 11 12
M  V30 12 1 11 13
M  V30 13 1 13 14
M  V30 14 1 14 15
M  V30 15 1 15 16
M  V30 16 1 16 17
M  V30 17 1 17 18
M  V30 18 2 18 19
M  V30 19 1 19 20
M  V30 20 2 20 21
M  V30 21 1 21 22
M  V30 22 1 21 23
M  V30 23 2 23 24
M  V30 24 1 16 25
M  V30 25 1 25 26
M  V30 26 2 10 27
M  V30 27 1 27 28
M  V30 28 2 28 29
M  V30 29 2 7 30
M  V30 30 1 30 3
M  V30 31 1 29 8
M  V30 32 1 26 13
M  V30 33 1 24 18
M  V30 34 1 1 31
M  V30 35 1 1 32
M  V30 36 1 1 33
M  V30 37 1 4 34
M  V30 38 1 5 35
M  V30 39 1 6 36
M  V30 40 1 9 37
M  V30 41 1 14 38
M  V30 42 1 14 39
M  V30 43 1 15 40
M  V30 44 1 15 41
M  V30 45 1 17 42
M  V30 46 1 17 43
M  V30 47 1 19 44
M  V30 48 1 20 45
M  V30 49 1 23 46
M  V30 50 1 24 47
M  V30 51 1 25 48
M  V30 52 1 25 49
M  V30 53 1 26 50
M  V30 54 1 26 51
M  V30 55 1 27 52
M  V30 56 1 28 53
M  V30 57 1 30 54
M  V30 END BOND
M  V30 END CTAB
M  END
>  <Dataset>  (615) 
ChEMBL_Kinases

>  <Ligand_Instance>  (615) 
nan

>  <PDB_ID>  (615) 
nan

>  <Standardized_SMILES>  (615) 
COc1cccc(-c2cc(C(=O)N3CCN(Cc4ccc(Cl)cc4)CC3)ccn2)c1

>  <Name>  (615) 
nan

>  <Pocket>  (615) 
nan

>  <ATP_Site>  (615) 
nan

>  <Peripheral>  (615) 
nan

>  <Num_H_Atoms_ProtBoundConf>  (615) 
nan

>  <Num_Resolved_Atoms>  (615) 
nan

>  <Num_Not_Resolved_Atoms>  (615) 
nan

$$$$
CHEMBL98130
     RDKit          3D

  0  0  0  0  0  0  0  0  0  0999 V3000
M  V30 BEGIN CTAB
M  V30 COUNTS 41 44 0 0 0
M  V30 BEGIN ATOM
M  V30 1 N 2.223044 -3.954416 0.552985 0
M  V30 2 C 2.651786 -2.991737 0.076493 0
M  V30 3 C 3.203022 -1.805022 -0.512832 0
M  V30 4 C 4.589377 -1.628631 -0.452261 0
M  V30 5 N 5.158303 -0.538855 -0.986324 0
M  V30 6 C 4.411395 0.403263 -1.588732 0
M  V30 7 C 4.957739 1.539044 -2.150637 0
M  V30 8 C 4.179169 2.504770 -2.769614 0
M  V30 9 C 2.796861 2.316840 -2.823384 0
M  V30 10 C 2.191530 1.201455 -2.279384 0
M  V30 11 C 3.034220 0.284704 -1.680030 0
M  V30 12 C 2.440191 -0.835160 -1.132289 0
M  V30 13 N 1.047270 -1.113740 -1.137513 0
M  V30 14 C 0.118724 -0.741902 -0.165761 0
M  V30 15 C 0.545460 -0.028312 0.934822 0
M  V30 16 C -0.402492 0.320610 1.873247 0
M  V30 17 C -1.724832 -0.035444 1.708036 0
M  V30 18 O -2.777089 0.244511 2.561920 0
M  V30 19 C -3.123167 -0.625903 3.586183 0
M  V30 20 C -2.377352 -1.791737 3.727838 0
M  V30 21 C -2.706293 -2.671772 4.742097 0
M  V30 22 C -3.765005 -2.348307 5.569293 0
M  V30 23 C -4.519896 -1.180298 5.435192 0
M  V30 24 C -4.176240 -0.314473 4.416937 0
M  V30 25 C -2.147234 -0.759536 0.587578 0
M  V30 26 C -1.192929 -1.118508 -0.370619 0
M  V30 27 H 5.269383 -2.334215 0.012602 0
M  V30 28 H 6.015356 1.679788 -2.107824 0
M  V30 29 H 4.625305 3.403020 -3.212415 0
M  V30 30 H 2.174135 3.078639 -3.312633 0
M  V30 31 H 1.124916 1.034570 -2.308869 0
M  V30 32 H 0.824918 -1.652160 -2.002342 0
M  V30 33 H 1.562338 0.278032 1.118800 0
M  V30 34 H -0.229465 0.872026 2.777948 0
M  V30 35 H -1.550202 -2.024819 3.066397 0
M  V30 36 H -2.131886 -3.569164 4.850801 0
M  V30 37 H -4.030003 -3.023011 6.359936 0
M  V30 38 H -5.334903 -1.014383 6.136152 0
M  V30 39 H -4.763114 0.594302 4.312127 0
M  V30 40 H -3.163994 -1.072382 0.392209 0
M  V30 41 H -1.475509 -1.677738 -1.251049 0
M  V30 END ATOM
M  V30 BEGIN BOND
M  V30 1 3 1 2
M  V30 2 1 2 3
M  V30 3 2 3 4
M  V30 4 1 4 5
M  V30 5 2 5 6
M  V30 6 1 6 7
M  V30 7 2 7 8
M  V30 8 1 8 9
M  V30 9 2 9 10
M  V30 10 1 10 11
M  V30 11 2 11 12
M  V30 12 1 12 13
M  V30 13 1 13 14
M  V30 14 2 14 15
M  V30 15 1 15 16
M  V30 16 2 16 17
M  V30 17 1 17 18
M  V30 18 1 18 19
M  V30 19 2 19 20
M  V30 20 1 20 21
M  V30 21 2 21 22
M  V30 22 1 22 23
M  V30 23 2 23 24
M  V30 24 1 17 25
M  V30 25 2 25 26
M  V30 26 1 12 3
M  V30 27 1 26 14
M  V30 28 1 11 6
M  V30 29 1 24 19
M  V30 30 1 4 27
M  V30 31 1 7 28
M  V30 32 1 8 29
M  V30 33 1 9 30
M  V30 34 1 10 31
M  V30 35 1 13 32
M  V30 36 1 15 33
M  V30 37 1 16 34
M  V30 38 1 20 35
M  V30 39 1 21 36
M  V30 40 1 22 37
M  V30 41 1 23 38
M  V30 42 1 24 39
M  V30 43 1 25 40
M  V30 44 1 26 41
M  V30 END BOND
M  V30 END CTAB
M  END
>  <Dataset>  (616) 
ChEMBL_Kinases

>  <Ligand_Instance>  (616) 
nan

>  <PDB_ID>  (616) 
nan

>  <Standardized_SMILES>  (616) 
N#Cc1cnc2ccccc2c1Nc1ccc(Oc2ccccc2)cc1

>  <Name>  (616) 
nan

>  <Pocket>  (616) 
nan

>  <ATP_Site>  (616) 
nan

>  <Peripheral>  (616) 
nan

>  <Num_H_Atoms_ProtBoundConf>  (616) 
nan

>  <Num_Resolved_Atoms>  (616) 
nan

>  <Num_Not_Resolved_Atoms>  (616) 
nan

$$$$
CHEMBL4863003
     RDKit          3D

  0  0  0  0  0  0  0  0  0  0999 V3000
M  V30 BEGIN CTAB
M  V30 COUNTS 43 45 0 0 0
M  V30 BEGIN ATOM
M  V30 1 C -1.560182 -3.975663 -0.254192 0
M  V30 2 C -0.337867 -3.070944 0.018077 0
M  V30 3 C -0.254326 -2.163577 -1.156520 0
M  V30 4 N 0.807075 -1.192755 -1.154586 0
M  V30 5 C 2.237977 -1.232971 -1.265255 0
M  V30 6 C 2.954330 -1.825815 -0.055753 0
M  V30 7 O 4.336217 -1.795746 -0.292162 0
M  V30 8 C 5.102879 -2.297691 0.724109 0
M  V30 9 C 0.288102 0.156709 -1.000925 0
M  V30 10 N 0.131608 1.015896 -2.044650 0
M  V30 11 C -0.365492 2.246541 -1.750938 0
M  V30 12 C -0.714928 2.674210 -0.494919 0
M  V30 13 C -0.540991 1.766747 0.544188 0
M  V30 14 C -0.929275 2.188064 1.883691 0
M  V30 15 C -1.364693 3.461625 2.270185 0
M  V30 16 N -1.637597 3.431354 3.571807 0
M  V30 17 N -1.413930 2.212921 4.090745 0
M  V30 18 N -1.549131 1.706807 5.325132 0
M  V30 19 C -1.228841 0.387120 5.488253 0
M  V30 20 C -0.777554 -0.459406 4.478856 0
M  V30 21 C -0.662372 0.127776 3.237758 0
M  V30 22 C -0.985325 1.469874 3.059112 0
M  V30 23 N -0.041056 0.522413 0.271591 0
M  V30 24 H -1.815026 -4.573059 0.633251 0
M  V30 25 H -1.289644 -4.676597 -1.086534 0
M  V30 26 H -2.445870 -3.369185 -0.519296 0
M  V30 27 H 0.526549 -3.741706 0.172679 0
M  V30 28 H -0.620279 -2.476113 0.912007 0
M  V30 29 H -1.273253 -1.696245 -1.254731 0
M  V30 30 H -0.183925 -2.774304 -2.108559 0
M  V30 31 H 2.531731 -1.831373 -2.185640 0
M  V30 32 H 2.636817 -0.212916 -1.405319 0
M  V30 33 H 2.705652 -2.872826 0.139540 0
M  V30 34 H 2.792266 -1.241709 0.851214 0
M  V30 35 H 4.999709 -1.789821 1.705581 0
M  V30 36 H 5.032245 -3.398046 0.769337 0
M  V30 37 H 6.176054 -2.070106 0.424492 0
M  V30 38 H -0.465306 2.877339 -2.625323 0
M  V30 39 H -1.090639 3.658149 -0.408538 0
M  V30 40 H -1.472244 4.337190 1.649518 0
M  V30 41 H -1.389653 0.123275 6.537622 0
M  V30 42 H -0.567556 -1.475892 4.764226 0
M  V30 43 H -0.307292 -0.528922 2.429657 0
M  V30 END ATOM
M  V30 BEGIN BOND
M  V30 1 1 1 2
M  V30 2 1 2 3
M  V30 3 1 3 4
M  V30 4 1 4 5
M  V30 5 1 5 6
M  V30 6 1 6 7
M  V30 7 1 7 8
M  V30 8 1 4 9
M  V30 9 2 9 10
M  V30 10 1 10 11
M  V30 11 2 11 12
M  V30 12 1 12 13
M  V30 13 1 13 14
M  V30 14 1 14 15
M  V30 15 2 15 16
M  V30 16 1 16 17
M  V30 17 1 17 18
M  V30 18 2 18 19
M  V30 19 1 19 20
M  V30 20 2 20 21
M  V30 21 1 21 22
M  V30 22 2 13 23
M  V30 23 1 23 9
M  V30 24 2 22 14
M  V30 25 1 22 17
M  V30 26 1 1 24
M  V30 27 1 1 25
M  V30 28 1 1 26
M  V30 29 1 2 27
M  V30 30 1 2 28
M  V30 31 1 3 29
M  V30 32 1 3 30
M  V30 33 1 5 31
M  V30 34 1 5 32
M  V30 35 1 6 33
M  V30 36 1 6 34
M  V30 37 1 8 35
M  V30 38 1 8 36
M  V30 39 1 8 37
M  V30 40 1 11 38
M  V30 41 1 12 39
M  V30 42 1 15 40
M  V30 43 1 19 41
M  V30 44 1 20 42
M  V30 45 1 21 43
M  V30 END BOND
M  V30 END CTAB
M  END
>  <Dataset>  (617) 
ChEMBL_Kinases

>  <Ligand_Instance>  (617) 
nan

>  <PDB_ID>  (617) 
nan

>  <Standardized_SMILES>  (617) 
CCCN(CCOC)c1nccc(-c2cnn3ncccc23)n1

>  <Name>  (617) 
nan

>  <Pocket>  (617) 
nan

>  <ATP_Site>  (617) 
nan

>  <Peripheral>  (617) 
nan

>  <Num_H_Atoms_ProtBoundConf>  (617) 
nan

>  <Num_Resolved_Atoms>  (617) 
nan

>  <Num_Not_Resolved_Atoms>  (617) 
nan

$$$$
CHEMBL4863056
     RDKit          3D

  0  0  0  0  0  0  0  0  0  0999 V3000
M  V30 BEGIN CTAB
M  V30 COUNTS 44 46 0 0 0
M  V30 BEGIN ATOM
M  V30 1 C 5.211933 -1.712773 2.033046 0
M  V30 2 O 3.911397 -1.161060 2.107845 0
M  V30 3 C 3.029667 -1.523716 3.110653 0
M  V30 4 N 3.301440 -2.407363 4.088019 0
M  V30 5 N 2.234970 -2.525206 4.886351 0
M  V30 6 C 2.191596 -3.399846 6.042994 0
M  V30 7 C 1.296034 -1.703897 4.393692 0
M  V30 8 C 1.746741 -1.045230 3.269423 0
M  V30 9 C 1.006285 -0.078996 2.469187 0
M  V30 10 O -0.170431 0.214292 2.802957 0
M  V30 11 N 1.560773 0.542589 1.329941 0
M  V30 12 C 0.912095 1.494241 0.492974 0
M  V30 13 C 0.950030 2.879350 0.686172 0
M  V30 14 C 0.277068 3.717790 -0.197057 0
M  V30 15 C -0.422592 3.175303 -1.256919 0
M  V30 16 C -0.450347 1.806167 -1.433887 0
M  V30 17 C -1.162850 1.139538 -2.524643 0
M  V30 18 N -1.164685 1.562390 -3.800607 0
M  V30 19 N -1.905686 0.727945 -4.511815 0
M  V30 20 C -2.382847 -0.240417 -3.677259 0
M  V30 21 N -1.911796 0.032173 -2.451885 0
M  V30 22 C -2.197946 -0.765721 -1.300197 0 CFG=2
M  V30 23 C -1.726560 -2.194776 -1.599825 0
M  V30 24 C -3.717476 -0.813297 -1.132185 0
M  V30 25 F -4.050087 -1.581105 -0.019993 0
M  V30 26 F -4.205791 0.474148 -1.024930 0
M  V30 27 F -4.276047 -1.460187 -2.216370 0
M  V30 28 N 0.206333 1.008625 -0.569964 0
M  V30 29 H 5.614105 -1.990132 3.023335 0
M  V30 30 H 5.939821 -1.015802 1.568398 0
M  V30 31 H 5.206815 -2.627923 1.392274 0
M  V30 32 H 1.509700 -2.898759 6.785090 0
M  V30 33 H 1.710279 -4.383515 5.790410 0
M  V30 34 H 3.197574 -3.520528 6.502529 0
M  V30 35 H 0.323678 -1.610615 4.862152 0
M  V30 36 H 2.513139 0.345201 1.008120 0
M  V30 37 H 1.515726 3.226001 1.533888 0
M  V30 38 H 0.313636 4.779207 -0.038218 0
M  V30 39 H -0.961205 3.802509 -1.968209 0
M  V30 40 H -3.013428 -1.017735 -4.080957 0
M  V30 41 H -1.708659 -0.422224 -0.377824 0
M  V30 42 H -1.541547 -2.758587 -0.658276 0
M  V30 43 H -2.505079 -2.654857 -2.247428 0
M  V30 44 H -0.807891 -2.084021 -2.213414 0
M  V30 END ATOM
M  V30 BEGIN BOND
M  V30 1 1 1 2
M  V30 2 1 2 3
M  V30 3 2 3 4
M  V30 4 1 4 5
M  V30 5 1 5 6
M  V30 6 1 5 7
M  V30 7 2 7 8
M  V30 8 1 8 9
M  V30 9 2 9 10
M  V30 10 1 9 11
M  V30 11 1 11 12
M  V30 12 2 12 13
M  V30 13 1 13 14
M  V30 14 2 14 15
M  V30 15 1 15 16
M  V30 16 1 16 17
M  V30 17 2 17 18
M  V30 18 1 18 19
M  V30 19 2 19 20
M  V30 20 1 20 21
M  V30 21 1 21 22
M  V30 22 1 22 23
M  V30 23 1 22 24
M  V30 24 1 24 25
M  V30 25 1 24 26
M  V30 26 1 24 27
M  V30 27 2 16 28
M  V30 28 1 8 3
M  V30 29 1 28 12
M  V30 30 1 21 17
M  V30 31 1 1 29
M  V30 32 1 1 30
M  V30 33 1 1 31
M  V30 34 1 6 32
M  V30 35 1 6 33
M  V30 36 1 6 34
M  V30 37 1 7 35
M  V30 38 1 11 36
M  V30 39 1 13 37
M  V30 40 1 14 38
M  V30 41 1 15 39
M  V30 42 1 20 40
M  V30 43 1 22 41 CFG=1
M  V30 44 1 23 42
M  V30 45 1 23 43
M  V30 46 1 23 44
M  V30 END BOND
M  V30 END CTAB
M  END
>  <Dataset>  (618) 
ChEMBL_Kinases

>  <Ligand_Instance>  (618) 
nan

>  <PDB_ID>  (618) 
nan

>  <Standardized_SMILES>  (618) 
COc1nn(C)cc1C(=O)Nc1cccc(-c2nncn2[C@H](C)C(F)(F)F)n1

>  <Name>  (618) 
nan

>  <Pocket>  (618) 
nan

>  <ATP_Site>  (618) 
nan

>  <Peripheral>  (618) 
nan

>  <Num_H_Atoms_ProtBoundConf>  (618) 
nan

>  <Num_Resolved_Atoms>  (618) 
nan

>  <Num_Not_Resolved_Atoms>  (618) 
nan

$$$$
CHEMBL4062521
     RDKit          3D

  0  0  0  0  0  0  0  0  0  0999 V3000
M  V30 BEGIN CTAB
M  V30 COUNTS 42 44 0 0 0
M  V30 BEGIN ATOM
M  V30 1 C 1.187409 -5.756321 3.282147 0
M  V30 2 N 0.767616 -5.698695 1.880631 0
M  V30 3 C 0.872135 -4.390349 1.342388 0
M  V30 4 C 1.786250 -4.071554 0.369152 0
M  V30 5 C 1.760196 -2.770570 -0.054733 0
M  V30 6 O 2.631195 -2.262794 -1.061506 0
M  V30 7 C 2.391189 -0.891967 -1.322818 0
M  V30 8 C 1.962744 -0.327402 -2.492774 0
M  V30 9 C 1.767719 1.018003 -2.587236 0
M  V30 10 C 2.021639 1.753220 -1.455193 0
M  V30 11 N 1.796368 3.167495 -1.325473 0
M  V30 12 C 0.664870 3.412039 -0.461751 0
M  V30 13 S -0.142800 4.689319 0.127655 0
M  V30 14 N -0.224005 2.585996 0.244987 0
M  V30 15 C -1.236322 2.001305 1.043609 0
M  V30 16 C -0.818368 1.797173 2.367317 0
M  V30 17 C -1.708314 1.235556 3.278449 0
M  V30 18 C -2.923386 0.944833 2.742391 0
M  V30 19 C -3.359318 1.130100 1.462574 0
M  V30 20 C -2.483967 1.684015 0.559646 0
M  V30 21 C 2.467698 1.227881 -0.220870 0
M  V30 22 C 2.659419 -0.157460 -0.160884 0
M  V30 23 F 3.095307 -0.661749 1.023324 0
M  V30 24 N 0.873366 -1.925762 0.492122 0
M  V30 25 C -0.011393 -2.244406 1.439133 0
M  V30 26 N 0.006371 -3.521988 1.861950 0
M  V30 27 H 2.072717 -5.139702 3.447242 0
M  V30 28 H 1.320370 -6.774847 3.650767 0
M  V30 29 H 0.327517 -5.289454 3.856297 0
M  V30 30 H 0.448219 -6.626394 1.466373 0
M  V30 31 H 2.484873 -4.778027 -0.049205 0
M  V30 32 H 1.801297 -1.001316 -3.305348 0
M  V30 33 H 1.429396 1.503524 -3.482401 0
M  V30 34 H 2.089640 4.116742 -1.577791 0
M  V30 35 H 0.139414 1.637375 -0.084108 0
M  V30 36 H 0.180284 2.056977 2.732733 0
M  V30 37 H -1.419362 1.064472 4.299460 0
M  V30 38 H -3.631818 0.502906 3.435880 0
M  V30 39 H -4.374935 0.834343 1.183117 0
M  V30 40 H -2.752846 1.861842 -0.454903 0
M  V30 41 H 2.667583 1.818562 0.663599 0
M  V30 42 H -0.721075 -1.545468 1.875762 0
M  V30 END ATOM
M  V30 BEGIN BOND
M  V30 1 1 1 2
M  V30 2 1 2 3
M  V30 3 2 3 4
M  V30 4 1 4 5
M  V30 5 1 5 6
M  V30 6 1 6 7
M  V30 7 2 7 8
M  V30 8 1 8 9
M  V30 9 2 9 10
M  V30 10 1 10 11
M  V30 11 1 11 12
M  V30 12 2 12 13
M  V30 13 1 12 14
M  V30 14 1 14 15
M  V30 15 2 15 16
M  V30 16 1 16 17
M  V30 17 2 17 18
M  V30 18 1 18 19
M  V30 19 2 19 20
M  V30 20 1 10 21
M  V30 21 2 21 22
M  V30 22 1 22 23
M  V30 23 2 5 24
M  V30 24 1 24 25
M  V30 25 2 25 26
M  V30 26 1 26 3
M  V30 27 1 22 7
M  V30 28 1 20 15
M  V30 29 1 1 27
M  V30 30 1 1 28
M  V30 31 1 1 29
M  V30 32 1 2 30
M  V30 33 1 4 31
M  V30 34 1 8 32
M  V30 35 1 9 33
M  V30 36 1 11 34
M  V30 37 1 14 35
M  V30 38 1 16 36
M  V30 39 1 17 37
M  V30 40 1 18 38
M  V30 41 1 19 39
M  V30 42 1 20 40
M  V30 43 1 21 41
M  V30 44 1 25 42
M  V30 END BOND
M  V30 END CTAB
M  END
>  <Dataset>  (619) 
ChEMBL_Kinases

>  <Ligand_Instance>  (619) 
nan

>  <PDB_ID>  (619) 
nan

>  <Standardized_SMILES>  (619) 
CNc1cc(Oc2ccc(NC(=S)Nc3ccccc3)cc2F)ncn1

>  <Name>  (619) 
nan

>  <Pocket>  (619) 
nan

>  <ATP_Site>  (619) 
nan

>  <Peripheral>  (619) 
nan

>  <Num_H_Atoms_ProtBoundConf>  (619) 
nan

>  <Num_Resolved_Atoms>  (619) 
nan

>  <Num_Not_Resolved_Atoms>  (619) 
nan

$$$$
CHEMBL98123
     RDKit          3D

  0  0  0  0  0  0  0  0  0  0999 V3000
M  V30 BEGIN CTAB
M  V30 COUNTS 46 48 0 0 0
M  V30 BEGIN ATOM
M  V30 1 C -4.139650 0.189329 -5.492457 0
M  V30 2 O -3.248066 -0.905925 -5.326697 0
M  V30 3 C -2.803410 -1.220132 -4.045307 0
M  V30 4 C -3.236203 -0.466515 -2.976603 0
M  V30 5 C -2.799897 -0.772548 -1.707690 0
M  V30 6 C -1.938219 -1.804132 -1.414968 0
M  V30 7 C -1.337545 -2.297417 -0.178147 0
M  V30 8 C 0.054882 -1.896784 0.064218 0
M  V30 9 N 1.038156 -2.804473 -0.218766 0
M  V30 10 C 2.344596 -2.541505 -0.056839 0
M  V30 11 C 2.815048 -1.331517 0.409821 0
M  V30 12 C 1.864325 -0.393283 0.706271 0
M  V30 13 C 2.251247 0.831575 1.180324 0
M  V30 14 C 1.302952 1.809772 1.498275 0
M  V30 15 O 1.648799 3.062367 1.980279 0
M  V30 16 C 2.989946 3.414698 2.176695 0
M  V30 17 C -0.022867 1.486665 1.314495 0
M  V30 18 O -0.990034 2.449541 1.626336 0
M  V30 19 C -2.363906 2.161634 1.453408 0
M  V30 20 C -0.375902 0.252253 0.838400 0
M  V30 21 C 0.540520 -0.701843 0.527040 0
M  V30 22 C -1.522764 -2.545536 -2.531201 0
M  V30 23 C -1.938416 -2.269132 -3.816524 0
M  V30 24 O -1.552392 -2.974172 -4.938980 0
M  V30 25 C -0.654490 -4.089271 -4.835947 0
M  V30 26 H -4.197456 0.384312 -6.566297 0
M  V30 27 H -5.122505 0.002212 -5.000463 0
M  V30 28 H -3.723018 1.100850 -4.989357 0
M  V30 29 H -3.913440 0.372166 -3.066170 0
M  V30 30 H -3.112923 -0.222223 -0.835149 0
M  V30 31 H -1.383738 -3.418647 -0.165467 0
M  V30 32 H -2.010701 -2.008869 0.678564 0
M  V30 33 H 3.094038 -3.307405 -0.299942 0
M  V30 34 H 3.872346 -1.154161 0.527452 0
M  V30 35 H 3.281918 1.087785 1.325301 0
M  V30 36 H 3.060676 4.527559 2.318170 0
M  V30 37 H 3.479785 2.953973 3.041965 0
M  V30 38 H 3.621870 3.168345 1.286842 0
M  V30 39 H -2.679901 1.379151 2.188799 0
M  V30 40 H -2.556290 1.745042 0.457581 0
M  V30 41 H -2.916658 3.123260 1.594797 0
M  V30 42 H -1.410319 0.070021 0.729384 0
M  V30 43 H -0.850298 -3.390924 -2.508581 0
M  V30 44 H -0.964972 -4.794418 -4.061817 0
M  V30 45 H 0.349515 -3.716931 -4.545942 0
M  V30 46 H -0.553016 -4.602699 -5.809656 0
M  V30 END ATOM
M  V30 BEGIN BOND
M  V30 1 1 1 2
M  V30 2 1 2 3
M  V30 3 2 3 4
M  V30 4 1 4 5
M  V30 5 2 5 6
M  V30 6 1 6 7
M  V30 7 1 7 8
M  V30 8 2 8 9
M  V30 9 1 9 10
M  V30 10 2 10 11
M  V30 11 1 11 12
M  V30 12 2 12 13
M  V30 13 1 13 14
M  V30 14 1 14 15
M  V30 15 1 15 16
M  V30 16 2 14 17
M  V30 17 1 17 18
M  V30 18 1 18 19
M  V30 19 1 17 20
M  V30 20 2 20 21
M  V30 21 1 6 22
M  V30 22 2 22 23
M  V30 23 1 23 24
M  V30 24 1 24 25
M  V30 25 1 23 3
M  V30 26 1 21 8
M  V30 27 1 21 12
M  V30 28 1 1 26
M  V30 29 1 1 27
M  V30 30 1 1 28
M  V30 31 1 4 29
M  V30 32 1 5 30
M  V30 33 1 7 31
M  V30 34 1 7 32
M  V30 35 1 10 33
M  V30 36 1 11 34
M  V30 37 1 13 35
M  V30 38 1 16 36
M  V30 39 1 16 37
M  V30 40 1 16 38
M  V30 41 1 19 39
M  V30 42 1 19 40
M  V30 43 1 19 41
M  V30 44 1 20 42
M  V30 45 1 22 43
M  V30 46 1 25 44
M  V30 47 1 25 45
M  V30 48 1 25 46
M  V30 END BOND
M  V30 END CTAB
M  END
>  <Dataset>  (620) 
ChEMBL_Kinases

>  <Ligand_Instance>  (620) 
nan

>  <PDB_ID>  (620) 
nan

>  <Standardized_SMILES>  (620) 
COc1ccc(Cc2nccc3cc(OC)c(OC)cc23)cc1OC

>  <Name>  (620) 
PAPAVERINE HYDROCHLORIDE

>  <Pocket>  (620) 
nan

>  <ATP_Site>  (620) 
nan

>  <Peripheral>  (620) 
nan

>  <Num_H_Atoms_ProtBoundConf>  (620) 
nan

>  <Num_Resolved_Atoms>  (620) 
nan

>  <Num_Not_Resolved_Atoms>  (620) 
nan

$$$$
CHEMBL4863185
     RDKit          3D

  0  0  0  0  0  0  0  0  0  0999 V3000
M  V30 BEGIN CTAB
M  V30 COUNTS 45 47 0 0 0
M  V30 BEGIN ATOM
M  V30 1 N 1.954997 -6.420768 4.084631 0
M  V30 2 C 1.811069 -5.793903 3.127639 0
M  V30 3 C 1.614920 -5.024114 1.942635 0
M  V30 4 C 2.020136 -5.537352 0.737240 0
M  V30 5 C 1.871244 -4.866581 -0.454810 0
M  V30 6 C 1.293584 -3.615378 -0.498015 0
M  V30 7 N 1.121878 -2.893081 -1.706008 0
M  V30 8 C 0.568143 -1.605243 -1.924739 0
M  V30 9 N 0.492069 -1.105212 -3.163230 0
M  V30 10 C -0.001321 0.076748 -3.480973 0
M  V30 11 C -0.477553 0.861586 -2.454947 0
M  V30 12 C -1.037387 2.195464 -2.788426 0
M  V30 13 F -0.983044 2.442229 -4.165247 0
M  V30 14 F -2.345163 2.291009 -2.358167 0
M  V30 15 F -0.267557 3.177742 -2.181970 0
M  V30 16 C -0.435815 0.420589 -1.151359 0
M  V30 17 N -0.927241 1.227108 -0.089788 0
M  V30 18 C -0.901376 0.807205 1.296408 0 CFG=1
M  V30 19 C 0.510706 0.560954 1.744368 0
M  V30 20 C 1.052842 1.719667 2.567894 0
M  V30 21 C 0.186180 2.020496 3.750946 0 CFG=2
M  V30 22 N 0.827174 1.606181 4.970452 0
M  V30 23 C -1.204591 1.425682 3.607904 0
M  V30 24 C -1.665044 1.721555 2.193256 0
M  V30 25 N 0.088372 -0.791143 -0.978544 0
M  V30 26 C 0.902927 -3.141397 0.734346 0
M  V30 27 N 1.059890 -3.818480 1.889228 0
M  V30 28 H 2.484083 -6.523131 0.707333 0
M  V30 29 H 2.216297 -5.336631 -1.369512 0
M  V30 30 H 1.465304 -3.408688 -2.570078 0
M  V30 31 H -0.010336 0.375533 -4.524625 0
M  V30 32 H -1.322254 2.155973 -0.308257 0
M  V30 33 H -1.455606 -0.176914 1.301283 0
M  V30 34 H 1.230555 0.370645 0.944197 0
M  V30 35 H 0.505920 -0.357432 2.398467 0
M  V30 36 H 1.181985 2.566901 1.861297 0
M  V30 37 H 2.065207 1.398776 2.901666 0
M  V30 38 H 0.027687 3.131374 3.745529 0
M  V30 39 H 1.737783 1.150343 4.739804 0
M  V30 40 H 0.235700 0.979532 5.550843 0
M  V30 41 H -1.869507 1.891684 4.343627 0
M  V30 42 H -1.115146 0.319196 3.757610 0
M  V30 43 H -1.376174 2.770152 1.955321 0
M  V30 44 H -2.745722 1.570604 2.181458 0
M  V30 45 H 0.443021 -2.192485 0.853459 0
M  V30 END ATOM
M  V30 BEGIN BOND
M  V30 1 3 1 2
M  V30 2 1 2 3
M  V30 3 2 3 4
M  V30 4 1 4 5
M  V30 5 2 5 6
M  V30 6 1 6 7
M  V30 7 1 7 8
M  V30 8 2 8 9
M  V30 9 1 9 10
M  V30 10 2 10 11
M  V30 11 1 11 12
M  V30 12 1 12 13
M  V30 13 1 12 14
M  V30 14 1 12 15
M  V30 15 1 11 16
M  V30 16 1 16 17
M  V30 17 1 17 18
M  V30 18 1 18 19
M  V30 19 1 19 20
M  V30 20 1 20 21
M  V30 21 1 21 22
M  V30 22 1 21 23
M  V30 23 1 23 24
M  V30 24 2 16 25
M  V30 25 1 6 26
M  V30 26 2 26 27
M  V30 27 1 27 3
M  V30 28 1 25 8
M  V30 29 1 24 18
M  V30 30 1 4 28
M  V30 31 1 5 29
M  V30 32 1 7 30
M  V30 33 1 10 31
M  V30 34 1 17 32
M  V30 35 1 18 33 CFG=3
M  V30 36 1 19 34
M  V30 37 1 19 35
M  V30 38 1 20 36
M  V30 39 1 20 37
M  V30 40 1 21 38 CFG=1
M  V30 41 1 22 39
M  V30 42 1 22 40
M  V30 43 1 23 41
M  V30 44 1 23 42
M  V30 45 1 24 43
M  V30 46 1 24 44
M  V30 47 1 26 45
M  V30 END BOND
M  V30 END CTAB
M  END
>  <Dataset>  (621) 
ChEMBL_Kinases

>  <Ligand_Instance>  (621) 
nan

>  <PDB_ID>  (621) 
nan

>  <Standardized_SMILES>  (621) 
N#Cc1ccc(Nc2ncc(C(F)(F)F)c(N[C@H]3CC[C@H](N)CC3)n2)cn1

>  <Name>  (621) 
nan

>  <Pocket>  (621) 
nan

>  <ATP_Site>  (621) 
nan

>  <Peripheral>  (621) 
nan

>  <Num_H_Atoms_ProtBoundConf>  (621) 
nan

>  <Num_Resolved_Atoms>  (621) 
nan

>  <Num_Not_Resolved_Atoms>  (621) 
nan

$$$$
CHEMBL4061369
     RDKit          3D

  0  0  0  0  0  0  0  0  0  0999 V3000
M  V30 BEGIN CTAB
M  V30 COUNTS 62 66 0 0 0
M  V30 BEGIN ATOM
M  V30 1 O 3.554075 0.415560 6.882763 0
M  V30 2 C 3.277710 1.101046 5.875137 0
M  V30 3 N 4.019752 2.278722 5.647640 0
M  V30 4 C 5.100950 2.888143 6.383308 0
M  V30 5 C 6.309744 1.987163 6.456294 0
M  V30 6 O 6.089685 0.780396 7.071584 0
M  V30 7 C 2.205675 0.621941 5.016036 0
M  V30 8 C 1.576214 -0.562821 5.390225 0
M  V30 9 C 0.534927 -1.106680 4.632200 0
M  V30 10 C 0.092111 -0.486219 3.481579 0
M  V30 11 C 0.723671 0.704870 3.103820 0
M  V30 12 C 1.744238 1.204445 3.879300 0
M  V30 13 C 0.470992 1.581556 1.938869 0
M  V30 14 O 1.084784 2.671221 1.894346 0
M  V30 15 C -0.447785 1.233455 0.859967 0
M  V30 16 C -0.707024 2.327409 0.094033 0
M  V30 17 C -1.556556 2.195678 -0.977674 0
M  V30 18 C -2.187468 1.025536 -1.358836 0
M  V30 19 N -3.069967 0.931235 -2.456041 0
M  V30 20 C -3.343527 -0.056169 -3.403297 0
M  V30 21 C -2.746767 -1.286281 -3.558538 0
M  V30 22 C -3.057056 -2.226763 -4.490257 0
M  V30 23 N -2.376553 -3.473668 -4.566490 0
M  V30 24 C -2.885265 -4.572543 -3.817656 0
M  V30 25 O -3.843842 -4.804699 -3.032864 0
M  V30 26 C -2.248365 -5.913593 -3.829740 0
M  V30 27 C -1.401409 -6.363194 -4.958573 0
M  V30 28 C -0.705847 -5.904370 -3.731133 0
M  V30 29 C -4.069794 -1.939120 -5.380982 0
M  V30 30 F -4.446435 -2.815767 -6.342218 0
M  V30 31 C -4.711350 -0.722972 -5.283052 0
M  V30 32 C -4.347067 0.178475 -4.318651 0
M  V30 33 F -5.051887 1.355493 -4.313034 0
M  V30 34 C -1.871194 -0.024850 -0.533267 0
M  V30 35 C -1.031066 0.020040 0.559248 0
M  V30 36 C -0.849535 -1.245377 1.288852 0
M  V30 37 C -1.004937 -1.147695 2.769405 0
M  V30 38 H 3.690735 2.772979 4.767832 0
M  V30 39 H 5.381898 3.846977 5.916327 0
M  V30 40 H 4.728820 3.104847 7.434331 0
M  V30 41 H 6.681926 1.760125 5.420830 0
M  V30 42 H 7.175197 2.506611 6.943988 0
M  V30 43 H 6.677603 0.068892 6.712780 0
M  V30 44 H 1.834276 -1.137559 6.268056 0
M  V30 45 H 0.049038 -2.029457 4.929064 0
M  V30 46 H 2.202595 2.114185 3.561090 0
M  V30 47 H -0.248785 3.279725 0.331105 0
M  V30 48 H -1.726301 3.106414 -1.554235 0
M  V30 49 H -3.603240 1.828531 -2.507445 0
M  V30 50 H -1.945423 -1.546877 -2.894573 0
M  V30 51 H -1.515488 -3.712257 -5.119129 0
M  V30 52 H -2.753697 -6.662174 -3.202771 0
M  V30 53 H -1.369002 -7.480386 -5.108507 0
M  V30 54 H -1.273711 -5.784060 -5.875334 0
M  V30 55 H -0.207327 -4.910407 -3.693307 0
M  V30 56 H -0.232676 -6.634357 -3.045134 0
M  V30 57 H -5.506360 -0.507743 -5.989380 0
M  V30 58 H -2.285206 -1.013005 -0.672136 0
M  V30 59 H -1.522540 -2.036119 0.909167 0
M  V30 60 H 0.186288 -1.645019 1.093192 0
M  V30 61 H -2.016671 -0.752030 3.041247 0
M  V30 62 H -1.026964 -2.209678 3.144348 0
M  V30 END ATOM
M  V30 BEGIN BOND
M  V30 1 2 1 2
M  V30 2 1 2 3
M  V30 3 1 3 4
M  V30 4 1 4 5
M  V30 5 1 5 6
M  V30 6 1 2 7
M  V30 7 2 7 8
M  V30 8 1 8 9
M  V30 9 2 9 10
M  V30 10 1 10 11
M  V30 11 2 11 12
M  V30 12 1 11 13
M  V30 13 2 13 14
M  V30 14 1 13 15
M  V30 15 2 15 16
M  V30 16 1 16 17
M  V30 17 2 17 18
M  V30 18 1 18 19
M  V30 19 1 19 20
M  V30 20 2 20 21
M  V30 21 1 21 22
M  V30 22 1 22 23
M  V30 23 1 23 24
M  V30 24 2 24 25
M  V30 25 1 24 26
M  V30 26 1 26 27
M  V30 27 1 27 28
M  V30 28 2 22 29
M  V30 29 1 29 30
M  V30 30 1 29 31
M  V30 31 2 31 32
M  V30 32 1 32 33
M  V30 33 1 18 34
M  V30 34 2 34 35
M  V30 35 1 35 36
M  V30 36 1 36 37
M  V30 37 1 12 7
M  V30 38 1 35 15
M  V30 39 1 37 10
M  V30 40 1 32 20
M  V30 41 1 28 26
M  V30 42 1 3 38
M  V30 43 1 4 39
M  V30 44 1 4 40
M  V30 45 1 5 41
M  V30 46 1 5 42
M  V30 47 1 6 43
M  V30 48 1 8 44
M  V30 49 1 9 45
M  V30 50 1 12 46
M  V30 51 1 16 47
M  V30 52 1 17 48
M  V30 53 1 19 49
M  V30 54 1 21 50
M  V30 55 1 23 51
M  V30 56 1 26 52
M  V30 57 1 27 53
M  V30 58 1 27 54
M  V30 59 1 28 55
M  V30 60 1 28 56
M  V30 61 1 31 57
M  V30 62 1 34 58
M  V30 63 1 36 59
M  V30 64 1 36 60
M  V30 65 1 37 61
M  V30 66 1 37 62
M  V30 END BOND
M  V30 END CTAB
M  END
>  <Dataset>  (622) 
ChEMBL_Kinases

>  <Ligand_Instance>  (622) 
nan

>  <PDB_ID>  (622) 
nan

>  <Standardized_SMILES>  (622) 
O=C(NCCO)c1ccc2c(c1)C(=O)c1ccc(Nc3cc(NC(=O)C4CC4)c(F)cc3F)cc1CC2

>  <Name>  (622) 
nan

>  <Pocket>  (622) 
nan

>  <ATP_Site>  (622) 
nan

>  <Peripheral>  (622) 
nan

>  <Num_H_Atoms_ProtBoundConf>  (622) 
nan

>  <Num_Resolved_Atoms>  (622) 
nan

>  <Num_Not_Resolved_Atoms>  (622) 
nan

$$$$
CHEMBL4061324
     RDKit          3D

  0  0  0  0  0  0  0  0  0  0999 V3000
M  V30 BEGIN CTAB
M  V30 COUNTS 44 46 0 0 0
M  V30 BEGIN ATOM
M  V30 1 N 1.003516 1.872609 5.474545 0
M  V30 2 C 0.800247 1.934490 4.067588 0
M  V30 3 O -0.002620 2.752706 3.594079 0
M  V30 4 N 1.572495 1.010665 3.311253 0
M  V30 5 C 1.608053 0.810524 1.880776 0
M  V30 6 C 2.505247 1.534483 1.157026 0
M  V30 7 C 2.496544 1.297764 -0.242436 0
M  V30 8 C 3.322255 1.896168 -1.324621 0
M  V30 9 C 4.267814 2.831161 -1.035445 0
M  V30 10 C 4.960956 3.306114 -2.112440 0
M  V30 11 C 4.729341 2.878697 -3.398500 0
M  V30 12 C 3.750074 1.915752 -3.665057 0
M  V30 13 F 3.531546 1.506118 -4.917999 0
M  V30 14 C 3.049909 1.436408 -2.574519 0
M  V30 15 S 1.165718 0.017758 -0.431236 0
M  V30 16 C 0.798908 -0.050332 1.260162 0
M  V30 17 C -0.235805 -0.919190 1.886494 0
M  V30 18 O -0.396865 -0.870497 3.109430 0
M  V30 19 N -0.987446 -1.763429 1.037603 0
M  V30 20 C -2.008781 -2.621634 1.652365 0 CFG=2
M  V30 21 C -1.694724 -4.069873 1.491068 0
M  V30 22 C -2.436410 -4.771296 0.403399 0
M  V30 23 C -3.754685 -4.150270 0.048178 0
M  V30 24 N -4.223894 -3.344931 1.179316 0
M  V30 25 C -3.355165 -2.183388 1.187449 0
M  V30 26 H 0.614189 1.553334 6.390754 0
M  V30 27 H 1.431452 1.988366 6.407230 0
M  V30 28 H 2.245595 0.328585 3.742718 0
M  V30 29 H 3.233583 2.269175 1.469461 0
M  V30 30 H 4.368078 3.093394 -0.005582 0
M  V30 31 H 5.721731 4.054266 -1.904907 0
M  V30 32 H 5.296098 3.273245 -4.241283 0
M  V30 33 H 2.288545 0.681317 -2.820855 0
M  V30 34 H -0.860688 -1.814341 -0.002255 0
M  V30 35 H -1.957487 -2.394313 2.752103 0
M  V30 36 H -1.857949 -4.634436 2.446641 0
M  V30 37 H -0.606989 -4.160372 1.281097 0
M  V30 38 H -1.836592 -4.851123 -0.528179 0
M  V30 39 H -2.668172 -5.821540 0.705034 0
M  V30 40 H -4.552413 -4.858626 -0.191478 0
M  V30 41 H -3.588529 -3.427476 -0.785886 0
M  V30 42 H -5.198221 -3.029408 1.025133 0
M  V30 43 H -3.303368 -1.704830 0.184850 0
M  V30 44 H -3.837209 -1.472612 1.914515 0
M  V30 END ATOM
M  V30 BEGIN BOND
M  V30 1 1 1 2
M  V30 2 2 2 3
M  V30 3 1 2 4
M  V30 4 1 4 5
M  V30 5 1 5 6
M  V30 6 2 6 7
M  V30 7 1 7 8
M  V30 8 2 8 9
M  V30 9 1 9 10
M  V30 10 2 10 11
M  V30 11 1 11 12
M  V30 12 1 12 13
M  V30 13 2 12 14
M  V30 14 1 7 15
M  V30 15 1 15 16
M  V30 16 1 16 17
M  V30 17 2 17 18
M  V30 18 1 17 19
M  V30 19 1 19 20
M  V30 20 1 20 21
M  V30 21 1 21 22
M  V30 22 1 22 23
M  V30 23 1 23 24
M  V30 24 1 24 25
M  V30 25 2 16 5
M  V30 26 1 25 20
M  V30 27 1 14 8
M  V30 28 1 1 26
M  V30 29 1 1 27
M  V30 30 1 4 28
M  V30 31 1 6 29
M  V30 32 1 9 30
M  V30 33 1 10 31
M  V30 34 1 11 32
M  V30 35 1 14 33
M  V30 36 1 19 34
M  V30 37 1 20 35 CFG=1
M  V30 38 1 21 36
M  V30 39 1 21 37
M  V30 40 1 22 38
M  V30 41 1 22 39
M  V30 42 1 23 40
M  V30 43 1 23 41
M  V30 44 1 24 42
M  V30 45 1 25 43
M  V30 46 1 25 44
M  V30 END BOND
M  V30 END CTAB
M  END
>  <Dataset>  (623) 
ChEMBL_Kinases

>  <Ligand_Instance>  (623) 
nan

>  <PDB_ID>  (623) 
nan

>  <Standardized_SMILES>  (623) 
NC(=O)Nc1cc(-c2cccc(F)c2)sc1C(=O)N[C@@H]1CCCNC1

>  <Name>  (623) 
nan

>  <Pocket>  (623) 
nan

>  <ATP_Site>  (623) 
nan

>  <Peripheral>  (623) 
nan

>  <Num_H_Atoms_ProtBoundConf>  (623) 
nan

>  <Num_Resolved_Atoms>  (623) 
nan

>  <Num_Not_Resolved_Atoms>  (623) 
nan

$$$$
CHEMBL4863203
     RDKit          3D

  0  0  0  0  0  0  0  0  0  0999 V3000
M  V30 BEGIN CTAB
M  V30 COUNTS 45 47 0 0 0
M  V30 BEGIN ATOM
M  V30 1 C -1.367554 -4.167552 2.270114 0
M  V30 2 N 0.052024 -4.452570 2.425982 0
M  V30 3 C 0.668539 -5.112307 1.318477 0
M  V30 4 C 1.233346 -4.356314 0.299191 0
M  V30 5 C 1.859689 -4.898285 -0.826465 0
M  V30 6 O 2.363052 -4.002744 -1.735611 0
M  V30 7 C 2.282272 -2.625722 -1.594804 0
M  V30 8 C 3.224179 -1.837638 -0.965762 0
M  V30 9 C 2.983195 -0.479111 -0.916378 0
M  V30 10 C 1.834848 0.043045 -1.483368 0
M  V30 11 N 1.620348 1.468290 -1.410336 0
M  V30 12 C 0.897889 1.846284 -0.225660 0
M  V30 13 O 0.599706 0.846392 0.508688 0
M  V30 14 N 0.542145 3.177640 0.114540 0
M  V30 15 C -0.180986 3.439924 1.324950 0
M  V30 16 C 0.599824 3.683255 2.461062 0
M  V30 17 C -0.035468 3.946973 3.678854 0
M  V30 18 C -1.400892 3.963231 3.741826 0
M  V30 19 C -2.180132 3.724020 2.624824 0
M  V30 20 C -3.679441 3.745300 2.709603 0
M  V30 21 F -4.176358 5.001920 2.396498 0
M  V30 22 F -4.064894 3.390707 3.982326 0
M  V30 23 F -4.155179 2.868184 1.753731 0
M  V30 24 C -1.563384 3.463035 1.419557 0
M  V30 25 C 0.889045 -0.741576 -2.114106 0
M  V30 26 F -0.209718 -0.151938 -2.644468 0
M  V30 27 C 1.138111 -2.116696 -2.161244 0
M  V30 28 N 1.887916 -6.253543 -0.872684 0
M  V30 29 C 1.351098 -7.004641 0.096191 0
M  V30 30 N 0.761437 -6.454043 1.155792 0
M  V30 31 H -1.953189 -5.078985 2.045539 0
M  V30 32 H -1.538669 -3.464465 1.411456 0
M  V30 33 H -1.746070 -3.740731 3.233137 0
M  V30 34 H 0.559289 -4.175500 3.312450 0
M  V30 35 H 1.167195 -3.266247 0.414591 0
M  V30 36 H 4.085917 -2.356550 -0.557424 0
M  V30 37 H 3.735805 0.126325 -0.417031 0
M  V30 38 H 1.899980 2.237140 -2.063185 0
M  V30 39 H 0.853291 3.891685 -0.581794 0
M  V30 40 H 1.680689 3.675693 2.435843 0
M  V30 41 H 0.566637 4.136944 4.565842 0
M  V30 42 H -1.879550 4.169244 4.693304 0
M  V30 43 H -2.131697 3.271607 0.526168 0
M  V30 44 H 0.367492 -2.681733 -2.665114 0
M  V30 45 H 1.387057 -8.070949 0.035042 0
M  V30 END ATOM
M  V30 BEGIN BOND
M  V30 1 1 1 2
M  V30 2 1 2 3
M  V30 3 2 3 4
M  V30 4 1 4 5
M  V30 5 1 5 6
M  V30 6 1 6 7
M  V30 7 2 7 8
M  V30 8 1 8 9
M  V30 9 2 9 10
M  V30 10 1 10 11
M  V30 11 1 11 12
M  V30 12 2 12 13
M  V30 13 1 12 14
M  V30 14 1 14 15
M  V30 15 2 15 16
M  V30 16 1 16 17
M  V30 17 2 17 18
M  V30 18 1 18 19
M  V30 19 1 19 20
M  V30 20 1 20 21
M  V30 21 1 20 22
M  V30 22 1 20 23
M  V30 23 2 19 24
M  V30 24 1 10 25
M  V30 25 1 25 26
M  V30 26 2 25 27
M  V30 27 2 5 28
M  V30 28 1 28 29
M  V30 29 2 29 30
M  V30 30 1 30 3
M  V30 31 1 27 7
M  V30 32 1 24 15
M  V30 33 1 1 31
M  V30 34 1 1 32
M  V30 35 1 1 33
M  V30 36 1 2 34
M  V30 37 1 4 35
M  V30 38 1 8 36
M  V30 39 1 9 37
M  V30 40 1 11 38
M  V30 41 1 14 39
M  V30 42 1 16 40
M  V30 43 1 17 41
M  V30 44 1 18 42
M  V30 45 1 24 43
M  V30 46 1 27 44
M  V30 47 1 29 45
M  V30 END BOND
M  V30 END CTAB
M  END
>  <Dataset>  (624) 
ChEMBL_Kinases

>  <Ligand_Instance>  (624) 
nan

>  <PDB_ID>  (624) 
nan

>  <Standardized_SMILES>  (624) 
CNc1cc(Oc2ccc(NC(=O)Nc3cccc(C(F)(F)F)c3)c(F)c2)ncn1

>  <Name>  (624) 
nan

>  <Pocket>  (624) 
nan

>  <ATP_Site>  (624) 
nan

>  <Peripheral>  (624) 
nan

>  <Num_H_Atoms_ProtBoundConf>  (624) 
nan

>  <Num_Resolved_Atoms>  (624) 
nan

>  <Num_Not_Resolved_Atoms>  (624) 
nan

$$$$
CHEMBL4061315
     RDKit          3D

  0  0  0  0  0  0  0  0  0  0999 V3000
M  V30 BEGIN CTAB
M  V30 COUNTS 74 79 0 0 0
M  V30 BEGIN ATOM
M  V30 1 O 1.280794 -6.244813 -0.247273 0
M  V30 2 C 0.260661 -5.538074 -0.039185 0
M  V30 3 N -0.949258 -6.222533 0.212484 0
M  V30 4 C -1.079396 -7.663997 0.244051 0
M  V30 5 C -0.702202 -8.287946 -1.078488 0
M  V30 6 N -1.567252 -7.786818 -2.153599 0
M  V30 7 C -2.891317 -8.319710 -1.871665 0
M  V30 8 C -3.720303 -8.170608 -3.128194 0
M  V30 9 O -3.175049 -9.075558 -4.059996 0
M  V30 10 C -1.990572 -8.481425 -4.492345 0
M  V30 11 C -1.004950 -8.285750 -3.386072 0
M  V30 12 C 0.417260 -4.087464 -0.075577 0
M  V30 13 C 1.692407 -3.603044 -0.295146 0
M  V30 14 C 1.953978 -2.229739 -0.345385 0
M  V30 15 C 0.897021 -1.349719 -0.168986 0
M  V30 16 C -0.381105 -1.875956 0.050670 0
M  V30 17 C -0.644331 -3.225256 0.101352 0
M  V30 18 C -1.648822 -1.140077 0.261675 0
M  V30 19 O -2.734204 -1.746373 0.337891 0
M  V30 20 C -1.735391 0.314911 0.394373 0
M  V30 21 C -2.855850 0.712333 1.094159 0
M  V30 22 C -3.043874 2.059711 1.286693 0
M  V30 23 C -2.195090 3.064872 0.833405 0
M  V30 24 N -2.466194 4.429469 1.060525 0
M  V30 25 C -1.630227 5.528204 1.372599 0
M  V30 26 C -0.274725 5.507450 1.582086 0
M  V30 27 C 0.490546 6.615815 1.871446 0
M  V30 28 N 1.879745 6.445400 2.060543 0
M  V30 29 C 2.579822 6.165279 3.255496 0
M  V30 30 O 1.760964 6.074263 4.231883 0
M  V30 31 C 3.992947 6.036997 3.183984 0
M  V30 32 C 4.887261 5.773643 4.167979 0
M  V30 33 C 6.227000 5.687508 3.897053 0
M  V30 34 C 6.598035 5.889769 2.543892 0
M  V30 35 S 4.994769 6.208519 1.646910 0
M  V30 36 C -0.112262 7.849923 1.965829 0
M  V30 37 F 0.665980 8.920714 2.250793 0
M  V30 38 C -1.472671 7.885825 1.758377 0
M  V30 39 C -2.215712 6.768096 1.470833 0
M  V30 40 F -3.539906 6.942765 1.290432 0
M  V30 41 C -1.102972 2.582441 0.144729 0
M  V30 42 C -0.822175 1.254985 -0.102292 0
M  V30 43 C 0.422010 1.015392 -0.870864 0
M  V30 44 C 1.358047 0.043912 -0.248149 0
M  V30 45 H -1.791893 -5.615147 0.384812 0
M  V30 46 H -0.371339 -8.002347 1.052990 0
M  V30 47 H -2.090129 -7.924421 0.566290 0
M  V30 48 H -0.813804 -9.387501 -0.985225 0
M  V30 49 H 0.363622 -8.108430 -1.307590 0
M  V30 50 H -3.300394 -7.675892 -1.046627 0
M  V30 51 H -2.831099 -9.373597 -1.540575 0
M  V30 52 H -4.786227 -8.384113 -2.940884 0
M  V30 53 H -3.546735 -7.147452 -3.532864 0
M  V30 54 H -1.494097 -9.113798 -5.259174 0
M  V30 55 H -2.230733 -7.516816 -4.999466 0
M  V30 56 H -0.411250 -9.226963 -3.207520 0
M  V30 57 H -0.255449 -7.552711 -3.749423 0
M  V30 58 H 2.598381 -4.192110 -0.447778 0
M  V30 59 H 2.939864 -1.813262 -0.515451 0
M  V30 60 H -1.638627 -3.591859 0.272231 0
M  V30 61 H -3.508049 -0.050211 1.443097 0
M  V30 62 H -3.935898 2.338175 1.842113 0
M  V30 63 H -3.493330 4.594723 0.962300 0
M  V30 64 H 0.230546 4.558939 1.528192 0
M  V30 65 H 2.313896 6.569123 1.126189 0
M  V30 66 H 4.536873 5.627749 5.191569 0
M  V30 67 H 7.017173 5.484154 4.601230 0
M  V30 68 H 7.614844 5.861215 2.132911 0
M  V30 69 H -1.954188 8.860325 1.831972 0
M  V30 70 H -0.381208 3.239546 -0.270874 0
M  V30 71 H 0.962632 1.983869 -0.925650 0
M  V30 72 H 0.154195 0.776527 -1.920615 0
M  V30 73 H 2.291419 0.064777 -0.849880 0
M  V30 74 H 1.643778 0.458965 0.746241 0
M  V30 END ATOM
M  V30 BEGIN BOND
M  V30 1 2 1 2
M  V30 2 1 2 3
M  V30 3 1 3 4
M  V30 4 1 4 5
M  V30 5 1 5 6
M  V30 6 1 6 7
M  V30 7 1 7 8
M  V30 8 1 8 9
M  V30 9 1 9 10
M  V30 10 1 10 11
M  V30 11 1 2 12
M  V30 12 2 12 13
M  V30 13 1 13 14
M  V30 14 2 14 15
M  V30 15 1 15 16
M  V30 16 2 16 17
M  V30 17 1 16 18
M  V30 18 2 18 19
M  V30 19 1 18 20
M  V30 20 2 20 21
M  V30 21 1 21 22
M  V30 22 2 22 23
M  V30 23 1 23 24
M  V30 24 1 24 25
M  V30 25 2 25 26
M  V30 26 1 26 27
M  V30 27 1 27 28
M  V30 28 1 28 29
M  V30 29 2 29 30
M  V30 30 1 29 31
M  V30 31 2 31 32
M  V30 32 1 32 33
M  V30 33 2 33 34
M  V30 34 1 34 35
M  V30 35 2 27 36
M  V30 36 1 36 37
M  V30 37 1 36 38
M  V30 38 2 38 39
M  V30 39 1 39 40
M  V30 40 1 23 41
M  V30 41 2 41 42
M  V30 42 1 42 43
M  V30 43 1 43 44
M  V30 44 1 11 6
M  V30 45 1 17 12
M  V30 46 1 42 20
M  V30 47 1 44 15
M  V30 48 1 39 25
M  V30 49 1 35 31
M  V30 50 1 3 45
M  V30 51 1 4 46
M  V30 52 1 4 47
M  V30 53 1 5 48
M  V30 54 1 5 49
M  V30 55 1 7 50
M  V30 56 1 7 51
M  V30 57 1 8 52
M  V30 58 1 8 53
M  V30 59 1 10 54
M  V30 60 1 10 55
M  V30 61 1 11 56
M  V30 62 1 11 57
M  V30 63 1 13 58
M  V30 64 1 14 59
M  V30 65 1 17 60
M  V30 66 1 21 61
M  V30 67 1 22 62
M  V30 68 1 24 63
M  V30 69 1 26 64
M  V30 70 1 28 65
M  V30 71 1 32 66
M  V30 72 1 33 67
M  V30 73 1 34 68
M  V30 74 1 38 69
M  V30 75 1 41 70
M  V30 76 1 43 71
M  V30 77 1 43 72
M  V30 78 1 44 73
M  V30 79 1 44 74
M  V30 END BOND
M  V30 END CTAB
M  END
>  <Dataset>  (625) 
ChEMBL_Kinases

>  <Ligand_Instance>  (625) 
nan

>  <PDB_ID>  (625) 
nan

>  <Standardized_SMILES>  (625) 
O=C(NCCN1CCOCC1)c1ccc2c(c1)C(=O)c1ccc(Nc3cc(NC(=O)c4cccs4)c(F)cc3F)cc1CC2

>  <Name>  (625) 
nan

>  <Pocket>  (625) 
nan

>  <ATP_Site>  (625) 
nan

>  <Peripheral>  (625) 
nan

>  <Num_H_Atoms_ProtBoundConf>  (625) 
nan

>  <Num_Resolved_Atoms>  (625) 
nan

>  <Num_Not_Resolved_Atoms>  (625) 
nan

$$$$
CHEMBL4863324
     RDKit          3D

  0  0  0  0  0  0  0  0  0  0999 V3000
M  V30 BEGIN CTAB
M  V30 COUNTS 30 32 0 0 0
M  V30 BEGIN ATOM
M  V30 1 N 1.205118 -1.978582 4.874082 0
M  V30 2 S 0.151256 -2.931396 3.896429 0
M  V30 3 O -1.259823 -2.465829 4.101591 0
M  V30 4 O 0.256226 -4.348571 4.437823 0
M  V30 5 C 0.641750 -2.856603 2.219306 0
M  V30 6 C 1.540269 -3.758238 1.680359 0
M  V30 7 C 1.913845 -3.682375 0.356919 0
M  V30 8 C 1.335162 -2.663149 -0.365597 0
M  V30 9 C 0.421128 -1.717954 0.114383 0
M  V30 10 C -0.090170 -0.702717 -0.803627 0
M  V30 11 N -0.532230 -0.869387 -2.060720 0
M  V30 12 N -0.917478 0.287792 -2.578455 0
M  V30 13 C -0.736387 1.276864 -1.654984 0
M  V30 14 C -0.967209 2.654439 -1.661637 0
M  V30 15 C -0.667262 3.388366 -0.533258 0
M  V30 16 F -0.937489 4.723797 -0.664077 0
M  V30 17 C -0.145320 2.784550 0.595823 0
M  V30 18 C 0.074148 1.422474 0.578966 0
M  V30 19 C -0.210939 0.644468 -0.529200 0
M  V30 20 C 0.090850 -1.852786 1.449716 0
M  V30 21 H 1.928116 -1.487333 4.301459 0
M  V30 22 H 0.677383 -1.248621 5.435437 0
M  V30 23 H 1.969324 -4.547371 2.297630 0
M  V30 24 H 2.607146 -4.348597 -0.130837 0
M  V30 25 H 1.614973 -2.581408 -1.417649 0
M  V30 26 H -1.303088 0.459320 -3.534427 0
M  V30 27 H -1.376276 3.068884 -2.572612 0
M  V30 28 H 0.057745 3.444490 1.432078 0
M  V30 29 H 0.484009 0.988419 1.483384 0
M  V30 30 H -0.621903 -1.120086 1.834601 0
M  V30 END ATOM
M  V30 BEGIN BOND
M  V30 1 1 1 2
M  V30 2 2 2 3
M  V30 3 2 2 4
M  V30 4 1 2 5
M  V30 5 2 5 6
M  V30 6 1 6 7
M  V30 7 2 7 8
M  V30 8 1 8 9
M  V30 9 1 9 10
M  V30 10 2 10 11
M  V30 11 1 11 12
M  V30 12 1 12 13
M  V30 13 2 13 14
M  V30 14 1 14 15
M  V30 15 1 15 16
M  V30 16 2 15 17
M  V30 17 1 17 18
M  V30 18 2 18 19
M  V30 19 2 9 20
M  V30 20 1 20 5
M  V30 21 1 19 10
M  V30 22 1 19 13
M  V30 23 1 1 21
M  V30 24 1 1 22
M  V30 25 1 6 23
M  V30 26 1 7 24
M  V30 27 1 8 25
M  V30 28 1 12 26
M  V30 29 1 14 27
M  V30 30 1 17 28
M  V30 31 1 18 29
M  V30 32 1 20 30
M  V30 END BOND
M  V30 END CTAB
M  END
>  <Dataset>  (626) 
ChEMBL_Kinases

>  <Ligand_Instance>  (626) 
nan

>  <PDB_ID>  (626) 
nan

>  <Standardized_SMILES>  (626) 
NS(=O)(=O)c1cccc(-c2n[nH]c3cc(F)ccc23)c1

>  <Name>  (626) 
nan

>  <Pocket>  (626) 
nan

>  <ATP_Site>  (626) 
nan

>  <Peripheral>  (626) 
nan

>  <Num_H_Atoms_ProtBoundConf>  (626) 
nan

>  <Num_Resolved_Atoms>  (626) 
nan

>  <Num_Not_Resolved_Atoms>  (626) 
nan

$$$$
CHEMBL4061122
     RDKit          3D

  0  0  0  0  0  0  0  0  0  0999 V3000
M  V30 BEGIN CTAB
M  V30 COUNTS 34 37 0 0 0
M  V30 BEGIN ATOM
M  V30 1 C 0.076912 -5.873970 0.858618 0
M  V30 2 C 1.389558 -5.282770 1.223771 0
M  V30 3 N 2.469589 -5.996595 1.589032 0
M  V30 4 N 3.460060 -5.168456 1.843915 0
M  V30 5 C 3.100188 -3.883485 1.665651 0
M  V30 6 C 1.792318 -3.996239 1.276116 0
M  V30 7 C 0.965841 -2.830785 0.963169 0
M  V30 8 C 1.128683 -1.430091 0.936746 0
M  V30 9 C 0.017028 -0.734877 0.562933 0
M  V30 10 N -0.023975 0.605488 0.478100 0
M  V30 11 C -1.120832 1.259299 0.110992 0
M  V30 12 C -1.013172 2.733249 0.063877 0
M  V30 13 C 0.150908 3.399777 0.380040 0
M  V30 14 C 0.294796 4.770303 0.349465 0
M  V30 15 C -0.792168 5.534235 -0.020715 0
M  V30 16 C -1.961463 4.876046 -0.338905 0
M  V30 17 C -2.085525 3.503720 -0.302234 0
M  V30 18 N -2.291699 0.684304 -0.212103 0
M  V30 19 C -2.292692 -0.656840 -0.139930 0
M  V30 20 O -3.271403 -1.398587 -0.395888 0
M  V30 21 C -1.216052 -1.320084 0.221574 0
M  V30 22 S -0.830008 -3.098396 0.434425 0
M  V30 23 H -0.072848 -5.629331 -0.231622 0
M  V30 24 H -0.727078 -5.436179 1.484231 0
M  V30 25 H 0.092329 -6.959946 0.959287 0
M  V30 26 H 4.420882 -5.479830 2.151375 0
M  V30 27 H 3.652357 -2.963178 1.782968 0
M  V30 28 H 2.104746 -1.096615 1.213969 0
M  V30 29 H 0.996178 2.782005 0.669194 0
M  V30 30 H 1.253016 5.170025 0.617772 0
M  V30 31 H -0.662897 6.611659 -0.039867 0
M  V30 32 H -2.797594 5.493958 -0.625298 0
M  V30 33 H -3.052693 3.116337 -0.573919 0
M  V30 34 H -3.154897 1.152365 -0.498496 0
M  V30 END ATOM
M  V30 BEGIN BOND
M  V30 1 1 1 2
M  V30 2 2 2 3
M  V30 3 1 3 4
M  V30 4 1 4 5
M  V30 5 2 5 6
M  V30 6 1 6 7
M  V30 7 2 7 8
M  V30 8 1 8 9
M  V30 9 1 9 10
M  V30 10 2 10 11
M  V30 11 1 11 12
M  V30 12 2 12 13
M  V30 13 1 13 14
M  V30 14 2 14 15
M  V30 15 1 15 16
M  V30 16 2 16 17
M  V30 17 1 11 18
M  V30 18 1 18 19
M  V30 19 2 19 20
M  V30 20 1 19 21
M  V30 21 1 21 22
M  V30 22 1 6 2
M  V30 23 1 22 7
M  V30 24 2 21 9
M  V30 25 1 17 12
M  V30 26 1 1 23
M  V30 27 1 1 24
M  V30 28 1 1 25
M  V30 29 1 4 26
M  V30 30 1 5 27
M  V30 31 1 8 28
M  V30 32 1 13 29
M  V30 33 1 14 30
M  V30 34 1 15 31
M  V30 35 1 16 32
M  V30 36 1 17 33
M  V30 37 1 18 34
M  V30 END BOND
M  V30 END CTAB
M  END
>  <Dataset>  (627) 
ChEMBL_Kinases

>  <Ligand_Instance>  (627) 
nan

>  <PDB_ID>  (627) 
nan

>  <Standardized_SMILES>  (627) 
Cc1n[nH]cc1-c1cc2nc(-c3ccccc3)[nH]c(=O)c2s1

>  <Name>  (627) 
nan

>  <Pocket>  (627) 
nan

>  <ATP_Site>  (627) 
nan

>  <Peripheral>  (627) 
nan

>  <Num_H_Atoms_ProtBoundConf>  (627) 
nan

>  <Num_Resolved_Atoms>  (627) 
nan

>  <Num_Not_Resolved_Atoms>  (627) 
nan

$$$$
CHEMBL4061117
     RDKit          3D

  0  0  0  0  0  0  0  0  0  0999 V3000
M  V30 BEGIN CTAB
M  V30 COUNTS 88 92 0 0 0
M  V30 BEGIN ATOM
M  V30 1 C 9.582552 -2.928943 3.763104 0
M  V30 2 N 8.116022 -2.732032 3.895091 0
M  V30 3 C 7.828515 -2.659508 5.320292 0
M  V30 4 C 7.750639 -1.557872 3.157694 0
M  V30 5 C 6.311769 -1.254328 3.032937 0
M  V30 6 C 5.522359 -1.008165 4.274232 0
M  V30 7 N 4.138221 -0.679347 3.842940 0
M  V30 8 C 3.843149 0.447716 3.032931 0
M  V30 9 O 4.675170 1.272345 2.580287 0
M  V30 10 C 2.494741 0.804949 2.608480 0
M  V30 11 C 2.227561 1.561455 1.478884 0
M  V30 12 C 0.922488 1.887844 1.180265 0
M  V30 13 C -0.096863 1.470488 1.987230 0
M  V30 14 C 0.105537 0.721179 3.121487 0
M  V30 15 C 1.432063 0.404280 3.399827 0
M  V30 16 N -1.114199 0.448120 3.804227 0
M  V30 17 C -2.172575 1.069707 3.045594 0
M  V30 18 O -3.338292 0.987650 3.424127 0
M  V30 19 C -1.518956 1.695271 1.918259 0
M  V30 20 C -2.146534 2.280720 0.931299 0
M  V30 21 N -3.578554 2.459541 0.981369 0
M  V30 22 C -4.276662 1.669444 -0.009770 0
M  V30 23 C -4.624821 0.335723 0.238255 0
M  V30 24 C -5.304628 -0.385458 -0.756088 0
M  V30 25 C -5.631976 0.219236 -1.981084 0
M  V30 26 N -6.296838 -0.797245 -2.742829 0
M  V30 27 C -7.716292 -1.174019 -2.829554 0
M  V30 28 C -5.575234 -1.690507 -3.621674 0
M  V30 29 O -5.943497 -2.675593 -4.338706 0
M  V30 30 C -4.122509 -1.416262 -3.714444 0
M  V30 31 N -3.400800 -2.315359 -4.567959 0
M  V30 32 C -2.026664 -1.939338 -4.688108 0
M  V30 33 C -1.282660 -2.366020 -3.452420 0
M  V30 34 N -1.118275 -3.801048 -3.545234 0
M  V30 35 C -0.592845 -4.386252 -2.346954 0
M  V30 36 C -2.250191 -4.463737 -4.110656 0
M  V30 37 C -3.523481 -3.672207 -4.072966 0
M  V30 38 C -5.279081 1.526118 -2.196479 0
M  V30 39 C -4.611783 2.255368 -1.238526 0
M  V30 40 C -1.637029 2.699701 -0.359161 0
M  V30 41 C -1.131786 1.619693 -1.108759 0
M  V30 42 C -0.596357 1.816527 -2.383689 0
M  V30 43 C -0.569261 3.111304 -2.906942 0
M  V30 44 C -1.066694 4.150544 -2.160560 0
M  V30 45 C -1.597784 3.969299 -0.901839 0
M  V30 46 H 9.838816 -2.519872 2.776138 0
M  V30 47 H 9.752353 -4.003170 3.891748 0
M  V30 48 H 10.025879 -2.385354 4.599506 0
M  V30 49 H 8.763882 -2.941656 5.887649 0
M  V30 50 H 7.072867 -3.434606 5.542837 0
M  V30 51 H 7.542842 -1.669740 5.658942 0
M  V30 52 H 8.317447 -0.675394 3.585136 0
M  V30 53 H 8.148271 -1.639601 2.098239 0
M  V30 54 H 5.858364 -2.166786 2.499931 0
M  V30 55 H 6.101946 -0.440749 2.294841 0
M  V30 56 H 5.910244 -0.180990 4.891452 0
M  V30 57 H 5.384678 -1.965993 4.812186 0
M  V30 58 H 3.284064 -1.249023 4.098816 0
M  V30 59 H 3.112895 1.849476 0.887571 0
M  V30 60 H 0.892117 2.497498 0.303645 0
M  V30 61 H 1.572876 -0.194728 4.307944 0
M  V30 62 H -1.200842 -0.100864 4.689579 0
M  V30 63 H -4.116280 3.080769 1.641977 0
M  V30 64 H -4.347163 -0.072115 1.189884 0
M  V30 65 H -5.491990 -1.393918 -0.399194 0
M  V30 66 H -8.104873 -1.080380 -3.862292 0
M  V30 67 H -8.337923 -0.564375 -2.178002 0
M  V30 68 H -7.794758 -2.267748 -2.563488 0
M  V30 69 H -3.673054 -1.403539 -2.708773 0
M  V30 70 H -4.029823 -0.395326 -4.144334 0
M  V30 71 H -1.593830 -2.525280 -5.534018 0
M  V30 72 H -1.954409 -0.844925 -4.869658 0
M  V30 73 H -0.250660 -1.909394 -3.418108 0
M  V30 74 H -1.832278 -2.171778 -2.514660 0
M  V30 75 H -1.135654 -5.284557 -1.987721 0
M  V30 76 H -0.623845 -3.582513 -1.553952 0
M  V30 77 H 0.487740 -4.640873 -2.424401 0
M  V30 78 H -2.425574 -5.376478 -3.498275 0
M  V30 79 H -2.068040 -4.835961 -5.153139 0
M  V30 80 H -4.018654 -3.653778 -3.094812 0
M  V30 81 H -4.225404 -4.198097 -4.779842 0
M  V30 82 H -5.605541 1.817829 -3.174388 0
M  V30 83 H -4.382294 3.260333 -1.496883 0
M  V30 84 H -1.122310 0.576721 -0.755667 0
M  V30 85 H -0.199791 1.011109 -2.985316 0
M  V30 86 H -0.150260 3.237848 -3.894175 0
M  V30 87 H -1.057951 5.175087 -2.548699 0
M  V30 88 H -2.007213 4.740043 -0.257982 0
M  V30 END ATOM
M  V30 BEGIN BOND
M  V30 1 1 1 2
M  V30 2 1 2 3
M  V30 3 1 2 4
M  V30 4 1 4 5
M  V30 5 1 5 6
M  V30 6 1 6 7
M  V30 7 1 7 8
M  V30 8 2 8 9
M  V30 9 1 8 10
M  V30 10 2 10 11
M  V30 11 1 11 12
M  V30 12 2 12 13
M  V30 13 1 13 14
M  V30 14 2 14 15
M  V30 15 1 14 16
M  V30 16 1 16 17
M  V30 17 2 17 18
M  V30 18 1 17 19
M  V30 19 2 19 20
M  V30 20 1 20 21
M  V30 21 1 21 22
M  V30 22 2 22 23
M  V30 23 1 23 24
M  V30 24 2 24 25
M  V30 25 1 25 26
M  V30 26 1 26 27
M  V30 27 1 26 28
M  V30 28 2 28 29
M  V30 29 1 28 30
M  V30 30 1 30 31
M  V30 31 1 31 32
M  V30 32 1 32 33
M  V30 33 1 33 34
M  V30 34 1 34 35
M  V30 35 1 34 36
M  V30 36 1 36 37
M  V30 37 1 25 38
M  V30 38 2 38 39
M  V30 39 1 20 40
M  V30 40 2 40 41
M  V30 41 1 41 42
M  V30 42 2 42 43
M  V30 43 1 43 44
M  V30 44 2 44 45
M  V30 45 1 15 10
M  V30 46 1 39 22
M  V30 47 1 45 40
M  V30 48 1 19 13
M  V30 49 1 37 31
M  V30 50 1 1 46
M  V30 51 1 1 47
M  V30 52 1 1 48
M  V30 53 1 3 49
M  V30 54 1 3 50
M  V30 55 1 3 51
M  V30 56 1 4 52
M  V30 57 1 4 53
M  V30 58 1 5 54
M  V30 59 1 5 55
M  V30 60 1 6 56
M  V30 61 1 6 57
M  V30 62 1 7 58
M  V30 63 1 11 59
M  V30 64 1 12 60
M  V30 65 1 15 61
M  V30 66 1 16 62
M  V30 67 1 21 63
M  V30 68 1 23 64
M  V30 69 1 24 65
M  V30 70 1 27 66
M  V30 71 1 27 67
M  V30 72 1 27 68
M  V30 73 1 30 69
M  V30 74 1 30 70
M  V30 75 1 32 71
M  V30 76 1 32 72
M  V30 77 1 33 73
M  V30 78 1 33 74
M  V30 79 1 35 75
M  V30 80 1 35 76
M  V30 81 1 35 77
M  V30 82 1 36 78
M  V30 83 1 36 79
M  V30 84 1 37 80
M  V30 85 1 37 81
M  V30 86 1 38 82
M  V30 87 1 39 83
M  V30 88 1 41 84
M  V30 89 1 42 85
M  V30 90 1 43 86
M  V30 91 1 44 87
M  V30 92 1 45 88
M  V30 END BOND
M  V30 END CTAB
M  END
>  <Dataset>  (628) 
ChEMBL_Kinases

>  <Ligand_Instance>  (628) 
nan

>  <PDB_ID>  (628) 
nan

>  <Standardized_SMILES>  (628) 
CN(C)CCCNC(=O)c1ccc2c(c1)NC(=O)/C2=C(\Nc1ccc(N(C)C(=O)CN2CCN(C)CC2)cc1)c1ccccc1

>  <Name>  (628) 
nan

>  <Pocket>  (628) 
nan

>  <ATP_Site>  (628) 
nan

>  <Peripheral>  (628) 
nan

>  <Num_H_Atoms_ProtBoundConf>  (628) 
nan

>  <Num_Resolved_Atoms>  (628) 
nan

>  <Num_Not_Resolved_Atoms>  (628) 
nan

$$$$
CHEMBL4061107
     RDKit          3D

  0  0  0  0  0  0  0  0  0  0999 V3000
M  V30 BEGIN CTAB
M  V30 COUNTS 65 69 0 0 0
M  V30 BEGIN ATOM
M  V30 1 O 3.187807 1.668940 6.602760 0
M  V30 2 C 3.606415 0.957238 5.681234 0
M  V30 3 N 4.794374 0.192878 5.738962 0
M  V30 4 C 5.720108 0.080061 6.811396 0
M  V30 5 C 6.752150 1.024767 6.769901 0
M  V30 6 C 7.742968 1.039023 7.758369 0
M  V30 7 C 7.660603 0.092071 8.765643 0
M  V30 8 Cl 8.907300 0.102198 10.017054 0
M  V30 9 C 6.647882 -0.845912 8.819104 0
M  V30 10 C 5.663693 -0.865440 7.843453 0
M  V30 11 N 3.000971 0.773053 4.430034 0
M  V30 12 C 1.830867 1.251506 3.790268 0
M  V30 13 C 1.812439 2.404073 3.029455 0
M  V30 14 C 0.692162 2.906745 2.384726 0
M  V30 15 C -0.467026 2.177544 2.536649 0
M  V30 16 C -0.553980 1.020339 3.270740 0
M  V30 17 C -1.787138 0.203870 3.451043 0
M  V30 18 N -1.919417 -0.828665 2.479116 0
M  V30 19 C -1.990980 -0.447446 1.086062 0
M  V30 20 N -1.986918 0.436400 0.342458 0
M  V30 21 C -2.074031 0.460493 -0.964236 0
M  V30 22 C -2.065094 1.551732 -1.840099 0
M  V30 23 C -2.172384 1.291168 -3.191112 0
M  V30 24 C -2.291089 0.025017 -3.782732 0
M  V30 25 O -2.374492 0.070660 -5.083924 0
M  V30 26 C -2.504360 -0.634641 -6.220326 0
M  V30 27 C -3.767528 -1.434747 -6.394640 0
M  V30 28 N -3.979697 -2.456529 -5.408681 0
M  V30 29 C -2.945404 -3.473650 -5.666843 0
M  V30 30 C -3.255586 -4.673513 -4.802370 0
M  V30 31 O -4.481503 -5.207950 -5.169627 0
M  V30 32 C -5.465699 -4.274997 -4.821197 0
M  V30 33 C -5.259683 -3.082698 -5.740649 0
M  V30 34 C -2.299657 -1.041812 -2.931270 0
M  V30 35 C -2.192495 -0.798134 -1.563722 0
M  V30 36 S -2.163237 -1.906223 -0.122069 0
M  V30 37 C 0.604767 0.583880 3.883020 0
M  V30 38 H 5.244812 -0.435717 5.040505 0
M  V30 39 H 6.830771 1.769373 5.991697 0
M  V30 40 H 8.549150 1.772026 7.731186 0
M  V30 41 H 6.576092 -1.591974 9.605040 0
M  V30 42 H 4.827450 -1.560116 7.796033 0
M  V30 43 H 3.286862 0.198209 3.610415 0
M  V30 44 H 2.770949 2.923610 2.958704 0
M  V30 45 H 0.715152 3.809232 1.799639 0
M  V30 46 H -1.357816 2.538925 2.052903 0
M  V30 47 H -2.683649 0.878214 3.354917 0
M  V30 48 H -1.741175 -0.214889 4.472244 0
M  V30 49 H -1.959259 -1.823300 2.812812 0
M  V30 50 H -1.975474 2.584099 -1.464030 0
M  V30 51 H -2.155170 2.220924 -3.792880 0
M  V30 52 H -2.522785 0.097828 -7.101429 0
M  V30 53 H -1.598935 -1.288949 -6.449919 0
M  V30 54 H -3.837932 -1.841719 -7.429678 0
M  V30 55 H -4.602861 -0.669757 -6.351581 0
M  V30 56 H -3.039807 -3.713212 -6.743589 0
M  V30 57 H -1.949025 -3.082937 -5.462889 0
M  V30 58 H -3.319891 -4.336598 -3.745717 0
M  V30 59 H -2.477727 -5.439140 -4.927128 0
M  V30 60 H -6.488030 -4.657833 -4.951997 0
M  V30 61 H -5.325320 -3.919093 -3.788118 0
M  V30 62 H -5.176266 -3.407250 -6.803193 0
M  V30 63 H -6.095425 -2.387324 -5.614847 0
M  V30 64 H -2.374550 -2.041961 -3.254847 0
M  V30 65 H 0.571687 -0.329779 4.472590 0
M  V30 END ATOM
M  V30 BEGIN BOND
M  V30 1 2 1 2
M  V30 2 1 2 3
M  V30 3 1 3 4
M  V30 4 2 4 5
M  V30 5 1 5 6
M  V30 6 2 6 7
M  V30 7 1 7 8
M  V30 8 1 7 9
M  V30 9 2 9 10
M  V30 10 1 2 11
M  V30 11 1 11 12
M  V30 12 2 12 13
M  V30 13 1 13 14
M  V30 14 2 14 15
M  V30 15 1 15 16
M  V30 16 1 16 17
M  V30 17 1 17 18
M  V30 18 1 18 19
M  V30 19 2 19 20
M  V30 20 1 20 21
M  V30 21 2 21 22
M  V30 22 1 22 23
M  V30 23 2 23 24
M  V30 24 1 24 25
M  V30 25 1 25 26
M  V30 26 1 26 27
M  V30 27 1 27 28
M  V30 28 1 28 29
M  V30 29 1 29 30
M  V30 30 1 30 31
M  V30 31 1 31 32
M  V30 32 1 32 33
M  V30 33 1 24 34
M  V30 34 2 34 35
M  V30 35 1 35 36
M  V30 36 2 16 37
M  V30 37 1 10 4
M  V30 38 1 37 12
M  V30 39 1 36 19
M  V30 40 1 35 21
M  V30 41 1 33 28
M  V30 42 1 3 38
M  V30 43 1 5 39
M  V30 44 1 6 40
M  V30 45 1 9 41
M  V30 46 1 10 42
M  V30 47 1 11 43
M  V30 48 1 13 44
M  V30 49 1 14 45
M  V30 50 1 15 46
M  V30 51 1 17 47
M  V30 52 1 17 48
M  V30 53 1 18 49
M  V30 54 1 22 50
M  V30 55 1 23 51
M  V30 56 1 26 52
M  V30 57 1 26 53
M  V30 58 1 27 54
M  V30 59 1 27 55
M  V30 60 1 29 56
M  V30 61 1 29 57
M  V30 62 1 30 58
M  V30 63 1 30 59
M  V30 64 1 32 60
M  V30 65 1 32 61
M  V30 66 1 33 62
M  V30 67 1 33 63
M  V30 68 1 34 64
M  V30 69 1 37 65
M  V30 END BOND
M  V30 END CTAB
M  END
>  <Dataset>  (629) 
ChEMBL_Kinases

>  <Ligand_Instance>  (629) 
nan

>  <PDB_ID>  (629) 
nan

>  <Standardized_SMILES>  (629) 
O=C(Nc1ccc(Cl)cc1)Nc1cccc(CNc2nc3ccc(OCCN4CCOCC4)cc3s2)c1

>  <Name>  (629) 
nan

>  <Pocket>  (629) 
nan

>  <ATP_Site>  (629) 
nan

>  <Peripheral>  (629) 
nan

>  <Num_H_Atoms_ProtBoundConf>  (629) 
nan

>  <Num_Resolved_Atoms>  (629) 
nan

>  <Num_Not_Resolved_Atoms>  (629) 
nan

$$$$
CHEMBL4061051
     RDKit          3D

  0  0  0  0  0  0  0  0  0  0999 V3000
M  V30 BEGIN CTAB
M  V30 COUNTS 51 54 0 0 0
M  V30 BEGIN ATOM
M  V30 1 C 1.644948 -6.310472 -0.881604 0
M  V30 2 O 2.175401 -5.751577 0.302254 0
M  V30 3 C 3.499212 -5.364137 0.119465 0
M  V30 4 C 4.069170 -4.757249 1.402504 0
M  V30 5 N 3.240970 -3.606244 1.711665 0
M  V30 6 C 2.084217 -3.822932 2.555318 0
M  V30 7 C 0.845604 -3.121840 2.094074 0
M  V30 8 C 1.120910 -1.748763 1.592981 0
M  V30 9 C 2.385902 -1.368603 1.184566 0
M  V30 10 C 2.383522 -0.048997 0.763043 0
M  V30 11 C 1.055394 0.353239 0.935811 0
M  V30 12 C 0.511126 1.673881 0.640381 0
M  V30 13 C 1.331252 2.676680 0.143629 0
M  V30 14 C 0.814638 3.947055 -0.135954 0
M  V30 15 N -0.500315 4.190339 0.083805 0
M  V30 16 C -1.308865 3.207400 0.571529 0
M  V30 17 N -2.687531 3.378264 0.831406 0
M  V30 18 C -3.680103 3.167755 -0.163549 0
M  V30 19 C -3.387975 2.780545 -1.476139 0
M  V30 20 C -4.650493 2.700912 -2.072105 0
M  V30 21 N -5.595221 3.020072 -1.163506 0
M  V30 22 N -5.002502 3.304617 0.000318 0
M  V30 23 C -5.704276 3.694460 1.225160 0
M  V30 24 N -0.764039 2.010243 0.821889 0
M  V30 25 N 0.338091 -0.674912 1.427198 0
M  V30 26 C -1.084210 -0.619736 1.732847 0
M  V30 27 C 3.517641 -2.297490 1.227654 0
M  V30 28 O 4.684501 -2.033359 0.878769 0
M  V30 29 H 0.591029 -6.627411 -0.764303 0
M  V30 30 H 2.208996 -7.249398 -1.089903 0
M  V30 31 H 1.823748 -5.658953 -1.747117 0
M  V30 32 H 4.058662 -6.291102 -0.149994 0
M  V30 33 H 3.515190 -4.635535 -0.715521 0
M  V30 34 H 5.110942 -4.419519 1.248479 0
M  V30 35 H 3.979445 -5.529566 2.193495 0
M  V30 36 H 2.387071 -3.465785 3.570273 0
M  V30 37 H 1.864846 -4.901057 2.678872 0
M  V30 38 H 0.257788 -3.739602 1.372618 0
M  V30 39 H 0.175103 -3.055865 2.995020 0
M  V30 40 H 3.217574 0.524242 0.389749 0
M  V30 41 H 2.400457 2.515801 -0.046724 0
M  V30 42 H 1.446457 4.734965 -0.523374 0
M  V30 43 H -2.961033 3.669544 1.795089 0
M  V30 44 H -2.403902 2.597157 -1.890315 0
M  V30 45 H -4.703958 2.409674 -3.126517 0
M  V30 46 H -5.456768 4.733581 1.515056 0
M  V30 47 H -6.785427 3.634495 1.093714 0
M  V30 48 H -5.402303 2.939008 1.989757 0
M  V30 49 H -1.416241 -1.580299 2.178895 0
M  V30 50 H -1.723735 -0.452632 0.858587 0
M  V30 51 H -1.273208 0.142397 2.545416 0
M  V30 END ATOM
M  V30 BEGIN BOND
M  V30 1 1 1 2
M  V30 2 1 2 3
M  V30 3 1 3 4
M  V30 4 1 4 5
M  V30 5 1 5 6
M  V30 6 1 6 7
M  V30 7 1 7 8
M  V30 8 2 8 9
M  V30 9 1 9 10
M  V30 10 2 10 11
M  V30 11 1 11 12
M  V30 12 2 12 13
M  V30 13 1 13 14
M  V30 14 2 14 15
M  V30 15 1 15 16
M  V30 16 1 16 17
M  V30 17 1 17 18
M  V30 18 2 18 19
M  V30 19 1 19 20
M  V30 20 2 20 21
M  V30 21 1 21 22
M  V30 22 1 22 23
M  V30 23 2 16 24
M  V30 24 1 11 25
M  V30 25 1 25 26
M  V30 26 1 9 27
M  V30 27 2 27 28
M  V30 28 1 27 5
M  V30 29 1 25 8
M  V30 30 1 24 12
M  V30 31 1 22 18
M  V30 32 1 1 29
M  V30 33 1 1 30
M  V30 34 1 1 31
M  V30 35 1 3 32
M  V30 36 1 3 33
M  V30 37 1 4 34
M  V30 38 1 4 35
M  V30 39 1 6 36
M  V30 40 1 6 37
M  V30 41 1 7 38
M  V30 42 1 7 39
M  V30 43 1 10 40
M  V30 44 1 13 41
M  V30 45 1 14 42
M  V30 46 1 17 43
M  V30 47 1 19 44
M  V30 48 1 20 45
M  V30 49 1 23 46
M  V30 50 1 23 47
M  V30 51 1 23 48
M  V30 52 1 26 49
M  V30 53 1 26 50
M  V30 54 1 26 51
M  V30 END BOND
M  V30 END CTAB
M  END
>  <Dataset>  (630) 
ChEMBL_Kinases

>  <Ligand_Instance>  (630) 
nan

>  <PDB_ID>  (630) 
nan

>  <Standardized_SMILES>  (630) 
COCCN1CCc2c(cc(-c3ccnc(Nc4ccnn4C)n3)n2C)C1=O

>  <Name>  (630) 
nan

>  <Pocket>  (630) 
nan

>  <ATP_Site>  (630) 
nan

>  <Peripheral>  (630) 
nan

>  <Num_H_Atoms_ProtBoundConf>  (630) 
nan

>  <Num_Resolved_Atoms>  (630) 
nan

>  <Num_Not_Resolved_Atoms>  (630) 
nan

$$$$
CHEMBL4061407
     RDKit          3D

  0  0  0  0  0  0  0  0  0  0999 V3000
M  V30 BEGIN CTAB
M  V30 COUNTS 138 139 0 0 0
M  V30 BEGIN ATOM
M  V30 1 N 1.885929 -0.241950 -7.907602 0
M  V30 2 C 2.815428 -0.202523 -6.793619 0
M  V30 3 C 3.944406 0.740038 -7.088422 0
M  V30 4 C 4.927029 0.738511 -5.921180 0
M  V30 5 C 4.319355 1.169553 -4.632119 0
M  V30 6 C 5.377577 1.057437 -3.524728 0 CFG=2
M  V30 7 N 4.851954 1.461737 -2.233723 0
M  V30 8 C 4.311467 0.436187 -1.436160 0
M  V30 9 O 4.232735 -0.780570 -1.784930 0
M  V30 10 C 3.691888 0.138630 -0.130595 0 CFG=2
M  V30 11 C 4.877996 0.101055 0.866216 0
M  V30 12 C 4.395862 -0.201251 2.222468 0
M  V30 13 O 4.276852 -1.429739 2.559272 0
M  V30 14 O 4.023147 0.610430 3.273087 0
M  V30 15 N 3.059392 -1.138695 -0.095651 0
M  V30 16 C 1.914651 -1.334688 0.760303 0
M  V30 17 O 1.730286 -0.230754 1.395270 0
M  V30 18 C 1.139791 -2.642287 0.824431 0 CFG=2
M  V30 19 C 1.286739 -3.308965 2.141638 0
M  V30 20 C 0.571338 -4.611433 2.264108 0
M  V30 21 O 0.790257 -5.109765 3.416965 0
M  V30 22 O -0.233173 -5.299900 1.364949 0
M  V30 23 N 1.587652 -3.471012 -0.270008 0
M  V30 24 C 0.793480 -3.520964 -1.446291 0
M  V30 25 O -0.299852 -2.847056 -1.526167 0
M  V30 26 C 0.572091 -4.029439 -2.806232 0 CFG=2
M  V30 27 C 1.679471 -3.756962 -3.785581 0
M  V30 28 C 2.971479 -4.341897 -3.460094 0
M  V30 29 O 3.559747 -5.099736 -2.627327 0
M  V30 30 O 4.310310 -4.550226 -3.671023 0
M  V30 31 N -0.596877 -3.334247 -3.366652 0
M  V30 32 C -1.793793 -3.869849 -3.936382 0
M  V30 33 O -1.638866 -5.088024 -3.852595 0
M  V30 34 C -2.874068 -3.070873 -4.465982 0 CFG=2
M  V30 35 C -2.686727 -3.118769 -6.032748 0
M  V30 36 C -2.821458 -4.563201 -6.390199 0
M  V30 37 O -2.961151 -5.754613 -5.948090 0
M  V30 38 O -2.852708 -5.227047 -7.590171 0
M  V30 39 N -2.835127 -1.661719 -4.153023 0
M  V30 40 C -3.907607 -0.848980 -4.570983 0
M  V30 41 O -4.907572 -1.298208 -5.234009 0
M  V30 42 C -4.058166 0.608984 -4.336985 0 CFG=2
M  V30 43 C -3.433792 1.312889 -5.559988 0
M  V30 44 C -3.496189 2.784154 -5.481601 0
M  V30 45 O -3.829986 3.846206 -4.889581 0
M  V30 46 O -3.164242 3.930371 -6.127203 0
M  V30 47 N -3.321315 0.957755 -3.148255 0
M  V30 48 C -3.886017 1.903278 -2.195503 0
M  V30 49 O -5.019795 2.339255 -2.599109 0
M  V30 50 C -3.280405 2.346393 -0.915890 0 CFG=2
M  V30 51 C -2.426582 3.559086 -1.239905 0
M  V30 52 C -3.315685 4.610943 -1.789688 0
M  V30 53 O -4.557873 4.789652 -2.013207 0
M  V30 54 O -3.303194 5.878148 -2.322986 0
M  V30 55 N -2.499351 1.241311 -0.431262 0
M  V30 56 C -2.510562 1.069973 1.027032 0
M  V30 57 O -3.190796 1.997962 1.559355 0
M  V30 58 C -1.765797 -0.096404 1.547308 0
M  V30 59 C -1.406046 -0.004668 2.969641 0
M  V30 60 C -2.488480 0.196585 3.972625 0
M  V30 61 C -1.786888 0.163722 5.344487 0
M  V30 62 C -2.714655 0.412962 6.489760 0
M  V30 63 C -1.890381 0.255974 7.767306 0
M  V30 64 C -2.657868 0.517434 9.018593 0
M  V30 65 N -1.879797 0.302313 10.217636 0
M  V30 66 C -1.963640 -0.952148 10.756004 0
M  V30 67 N -1.230551 -1.087700 11.877337 0
M  V30 68 C -0.627375 0.114588 12.111074 0
M  V30 69 C 0.217978 0.694797 13.011264 0
M  V30 70 Br 0.825028 -0.397065 14.467193 0
M  V30 71 C 0.649753 1.994347 12.940609 0
M  V30 72 Br 1.834721 2.690930 14.264267 0
M  V30 73 C 0.186307 2.752154 11.876608 0
M  V30 74 Br 0.808869 4.574817 11.798467 0
M  V30 75 C -0.685822 2.234666 10.902550 0
M  V30 76 Br -1.236395 3.373409 9.486900 0
M  V30 77 C -1.058377 0.912884 11.073127 0
M  V30 78 C 6.537440 1.874511 -3.870022 0
M  V30 79 O 7.374855 1.898300 -4.804162 0
M  V30 80 O 6.905990 2.927012 -3.021973 0
M  V30 81 H 1.019784 -0.750633 -7.609032 0
M  V30 82 H 2.335862 -0.664524 -8.749642 0
M  V30 83 H 3.215287 -1.196446 -6.606377 0
M  V30 84 H 2.248863 0.217647 -5.930139 0
M  V30 85 H 4.473625 0.391423 -8.002744 0
M  V30 86 H 3.604755 1.771761 -7.283344 0
M  V30 87 H 5.454378 -0.238004 -5.860543 0
M  V30 88 H 5.723818 1.470019 -6.249978 0
M  V30 89 H 3.936093 2.194250 -4.744985 0
M  V30 90 H 3.439889 0.540328 -4.358821 0
M  V30 91 H 5.688065 -0.021399 -3.448049 0
M  V30 92 H 4.722092 2.303124 -1.638688 0
M  V30 93 H 3.071485 0.969832 0.190052 0
M  V30 94 H 5.346349 1.120310 0.779104 0
M  V30 95 H 5.557061 -0.692209 0.490768 0
M  V30 96 H 3.106868 0.521300 3.712278 0
M  V30 97 H 3.348885 -1.999354 -0.646919 0
M  V30 98 H 0.071701 -2.385334 0.642191 0
M  V30 99 H 2.382018 -3.419426 2.371595 0
M  V30 100 H 0.907001 -2.646343 2.968533 0
M  V30 101 H -0.108550 -6.313455 1.272503 0
M  V30 102 H 2.334248 -4.097823 -0.534317 0
M  V30 103 H 0.348991 -5.124341 -2.737511 0
M  V30 104 H 1.727617 -2.673104 -3.951616 0
M  V30 105 H 1.343181 -4.211983 -4.766658 0
M  V30 106 H 4.944142 -3.918579 -4.116586 0
M  V30 107 H -0.427309 -2.284489 -3.300533 0
M  V30 108 H -3.900803 -3.456714 -4.332169 0
M  V30 109 H -1.672542 -2.738787 -6.219459 0
M  V30 110 H -3.508833 -2.597017 -6.501717 0
M  V30 111 H -2.104119 -5.527305 -8.167128 0
M  V30 112 H -2.056153 -1.208475 -3.636032 0
M  V30 113 H -5.089762 0.951651 -4.290406 0
M  V30 114 H -2.375802 0.992404 -5.670072 0
M  V30 115 H -3.968365 1.013153 -6.484535 0
M  V30 116 H -2.491788 4.176026 -6.815881 0
M  V30 117 H -2.385357 0.588472 -2.895789 0
M  V30 118 H -4.084264 2.680942 -0.247914 0
M  V30 119 H -1.691109 3.324140 -2.051887 0
M  V30 120 H -1.821566 3.904764 -0.382692 0
M  V30 121 H -3.124560 6.746025 -1.828219 0
M  V30 122 H -1.930370 0.553976 -0.968938 0
M  V30 123 H -0.853170 -0.180552 0.923100 0
M  V30 124 H -2.368846 -1.045465 1.334991 0
M  V30 125 H -0.590631 0.771007 3.072982 0
M  V30 126 H -0.857831 -0.959518 3.240009 0
M  V30 127 H -3.112519 1.078652 3.837815 0
M  V30 128 H -3.177768 -0.690090 3.972588 0
M  V30 129 H -1.350199 -0.870088 5.494051 0
M  V30 130 H -0.906902 0.831009 5.330030 0
M  V30 131 H -3.534868 -0.335080 6.522553 0
M  V30 132 H -3.207759 1.401163 6.466339 0
M  V30 133 H -1.511464 -0.811655 7.723981 0
M  V30 134 H -0.993064 0.887430 7.689045 0
M  V30 135 H -3.603169 -0.074235 9.072697 0
M  V30 136 H -2.989470 1.599307 8.974374 0
M  V30 137 H -2.458945 -1.913807 10.556202 0
M  V30 138 H 7.833976 3.301599 -2.935922 0
M  V30 END ATOM
M  V30 BEGIN BOND
M  V30 1 1 1 2
M  V30 2 1 2 3
M  V30 3 1 3 4
M  V30 4 1 4 5
M  V30 5 1 5 6
M  V30 6 1 6 7
M  V30 7 1 7 8
M  V30 8 2 8 9
M  V30 9 1 8 10
M  V30 10 1 10 11
M  V30 11 1 11 12
M  V30 12 2 12 13
M  V30 13 1 12 14
M  V30 14 1 10 15
M  V30 15 1 15 16
M  V30 16 2 16 17
M  V30 17 1 16 18
M  V30 18 1 18 19
M  V30 19 1 19 20
M  V30 20 2 20 21
M  V30 21 1 20 22
M  V30 22 1 18 23
M  V30 23 1 23 24
M  V30 24 2 24 25
M  V30 25 1 24 26
M  V30 26 1 26 27
M  V30 27 1 27 28
M  V30 28 2 28 29
M  V30 29 1 28 30
M  V30 30 1 26 31
M  V30 31 1 31 32
M  V30 32 2 32 33
M  V30 33 1 32 34
M  V30 34 1 34 35
M  V30 35 1 35 36
M  V30 36 2 36 37
M  V30 37 1 36 38
M  V30 38 1 34 39
M  V30 39 1 39 40
M  V30 40 2 40 41
M  V30 41 1 40 42
M  V30 42 1 42 43
M  V30 43 1 43 44
M  V30 44 2 44 45
M  V30 45 1 44 46
M  V30 46 1 42 47
M  V30 47 1 47 48
M  V30 48 2 48 49
M  V30 49 1 48 50
M  V30 50 1 50 51
M  V30 51 1 51 52
M  V30 52 2 52 53
M  V30 53 1 52 54
M  V30 54 1 50 55
M  V30 55 1 55 56
M  V30 56 2 56 57
M  V30 57 1 56 58
M  V30 58 1 58 59
M  V30 59 1 59 60
M  V30 60 1 60 61
M  V30 61 1 61 62
M  V30 62 1 62 63
M  V30 63 1 63 64
M  V30 64 1 64 65
M  V30 65 1 65 66
M  V30 66 2 66 67
M  V30 67 1 67 68
M  V30 68 2 68 69
M  V30 69 1 69 70
M  V30 70 1 69 71
M  V30 71 1 71 72
M  V30 72 2 71 73
M  V30 73 1 73 74
M  V30 74 1 73 75
M  V30 75 1 75 76
M  V30 76 2 75 77
M  V30 77 1 6 78
M  V30 78 2 78 79
M  V30 79 1 78 80
M  V30 80 1 77 65
M  V30 81 1 77 68
M  V30 82 1 1 81
M  V30 83 1 1 82
M  V30 84 1 2 83
M  V30 85 1 2 84
M  V30 86 1 3 85
M  V30 87 1 3 86
M  V30 88 1 4 87
M  V30 89 1 4 88
M  V30 90 1 5 89
M  V30 91 1 5 90
M  V30 92 1 6 91 CFG=1
M  V30 93 1 7 92
M  V30 94 1 10 93 CFG=1
M  V30 95 1 11 94
M  V30 96 1 11 95
M  V30 97 1 14 96
M  V30 98 1 15 97
M  V30 99 1 18 98 CFG=3
M  V30 100 1 19 99
M  V30 101 1 19 100
M  V30 102 1 22 101
M  V30 103 1 23 102
M  V30 104 1 26 103 CFG=1
M  V30 105 1 27 104
M  V30 106 1 27 105
M  V30 107 1 30 106
M  V30 108 1 31 107
M  V30 109 1 34 108 CFG=3
M  V30 110 1 35 109
M  V30 111 1 35 110
M  V30 112 1 38 111
M  V30 113 1 39 112
M  V30 114 1 42 113 CFG=1
M  V30 115 1 43 114
M  V30 116 1 43 115
M  V30 117 1 46 116
M  V30 118 1 47 117
M  V30 119 1 50 118 CFG=1
M  V30 120 1 51 119
M  V30 121 1 51 120
M  V30 122 1 54 121
M  V30 123 1 55 122
M  V30 124 1 58 123
M  V30 125 1 58 124
M  V30 126 1 59 125
M  V30 127 1 59 126
M  V30 128 1 60 127
M  V30 129 1 60 128
M  V30 130 1 61 129
M  V30 131 1 61 130
M  V30 132 1 62 131
M  V30 133 1 62 132
M  V30 134 1 63 133
M  V30 135 1 63 134
M  V30 136 1 64 135
M  V30 137 1 64 136
M  V30 138 1 66 137
M  V30 139 1 80 138
M  V30 END BOND
M  V30 END CTAB
M  END
>  <Dataset>  (631) 
ChEMBL_Kinases

>  <Ligand_Instance>  (631) 
nan

>  <PDB_ID>  (631) 
nan

>  <Standardized_SMILES>  (631) 
NCCCC[C@H](NC(=O)[C@H](CC(=O)O)NC(=O)[C@H](CC(=O)O)NC(=O)[C@H](CC(=O)O)NC(=O)[C@H](CC(=O)O)NC(=O)[C@H](CC(=O)O)NC(=O)[C@H](CC(=O)O)NC(=O)CCCCCCCn1cnc2c(Br)c(Br)c(Br)c(Br)c21)C(=O)O

>  <Name>  (631) 
nan

>  <Pocket>  (631) 
nan

>  <ATP_Site>  (631) 
nan

>  <Peripheral>  (631) 
nan

>  <Num_H_Atoms_ProtBoundConf>  (631) 
nan

>  <Num_Resolved_Atoms>  (631) 
nan

>  <Num_Not_Resolved_Atoms>  (631) 
nan

$$$$
CHEMBL989
     RDKit          3D

  0  0  0  0  0  0  0  0  0  0999 V3000
M  V30 BEGIN CTAB
M  V30 COUNTS 62 66 0 0 0
M  V30 BEGIN ATOM
M  V30 1 C -0.144212 -1.892341 -4.730587 0
M  V30 2 C -0.041889 -1.969850 -3.209344 0
M  V30 3 C -1.312409 -2.662807 -2.723979 0
M  V30 4 O 1.090903 -2.636907 -2.820371 0
M  V30 5 C 1.987141 -1.720883 -2.271007 0 CFG=2
M  V30 6 C 2.102281 -2.061173 -0.798660 0
M  V30 7 C 1.103473 -1.186451 -0.187870 0 CFG=1
M  V30 8 C 1.218428 -0.893228 1.277905 0 CFG=2
M  V30 9 C 1.570294 -2.079260 2.079110 0
M  V30 10 C 0.808514 -2.356986 3.313198 0 CFG=2
M  V30 11 F 0.363092 -3.687611 3.234752 0
M  V30 12 C -0.275556 -1.443546 3.665423 0
M  V30 13 C -1.232182 -1.911176 4.449753 0
M  V30 14 C -2.308734 -0.992188 4.796393 0
M  V30 15 O -3.227012 -1.413375 5.538810 0
M  V30 16 C -2.313556 0.375928 4.292351 0
M  V30 17 C -1.321089 0.770815 3.511510 0
M  V30 18 C -0.171105 -0.059610 3.083177 0 CFG=1
M  V30 19 C 1.084550 0.554821 3.658823 0
M  V30 20 C -0.123274 -0.267832 1.603912 0 CFG=2
M  V30 21 F -1.042752 -1.293277 1.321597 0
M  V30 22 C -0.463047 0.898954 0.776006 0 CFG=1
M  V30 23 O 0.014323 2.060618 1.428078 0
M  V30 24 C 0.029887 0.938888 -0.613946 0
M  V30 25 C 1.248403 0.122053 -0.906747 0 CFG=1
M  V30 26 C 2.482179 0.893781 -0.588391 0
M  V30 27 C 1.279775 -0.385838 -2.343265 0 CFG=1
M  V30 28 C 1.898445 0.558755 -3.271035 0
M  V30 29 O 1.008184 0.781339 -4.073676 0
M  V30 30 C 2.525970 1.517444 -4.212864 0
M  V30 31 O 1.636546 1.891027 -5.216845 0
M  V30 32 O -0.036430 -0.697752 -2.664417 0
M  V30 33 H -0.796332 -1.048378 -5.046479 0
M  V30 34 H -0.611646 -2.808597 -5.158776 0
M  V30 35 H 0.841710 -1.809245 -5.221426 0
M  V30 36 H -1.956425 -2.996283 -3.567084 0
M  V30 37 H -1.959729 -1.963463 -2.126973 0
M  V30 38 H -1.089330 -3.574151 -2.124553 0
M  V30 39 H 2.964311 -1.739618 -2.787192 0
M  V30 40 H 3.132923 -1.972180 -0.417154 0
M  V30 41 H 1.814645 -3.140829 -0.627760 0
M  V30 42 H 0.092154 -1.575406 -0.432693 0
M  V30 43 H 2.020962 -0.104636 1.385328 0
M  V30 44 H 2.664784 -2.004997 2.359092 0
M  V30 45 H 1.572844 -2.961985 1.370343 0
M  V30 46 H 1.481315 -2.388302 4.224517 0
M  V30 47 H -1.196727 -2.930815 4.805265 0
M  V30 48 H -3.140613 0.980964 4.596900 0
M  V30 49 H -1.441595 1.800076 3.209429 0
M  V30 50 H 0.787856 1.185503 4.521465 0
M  V30 51 H 1.766752 -0.218139 4.077903 0
M  V30 52 H 1.576481 1.183557 2.900881 0
M  V30 53 H -1.560453 1.065413 0.744213 0
M  V30 54 H -0.540457 2.834311 1.237058 0
M  V30 55 H 0.201807 1.992018 -0.927725 0
M  V30 56 H -0.756081 0.562327 -1.319993 0
M  V30 57 H 3.306321 0.320336 -0.128540 0
M  V30 58 H 2.823096 1.417241 -1.525979 0
M  V30 59 H 2.234854 1.724785 0.103754 0
M  V30 60 H 2.796136 2.453812 -3.685965 0
M  V30 61 H 3.452161 1.110007 -4.668467 0
M  V30 62 H 1.957626 1.561210 -6.093063 0
M  V30 END ATOM
M  V30 BEGIN BOND
M  V30 1 1 1 2
M  V30 2 1 2 3
M  V30 3 1 2 4
M  V30 4 1 4 5
M  V30 5 1 5 6
M  V30 6 1 6 7
M  V30 7 1 7 8
M  V30 8 1 8 9
M  V30 9 1 9 10
M  V30 10 1 10 11
M  V30 11 1 10 12
M  V30 12 2 12 13
M  V30 13 1 13 14
M  V30 14 2 14 15
M  V30 15 1 14 16
M  V30 16 2 16 17
M  V30 17 1 17 18
M  V30 18 1 18 19 CFG=1
M  V30 19 1 18 20
M  V30 20 1 20 21 CFG=1
M  V30 21 1 20 22
M  V30 22 1 22 23
M  V30 23 1 22 24
M  V30 24 1 24 25
M  V30 25 1 25 26 CFG=1
M  V30 26 1 25 27
M  V30 27 1 27 28 CFG=3
M  V30 28 2 28 29
M  V30 29 1 28 30
M  V30 30 1 30 31
M  V30 31 1 27 32
M  V30 32 1 32 2
M  V30 33 1 27 5
M  V30 34 1 25 7
M  V30 35 1 20 8
M  V30 36 1 18 12
M  V30 37 1 1 33
M  V30 38 1 1 34
M  V30 39 1 1 35
M  V30 40 1 3 36
M  V30 41 1 3 37
M  V30 42 1 3 38
M  V30 43 1 5 39 CFG=3
M  V30 44 1 6 40
M  V30 45 1 6 41
M  V30 46 1 7 42 CFG=1
M  V30 47 1 8 43 CFG=3
M  V30 48 1 9 44
M  V30 49 1 9 45
M  V30 50 1 10 46 CFG=1
M  V30 51 1 13 47
M  V30 52 1 16 48
M  V30 53 1 17 49
M  V30 54 1 19 50
M  V30 55 1 19 51
M  V30 56 1 19 52
M  V30 57 1 22 53 CFG=3
M  V30 58 1 23 54
M  V30 59 1 24 55
M  V30 60 1 24 56
M  V30 61 1 26 57
M  V30 62 1 26 58
M  V30 63 1 26 59
M  V30 64 1 30 60
M  V30 65 1 30 61
M  V30 66 1 31 62
M  V30 END BOND
M  V30 END CTAB
M  END
>  <Dataset>  (632) 
ChEMBL_Kinases

>  <Ligand_Instance>  (632) 
nan

>  <PDB_ID>  (632) 
nan

>  <Standardized_SMILES>  (632) 
CC1(C)O[C@@H]2C[C@H]3[C@@H]4C[C@H](F)C5=CC(=O)C=C[C@]5(C)[C@@]4(F)[C@@H](O)C[C@]3(C)[C@]2(C(=O)CO)O1

>  <Name>  (632) 
FLUOCINOLONE ACETONIDE

>  <Pocket>  (632) 
nan

>  <ATP_Site>  (632) 
nan

>  <Peripheral>  (632) 
nan

>  <Num_H_Atoms_ProtBoundConf>  (632) 
nan

>  <Num_Resolved_Atoms>  (632) 
nan

>  <Num_Not_Resolved_Atoms>  (632) 
nan

$$$$
CHEMBL4062430
     RDKit          3D

  0  0  0  0  0  0  0  0  0  0999 V3000
M  V30 BEGIN CTAB
M  V30 COUNTS 39 41 0 0 0
M  V30 BEGIN ATOM
M  V30 1 O 2.337631 -0.264130 -1.734254 0
M  V30 2 C 1.357677 -0.090292 -0.945493 0
M  V30 3 N 1.430229 -0.979250 0.127285 0
M  V30 4 C 2.488552 -1.921514 0.249638 0
M  V30 5 C 2.479742 -3.213826 -0.268836 0
M  V30 6 C 3.607047 -3.986197 -0.046465 0
M  V30 7 C 4.701789 -3.502497 0.660512 0
M  V30 8 N 4.700063 -2.253691 1.156720 0
M  V30 9 C 3.608260 -1.489099 0.947938 0
M  V30 10 C 0.378485 0.934293 -1.255981 0
M  V30 11 C 0.553431 1.682331 -2.402690 0
M  V30 12 C -0.324934 2.675627 -2.777040 0
M  V30 13 Br -0.008965 3.654652 -4.367775 0
M  V30 14 C -1.435053 2.977747 -2.019369 0
M  V30 15 C -1.631064 2.247403 -0.873730 0
M  V30 16 C -0.736511 1.262151 -0.526503 0
M  V30 17 O -0.998029 0.580436 0.624068 0
M  V30 18 C -2.062066 0.750360 1.504740 0
M  V30 19 C -1.907522 -0.237771 2.620794 0
M  V30 20 C -1.171541 0.203706 3.723547 0
M  V30 21 C -0.965675 -0.628172 4.813779 0
M  V30 22 C -1.504252 -1.899008 4.782365 0
M  V30 23 C -2.244706 -2.361808 3.688163 0
M  V30 24 F -2.771029 -3.612216 3.664402 0
M  V30 25 C -2.445620 -1.523322 2.602373 0
M  V30 26 H 0.677459 -0.926821 0.837936 0
M  V30 27 H 1.601029 -3.515151 -0.801715 0
M  V30 28 H 3.603645 -5.005803 -0.453847 0
M  V30 29 H 5.571281 -4.145893 0.813054 0
M  V30 30 H 3.646388 -0.478542 1.368042 0
M  V30 31 H 1.412983 1.496999 -3.052104 0
M  V30 32 H -2.145230 3.749394 -2.281437 0
M  V30 33 H -2.491601 2.468149 -0.269034 0
M  V30 34 H -3.025295 0.562335 0.945978 0
M  V30 35 H -2.149030 1.773594 1.883287 0
M  V30 36 H -0.730979 1.182343 3.799119 0
M  V30 37 H -0.413340 -0.370718 5.701816 0
M  V30 38 H -1.396090 -2.626581 5.592895 0
M  V30 39 H -3.010193 -1.810020 1.713933 0
M  V30 END ATOM
M  V30 BEGIN BOND
M  V30 1 2 1 2
M  V30 2 1 2 3
M  V30 3 1 3 4
M  V30 4 2 4 5
M  V30 5 1 5 6
M  V30 6 2 6 7
M  V30 7 1 7 8
M  V30 8 2 8 9
M  V30 9 1 2 10
M  V30 10 2 10 11
M  V30 11 1 11 12
M  V30 12 1 12 13
M  V30 13 2 12 14
M  V30 14 1 14 15
M  V30 15 2 15 16
M  V30 16 1 16 17
M  V30 17 1 17 18
M  V30 18 1 18 19
M  V30 19 2 19 20
M  V30 20 1 20 21
M  V30 21 2 21 22
M  V30 22 1 22 23
M  V30 23 1 23 24
M  V30 24 2 23 25
M  V30 25 1 9 4
M  V30 26 1 16 10
M  V30 27 1 25 19
M  V30 28 1 3 26
M  V30 29 1 5 27
M  V30 30 1 6 28
M  V30 31 1 7 29
M  V30 32 1 9 30
M  V30 33 1 11 31
M  V30 34 1 14 32
M  V30 35 1 15 33
M  V30 36 1 18 34
M  V30 37 1 18 35
M  V30 38 1 20 36
M  V30 39 1 21 37
M  V30 40 1 22 38
M  V30 41 1 25 39
M  V30 END BOND
M  V30 END CTAB
M  END
>  <Dataset>  (633) 
ChEMBL_Kinases

>  <Ligand_Instance>  (633) 
nan

>  <PDB_ID>  (633) 
nan

>  <Standardized_SMILES>  (633) 
O=C(Nc1cccnc1)c1cc(Br)ccc1OCc1cccc(F)c1

>  <Name>  (633) 
nan

>  <Pocket>  (633) 
nan

>  <ATP_Site>  (633) 
nan

>  <Peripheral>  (633) 
nan

>  <Num_H_Atoms_ProtBoundConf>  (633) 
nan

>  <Num_Resolved_Atoms>  (633) 
nan

>  <Num_Not_Resolved_Atoms>  (633) 
nan

$$$$
CHEMBL4062388
     RDKit          3D

  0  0  0  0  0  0  0  0  0  0999 V3000
M  V30 BEGIN CTAB
M  V30 COUNTS 52 53 0 0 0
M  V30 BEGIN ATOM
M  V30 1 C 1.738555 -7.347185 2.549634 0
M  V30 2 C 1.069786 -6.574128 1.463694 0
M  V30 3 O -0.165154 -6.266437 1.590471 0
M  V30 4 N 1.657144 -6.118688 0.257870 0
M  V30 5 C 0.756593 -5.397327 -0.596746 0
M  V30 6 C 0.625732 -4.030035 -0.475463 0
M  V30 7 C -0.209208 -3.230388 -1.243721 0
M  V30 8 C -0.253180 -1.793843 -1.016206 0
M  V30 9 C 0.913119 -1.217741 -0.593443 0
M  V30 10 C 0.918327 0.138065 -0.368259 0
M  V30 11 C -0.152710 0.981759 -0.529622 0
M  V30 12 O -0.317952 2.325105 -0.353549 0
M  V30 13 C 0.623273 3.248362 0.060453 0
M  V30 14 C 1.245646 3.138513 1.394177 0 CFG=1
M  V30 15 N 2.268247 4.266945 1.401066 0
M  V30 16 C 0.361701 3.397809 2.548139 0
M  V30 17 C -0.835966 2.588792 2.800026 0
M  V30 18 C -0.455037 1.130957 2.953906 0
M  V30 19 C -2.012327 2.718703 1.920459 0
M  V30 20 C -1.336038 0.375694 -0.962773 0
M  V30 21 C -2.694218 0.951747 -1.271030 0
M  V30 22 C -1.391677 -1.001586 -1.205611 0
M  V30 23 C -0.937790 -3.943363 -2.188633 0
M  V30 24 C -0.817033 -5.291845 -2.317341 0
M  V30 25 N 0.005356 -6.007846 -1.546661 0
M  V30 26 H 2.767368 -6.964179 2.747032 0
M  V30 27 H 1.775331 -8.435399 2.358220 0
M  V30 28 H 1.149069 -7.208276 3.482863 0
M  V30 29 H 2.668114 -6.357377 0.128716 0
M  V30 30 H 1.230523 -3.568950 0.284252 0
M  V30 31 H 1.834797 -1.756837 -0.423407 0
M  V30 32 H 1.816452 0.610514 -0.050145 0
M  V30 33 H 0.194413 4.301144 -0.045750 0
M  V30 34 H 1.442493 3.271637 -0.744603 0
M  V30 35 H 1.875612 2.265295 1.546869 0
M  V30 36 H 1.734172 5.124851 1.694054 0
M  V30 37 H 3.010553 4.024274 2.091508 0
M  V30 38 H 0.115625 4.508787 2.610791 0
M  V30 39 H 1.023600 3.276536 3.473253 0
M  V30 40 H -1.224420 2.912287 3.852765 0
M  V30 41 H 0.604253 0.987877 2.649380 0
M  V30 42 H -1.072782 0.530396 2.260786 0
M  V30 43 H -0.648101 0.803483 3.986835 0
M  V30 44 H -2.048941 3.587949 1.249083 0
M  V30 45 H -2.935646 2.872078 2.576525 0
M  V30 46 H -2.277551 1.742843 1.416724 0
M  V30 47 H -2.932490 0.837107 -2.352860 0
M  V30 48 H -3.426290 0.416906 -0.634643 0
M  V30 49 H -2.688471 2.046726 -1.024507 0
M  V30 50 H -2.216784 -1.596464 -1.535800 0
M  V30 51 H -1.608143 -3.340348 -2.813360 0
M  V30 52 H -1.403602 -5.831442 -3.071727 0
M  V30 END ATOM
M  V30 BEGIN BOND
M  V30 1 1 1 2
M  V30 2 2 2 3
M  V30 3 1 2 4
M  V30 4 1 4 5
M  V30 5 2 5 6
M  V30 6 1 6 7
M  V30 7 1 7 8
M  V30 8 2 8 9
M  V30 9 1 9 10
M  V30 10 2 10 11
M  V30 11 1 11 12
M  V30 12 1 12 13
M  V30 13 1 13 14
M  V30 14 1 14 15
M  V30 15 1 14 16
M  V30 16 1 16 17
M  V30 17 1 17 18
M  V30 18 1 17 19
M  V30 19 1 11 20
M  V30 20 1 20 21
M  V30 21 2 20 22
M  V30 22 2 7 23
M  V30 23 1 23 24
M  V30 24 2 24 25
M  V30 25 1 25 5
M  V30 26 1 22 8
M  V30 27 1 1 26
M  V30 28 1 1 27
M  V30 29 1 1 28
M  V30 30 1 4 29
M  V30 31 1 6 30
M  V30 32 1 9 31
M  V30 33 1 10 32
M  V30 34 1 13 33
M  V30 35 1 13 34
M  V30 36 1 14 35 CFG=1
M  V30 37 1 15 36
M  V30 38 1 15 37
M  V30 39 1 16 38
M  V30 40 1 16 39
M  V30 41 1 17 40
M  V30 42 1 18 41
M  V30 43 1 18 42
M  V30 44 1 18 43
M  V30 45 1 19 44
M  V30 46 1 19 45
M  V30 47 1 19 46
M  V30 48 1 21 47
M  V30 49 1 21 48
M  V30 50 1 21 49
M  V30 51 1 22 50
M  V30 52 1 23 51
M  V30 53 1 24 52
M  V30 END BOND
M  V30 END CTAB
M  END
>  <Dataset>  (634) 
ChEMBL_Kinases

>  <Ligand_Instance>  (634) 
nan

>  <PDB_ID>  (634) 
nan

>  <Standardized_SMILES>  (634) 
CC(=O)Nc1cc(-c2ccc(OC[C@@H](N)CC(C)C)c(C)c2)ccn1

>  <Name>  (634) 
nan

>  <Pocket>  (634) 
nan

>  <ATP_Site>  (634) 
nan

>  <Peripheral>  (634) 
nan

>  <Num_H_Atoms_ProtBoundConf>  (634) 
nan

>  <Num_Resolved_Atoms>  (634) 
nan

>  <Num_Not_Resolved_Atoms>  (634) 
nan

$$$$
CHEMBL986
     RDKit          3D

  0  0  0  0  0  0  0  0  0  0999 V3000
M  V30 BEGIN CTAB
M  V30 COUNTS 51 51 0 0 0
M  V30 BEGIN ATOM
M  V30 1 C -0.127406 -5.019947 1.041060 0
M  V30 2 C -0.910939 -4.398715 2.169950 0
M  V30 3 C -0.979503 -3.052934 2.252670 0
M  V30 4 C -0.258792 -2.358450 1.198635 0
M  V30 5 C -0.108575 -1.070130 0.967557 0
M  V30 6 C 0.634538 -0.427067 -0.119333 0
M  V30 7 C 1.385975 -1.051998 -1.206785 0
M  V30 8 C 0.650508 0.902460 -0.155749 0
M  V30 9 C 1.353284 1.654371 -1.184529 0
M  V30 10 C 1.345208 2.954858 -1.186912 0
M  V30 11 C 2.039146 3.727830 -2.202897 0
M  V30 12 C 2.825711 3.242791 -3.339493 0
M  V30 13 C 1.978138 5.043679 -2.128730 0
M  V30 14 C 2.552140 6.109659 -2.973797 0
M  V30 15 O 3.294260 5.679493 -4.046395 0
M  V30 16 C -1.790323 -2.679262 3.426663 0
M  V30 17 C -2.169504 -1.221988 3.504793 0
M  V30 18 C -1.070288 -2.996038 4.742741 0
M  V30 19 C -3.131329 -3.427357 3.474376 0
M  V30 20 C -2.973006 -4.898577 3.338437 0
M  V30 21 C -1.553405 -5.334239 3.121473 0
M  V30 22 H -0.517898 -4.725638 0.067048 0
M  V30 23 H 0.941689 -4.684892 1.106427 0
M  V30 24 H -0.097940 -6.108121 1.120988 0
M  V30 25 H 0.279536 -2.881645 0.422665 0
M  V30 26 H -0.607712 -0.452034 1.692373 0
M  V30 27 H 1.048984 -0.719953 -2.209013 0
M  V30 28 H 2.502308 -0.937976 -1.083923 0
M  V30 29 H 1.200363 -2.142661 -1.193644 0
M  V30 30 H 0.110334 1.465210 0.623649 0
M  V30 31 H 1.887496 1.114112 -1.953419 0
M  V30 32 H 0.796449 3.439936 -0.395301 0
M  V30 33 H 2.869666 2.133903 -3.401452 0
M  V30 34 H 2.343876 3.583822 -4.292804 0
M  V30 35 H 3.871875 3.572527 -3.285372 0
M  V30 36 H 1.411544 5.519910 -1.310953 0
M  V30 37 H 1.667568 6.670055 -3.399062 0
M  V30 38 H 3.124932 6.856428 -2.385070 0
M  V30 39 H 3.097081 6.180595 -4.853908 0
M  V30 40 H -2.940223 -1.188298 4.348758 0
M  V30 41 H -1.348930 -0.597384 3.905113 0
M  V30 42 H -2.709401 -0.831351 2.646614 0
M  V30 43 H -1.674596 -3.649000 5.405473 0
M  V30 44 H -0.922611 -2.061421 5.361328 0
M  V30 45 H -0.033510 -3.357890 4.573871 0
M  V30 46 H -3.821145 -3.054027 2.684138 0
M  V30 47 H -3.607109 -3.145501 4.431577 0
M  V30 48 H -3.431441 -5.388125 4.246394 0
M  V30 49 H -3.588758 -5.295016 2.488735 0
M  V30 50 H -1.617671 -6.333974 2.614177 0
M  V30 51 H -0.972894 -5.486737 4.055520 0
M  V30 END ATOM
M  V30 BEGIN BOND
M  V30 1 1 1 2
M  V30 2 2 2 3
M  V30 3 1 3 4
M  V30 4 2 4 5
M  V30 5 1 5 6
M  V30 6 1 6 7
M  V30 7 2 6 8
M  V30 8 1 8 9
M  V30 9 2 9 10
M  V30 10 1 10 11
M  V30 11 1 11 12
M  V30 12 2 11 13
M  V30 13 1 13 14
M  V30 14 1 14 15
M  V30 15 1 3 16
M  V30 16 1 16 17
M  V30 17 1 16 18
M  V30 18 1 16 19
M  V30 19 1 19 20
M  V30 20 1 20 21
M  V30 21 1 21 2
M  V30 22 1 1 22
M  V30 23 1 1 23
M  V30 24 1 1 24
M  V30 25 1 4 25
M  V30 26 1 5 26
M  V30 27 1 7 27
M  V30 28 1 7 28
M  V30 29 1 7 29
M  V30 30 1 8 30
M  V30 31 1 9 31
M  V30 32 1 10 32
M  V30 33 1 12 33
M  V30 34 1 12 34
M  V30 35 1 12 35
M  V30 36 1 13 36
M  V30 37 1 14 37
M  V30 38 1 14 38
M  V30 39 1 15 39
M  V30 40 1 17 40
M  V30 41 1 17 41
M  V30 42 1 17 42
M  V30 43 1 18 43
M  V30 44 1 18 44
M  V30 45 1 18 45
M  V30 46 1 19 46
M  V30 47 1 19 47
M  V30 48 1 20 48
M  V30 49 1 20 49
M  V30 50 1 21 50
M  V30 51 1 21 51
M  V30 END BOND
M  V30 END CTAB
M  END
>  <Dataset>  (635) 
ChEMBL_Kinases

>  <Ligand_Instance>  (635) 
nan

>  <PDB_ID>  (635) 
nan

>  <Standardized_SMILES>  (635) 
CC1=C(/C=C/C(C)=C/C=C/C(C)=C/CO)C(C)(C)CCC1

>  <Name>  (635) 
RETINOL

>  <Pocket>  (635) 
nan

>  <ATP_Site>  (635) 
nan

>  <Peripheral>  (635) 
nan

>  <Num_H_Atoms_ProtBoundConf>  (635) 
nan

>  <Num_Resolved_Atoms>  (635) 
nan

>  <Num_Not_Resolved_Atoms>  (635) 
nan

$$$$
CHEMBL4062348
     RDKit          3D

  0  0  0  0  0  0  0  0  0  0999 V3000
M  V30 BEGIN CTAB
M  V30 COUNTS 57 62 0 0 0
M  V30 BEGIN ATOM
M  V30 1 C 0.245818 -7.093927 1.879904 0
M  V30 2 O -0.375637 -5.832608 1.998194 0
M  V30 3 C 0.210414 -4.665574 1.536166 0
M  V30 4 C 1.477614 -4.877672 0.963153 0
M  V30 5 C 2.096331 -3.734408 0.485011 0
M  V30 6 C 1.509822 -2.499064 0.569048 0
M  V30 7 N 2.154850 -1.458348 0.069829 0
M  V30 8 C 1.671031 -0.240712 0.081717 0
M  V30 9 N 2.280559 0.928196 -0.426455 0
M  V30 10 C 2.937328 2.116131 -0.021288 0
M  V30 11 C 3.373240 2.924450 -1.080607 0
M  V30 12 C 4.006104 4.117479 -0.842685 0
M  V30 13 C 4.181276 4.462294 0.468800 0
M  V30 14 N 4.705697 5.467743 1.176634 0
M  V30 15 N 4.634377 5.351276 2.485658 0
M  V30 16 C 4.009856 4.171451 2.776884 0
M  V30 17 C 3.757557 3.675255 1.484000 0
M  V30 18 C 3.094211 2.424528 1.334504 0
M  V30 19 N 0.473991 -0.061644 0.627863 0
M  V30 20 C -0.292560 -1.014538 1.171778 0
M  V30 21 N -1.559249 -1.020457 1.772218 0
M  V30 22 C -2.834252 -1.004598 2.372983 0
M  V30 23 C -3.959088 -0.453593 1.554180 0
M  V30 24 C -4.235311 -1.127759 0.294972 0
M  V30 25 C -5.218036 -2.054088 -0.047920 0
M  V30 26 N -5.165082 -2.484132 -1.327223 0
M  V30 27 C -4.102818 -1.825869 -1.887901 0
M  V30 28 C -3.629302 -1.910487 -3.175972 0
M  V30 29 C -2.519821 -1.140096 -3.558908 0
M  V30 30 C -1.923156 -0.298760 -2.603889 0
M  V30 31 C -2.497658 -0.314617 -1.361369 0
M  V30 32 C -3.569527 -1.027804 -0.903569 0
M  V30 33 C 0.277848 -2.300828 1.127826 0
M  V30 34 C -0.351326 -3.426011 1.608652 0
M  V30 35 H 0.611552 -7.250106 0.822644 0
M  V30 36 H -0.521914 -7.892583 2.087872 0
M  V30 37 H 1.078807 -7.258971 2.585543 0
M  V30 38 H 2.013993 -5.799274 0.853513 0
M  V30 39 H 3.089661 -3.824771 0.026162 0
M  V30 40 H 2.140653 0.705911 -1.433815 0
M  V30 41 H 3.231400 2.644169 -2.103587 0
M  V30 42 H 4.355171 4.759307 -1.598784 0
M  V30 43 H 5.156095 6.316585 0.706907 0
M  V30 44 H 3.805174 3.796141 3.752217 0
M  V30 45 H 2.749939 1.786071 2.115555 0
M  V30 46 H -1.685924 0.044642 1.657451 0
M  V30 47 H -2.807602 -0.416505 3.342097 0
M  V30 48 H -3.118772 -2.036213 2.774675 0
M  V30 49 H -4.866844 -0.496379 2.202278 0
M  V30 50 H -3.719898 0.611312 1.358371 0
M  V30 51 H -5.993272 -2.429117 0.643111 0
M  V30 52 H -5.806939 -3.170244 -1.772379 0
M  V30 53 H -4.064307 -2.543293 -3.935474 0
M  V30 54 H -2.064567 -1.129035 -4.538416 0
M  V30 55 H -1.067235 0.306009 -2.866477 0
M  V30 56 H -1.998205 0.369642 -0.655333 0
M  V30 57 H -1.320051 -3.378262 2.064772 0
M  V30 END ATOM
M  V30 BEGIN BOND
M  V30 1 1 1 2
M  V30 2 1 2 3
M  V30 3 2 3 4
M  V30 4 1 4 5
M  V30 5 2 5 6
M  V30 6 1 6 7
M  V30 7 2 7 8
M  V30 8 1 8 9
M  V30 9 1 9 10
M  V30 10 2 10 11
M  V30 11 1 11 12
M  V30 12 2 12 13
M  V30 13 1 13 14
M  V30 14 1 14 15
M  V30 15 2 15 16
M  V30 16 1 16 17
M  V30 17 2 17 18
M  V30 18 1 8 19
M  V30 19 2 19 20
M  V30 20 1 20 21
M  V30 21 1 21 22
M  V30 22 1 22 23
M  V30 23 1 23 24
M  V30 24 2 24 25
M  V30 25 1 25 26
M  V30 26 1 26 27
M  V30 27 2 27 28
M  V30 28 1 28 29
M  V30 29 2 29 30
M  V30 30 1 30 31
M  V30 31 2 31 32
M  V30 32 1 20 33
M  V30 33 2 33 34
M  V30 34 1 34 3
M  V30 35 1 33 6
M  V30 36 1 18 10
M  V30 37 1 32 24
M  V30 38 1 17 13
M  V30 39 1 32 27
M  V30 40 1 1 35
M  V30 41 1 1 36
M  V30 42 1 1 37
M  V30 43 1 4 38
M  V30 44 1 5 39
M  V30 45 1 9 40
M  V30 46 1 11 41
M  V30 47 1 12 42
M  V30 48 1 14 43
M  V30 49 1 16 44
M  V30 50 1 18 45
M  V30 51 1 21 46
M  V30 52 1 22 47
M  V30 53 1 22 48
M  V30 54 1 23 49
M  V30 55 1 23 50
M  V30 56 1 25 51
M  V30 57 1 26 52
M  V30 58 1 28 53
M  V30 59 1 29 54
M  V30 60 1 30 55
M  V30 61 1 31 56
M  V30 62 1 34 57
M  V30 END BOND
M  V30 END CTAB
M  END
>  <Dataset>  (636) 
ChEMBL_Kinases

>  <Ligand_Instance>  (636) 
nan

>  <PDB_ID>  (636) 
nan

>  <Standardized_SMILES>  (636) 
COc1ccc2nc(Nc3ccc4[nH]ncc4c3)nc(NCCc3c[nH]c4ccccc34)c2c1

>  <Name>  (636) 
nan

>  <Pocket>  (636) 
nan

>  <ATP_Site>  (636) 
nan

>  <Peripheral>  (636) 
nan

>  <Num_H_Atoms_ProtBoundConf>  (636) 
nan

>  <Num_Resolved_Atoms>  (636) 
nan

>  <Num_Not_Resolved_Atoms>  (636) 
nan

$$$$
CHEMBL4062317
     RDKit          3D

  0  0  0  0  0  0  0  0  0  0999 V3000
M  V30 BEGIN CTAB
M  V30 COUNTS 56 59 0 0 0
M  V30 BEGIN ATOM
M  V30 1 C 0.788361 -3.752732 1.829892 0
M  V30 2 C 1.126297 -2.312155 1.944258 0
M  V30 3 N 2.084442 -1.842753 2.765099 0
M  V30 4 C 2.401689 -0.537529 2.878577 0
M  V30 5 C 1.684888 0.347089 2.094323 0
M  V30 6 N 2.054940 1.725723 2.246426 0
M  V30 7 C 3.083369 2.038992 1.314322 0
M  V30 8 O 3.460523 1.099479 0.566496 0
M  V30 9 C 3.711363 3.348593 1.175756 0
M  V30 10 C 4.692185 3.450308 0.210478 0
M  V30 11 C 5.299223 4.703906 0.071981 0
M  V30 12 N 4.936731 5.760508 0.850474 0
M  V30 13 C 3.969585 5.627972 1.789861 0
M  V30 14 C 3.643843 6.843246 2.591977 0
M  V30 15 F 2.720706 6.526165 3.561689 0
M  V30 16 F 4.795581 7.406511 3.122815 0
M  V30 17 F 3.055556 7.754379 1.723946 0
M  V30 18 C 3.331947 4.407489 1.972468 0
M  V30 19 C 0.687623 -0.102533 1.234613 0
M  V30 20 C 0.394235 -1.452422 1.149350 0
M  V30 21 C -0.668613 -1.814374 0.217188 0
M  V30 22 C -1.703918 -2.689634 0.446330 0
M  V30 23 C -2.647565 -2.946406 -0.521978 0
M  V30 24 N -3.711213 -3.850253 -0.276328 0
M  V30 25 C -5.148883 -3.660479 -0.285499 0
M  V30 26 C -5.806537 -4.963300 -0.641152 0
M  V30 27 O -5.085855 -5.722728 -1.541978 0
M  V30 28 C -3.884873 -6.185717 -1.003475 0
M  V30 29 C -3.347865 -5.232433 0.048361 0
M  V30 30 C -2.582107 -2.325213 -1.767712 0
M  V30 31 O -3.446808 -2.562028 -2.651670 0
M  V30 32 N -1.561470 -1.467311 -1.982843 0
M  V30 33 C -1.430209 -0.778295 -3.269716 0
M  V30 34 C -0.626909 -1.206537 -1.037945 0
M  V30 35 H 0.430553 -4.018753 0.815562 0
M  V30 36 H 1.709580 -4.393690 1.962735 0
M  V30 37 H 0.115870 -4.094218 2.643612 0
M  V30 38 H 3.188645 -0.287205 3.571379 0
M  V30 39 H 1.723247 2.471894 2.873270 0
M  V30 40 H 5.005546 2.631687 -0.425950 0
M  V30 41 H 6.081601 4.788930 -0.696528 0
M  V30 42 H 2.569280 4.321288 2.720352 0
M  V30 43 H 0.181736 0.683965 0.658779 0
M  V30 44 H -1.723262 -3.152724 1.423042 0
M  V30 45 H -5.488172 -2.893190 -1.008570 0
M  V30 46 H -5.538797 -3.367663 0.711823 0
M  V30 47 H -5.975250 -5.633299 0.250664 0
M  V30 48 H -6.813932 -4.802233 -1.115897 0
M  V30 49 H -3.123661 -6.341121 -1.785183 0
M  V30 50 H -4.024137 -7.166097 -0.503980 0
M  V30 51 H -2.270938 -5.389331 0.114579 0
M  V30 52 H -3.843473 -5.500612 1.005620 0
M  V30 53 H -2.331963 -0.883489 -3.882391 0
M  V30 54 H -0.513989 -1.193321 -3.763669 0
M  V30 55 H -1.177582 0.282000 -2.999949 0
M  V30 56 H 0.172340 -0.504208 -1.272835 0
M  V30 END ATOM
M  V30 BEGIN BOND
M  V30 1 1 1 2
M  V30 2 2 2 3
M  V30 3 1 3 4
M  V30 4 2 4 5
M  V30 5 1 5 6
M  V30 6 1 6 7
M  V30 7 2 7 8
M  V30 8 1 7 9
M  V30 9 2 9 10
M  V30 10 1 10 11
M  V30 11 2 11 12
M  V30 12 1 12 13
M  V30 13 1 13 14
M  V30 14 1 14 15
M  V30 15 1 14 16
M  V30 16 1 14 17
M  V30 17 2 13 18
M  V30 18 1 5 19
M  V30 19 2 19 20
M  V30 20 1 20 21
M  V30 21 1 21 22
M  V30 22 2 22 23
M  V30 23 1 23 24
M  V30 24 1 24 25
M  V30 25 1 25 26
M  V30 26 1 26 27
M  V30 27 1 27 28
M  V30 28 1 28 29
M  V30 29 1 23 30
M  V30 30 2 30 31
M  V30 31 1 30 32
M  V30 32 1 32 33
M  V30 33 1 32 34
M  V30 34 1 20 2
M  V30 35 2 34 21
M  V30 36 1 18 9
M  V30 37 1 29 24
M  V30 38 1 1 35
M  V30 39 1 1 36
M  V30 40 1 1 37
M  V30 41 1 4 38
M  V30 42 1 6 39
M  V30 43 1 10 40
M  V30 44 1 11 41
M  V30 45 1 18 42
M  V30 46 1 19 43
M  V30 47 1 22 44
M  V30 48 1 25 45
M  V30 49 1 25 46
M  V30 50 1 26 47
M  V30 51 1 26 48
M  V30 52 1 28 49
M  V30 53 1 28 50
M  V30 54 1 29 51
M  V30 55 1 29 52
M  V30 56 1 33 53
M  V30 57 1 33 54
M  V30 58 1 33 55
M  V30 59 1 34 56
M  V30 END BOND
M  V30 END CTAB
M  END
>  <Dataset>  (637) 
ChEMBL_Kinases

>  <Ligand_Instance>  (637) 
nan

>  <PDB_ID>  (637) 
nan

>  <Standardized_SMILES>  (637) 
Cc1ncc(NC(=O)c2ccnc(C(F)(F)F)c2)cc1-c1cc(N2CCOCC2)c(=O)n(C)c1

>  <Name>  (637) 
nan

>  <Pocket>  (637) 
nan

>  <ATP_Site>  (637) 
nan

>  <Peripheral>  (637) 
nan

>  <Num_H_Atoms_ProtBoundConf>  (637) 
nan

>  <Num_Resolved_Atoms>  (637) 
nan

>  <Num_Not_Resolved_Atoms>  (637) 
nan

$$$$
CHEMBL4062262
     RDKit          3D

  0  0  0  0  0  0  0  0  0  0999 V3000
M  V30 BEGIN CTAB
M  V30 COUNTS 30 32 0 0 0
M  V30 BEGIN ATOM
M  V30 1 C -0.474168 -5.764613 1.203474 0
M  V30 2 N -0.183408 -4.422044 1.670269 0
M  V30 3 C -0.035707 -3.401350 0.724125 0
M  V30 4 O -0.185629 -3.823306 -0.457227 0
M  V30 5 C 0.259188 -2.028580 1.152019 0
M  V30 6 S 0.441781 -1.576776 2.809470 0
M  V30 7 C 0.779359 0.227356 2.472171 0
M  V30 8 S 1.092962 1.457820 3.727170 0
M  V30 9 C -0.412873 2.252610 4.316321 0
M  V30 10 C 0.709407 0.272770 1.068513 0
M  V30 11 C 0.445894 -0.868032 0.392844 0
M  V30 12 C 0.356235 -0.923598 -1.080736 0
M  V30 13 C 0.554794 0.315845 -1.828907 0
M  V30 14 C 0.841491 1.506939 -1.005695 0
M  V30 15 C 1.049556 2.704037 -1.634604 0
M  V30 16 N 1.317624 3.839429 -0.929077 0
M  V30 17 S 1.267414 3.127897 0.795376 0
M  V30 18 C 0.924089 1.549009 0.353547 0
M  V30 19 H 0.201224 -5.992890 0.350518 0
M  V30 20 H -0.303729 -6.505620 2.034764 0
M  V30 21 H -1.524911 -5.776996 0.870956 0
M  V30 22 H -0.092187 -4.256835 2.711781 0
M  V30 23 H -0.549745 3.278582 3.883811 0
M  V30 24 H -1.326350 1.688307 4.066228 0
M  V30 25 H -0.390373 2.408745 5.426726 0
M  V30 26 H 0.954330 -1.777691 -1.492619 0
M  V30 27 H -0.710443 -1.265631 -1.300245 0
M  V30 28 H 1.416549 0.122410 -2.545505 0
M  V30 29 H -0.293077 0.522653 -2.531211 0
M  V30 30 H 1.073577 3.092414 -2.641354 0
M  V30 END ATOM
M  V30 BEGIN BOND
M  V30 1 1 1 2
M  V30 2 1 2 3
M  V30 3 2 3 4
M  V30 4 1 3 5
M  V30 5 1 5 6
M  V30 6 1 6 7
M  V30 7 1 7 8
M  V30 8 1 8 9
M  V30 9 2 7 10
M  V30 10 1 10 11
M  V30 11 1 11 12
M  V30 12 1 12 13
M  V30 13 1 13 14
M  V30 14 1 14 15
M  V30 15 2 15 16
M  V30 16 1 16 17
M  V30 17 1 17 18
M  V30 18 2 11 5
M  V30 19 2 18 14
M  V30 20 1 18 10
M  V30 21 1 1 19
M  V30 22 1 1 20
M  V30 23 1 1 21
M  V30 24 1 2 22
M  V30 25 1 9 23
M  V30 26 1 9 24
M  V30 27 1 9 25
M  V30 28 1 12 26
M  V30 29 1 12 27
M  V30 30 1 13 28
M  V30 31 1 13 29
M  V30 32 1 15 30
M  V30 END BOND
M  V30 END CTAB
M  END
>  <Dataset>  (638) 
ChEMBL_Kinases

>  <Ligand_Instance>  (638) 
nan

>  <PDB_ID>  (638) 
nan

>  <Standardized_SMILES>  (638) 
CNC(=O)c1sc(SC)c2c1CCc1cnsc1-2

>  <Name>  (638) 
nan

>  <Pocket>  (638) 
nan

>  <ATP_Site>  (638) 
nan

>  <Peripheral>  (638) 
nan

>  <Num_H_Atoms_ProtBoundConf>  (638) 
nan

>  <Num_Resolved_Atoms>  (638) 
nan

>  <Num_Not_Resolved_Atoms>  (638) 
nan

$$$$
CHEMBL4862622
     RDKit          3D

  0  0  0  0  0  0  0  0  0  0999 V3000
M  V30 BEGIN CTAB
M  V30 COUNTS 64 68 0 0 0
M  V30 BEGIN ATOM
M  V30 1 C 1.316480 -5.673853 2.084628 0
M  V30 2 C 1.877534 -4.769258 2.881872 0
M  V30 3 C 3.150089 -4.050075 2.568575 0
M  V30 4 N 2.934562 -2.616491 2.513757 0
M  V30 5 C 3.019015 -1.705119 3.500486 0
M  V30 6 O 3.311239 -1.939262 4.695070 0
M  V30 7 C 2.732338 -0.457441 2.995588 0
M  V30 8 C 2.654081 0.832419 3.479774 0
M  V30 9 N 2.336268 1.888009 2.705409 0
M  V30 10 C 2.082329 1.666433 1.388819 0
M  V30 11 N 1.730358 2.624312 0.392950 0
M  V30 12 C 0.371066 2.929744 0.156751 0
M  V30 13 C -0.090861 3.848419 -0.790080 0
M  V30 14 C -1.465065 4.067275 -0.933299 0
M  V30 15 C -2.398938 3.413620 -0.177369 0
M  V30 16 C -1.968307 2.514357 0.750861 0
M  V30 17 C -0.620875 2.306295 0.884345 0
M  V30 18 C -2.944753 1.797048 1.577256 0
M  V30 19 N -4.209751 1.592829 0.986597 0
M  V30 20 C -4.588605 0.233083 0.765529 0
M  V30 21 C -4.734367 2.571316 0.131778 0
M  V30 22 C -3.834885 3.655921 -0.341517 0
M  V30 23 N 2.148772 0.422601 0.880297 0
M  V30 24 C 2.468066 -0.631525 1.662458 0
M  V30 25 N 2.599171 -1.961038 1.396101 0
M  V30 26 C 2.385033 -2.481246 0.067444 0
M  V30 27 C 3.342430 -3.023310 -0.767587 0
M  V30 28 C 2.898573 -3.464438 -2.016333 0
M  V30 29 C 1.550608 -3.335910 -2.340062 0
M  V30 30 C 0.628037 -2.795432 -1.492570 0
M  V30 31 C -0.804781 -2.672263 -1.868468 0
M  V30 32 C -1.531846 -2.039153 -0.711337 0
M  V30 33 C -1.408068 -3.977212 -2.321971 0
M  V30 34 O -0.854750 -1.732339 -2.917090 0
M  V30 35 N 1.095541 -2.380254 -0.294124 0
M  V30 36 H 1.842240 -5.876879 1.158900 0
M  V30 37 H 0.398724 -6.102295 2.454232 0
M  V30 38 H 1.484754 -4.450585 3.839336 0
M  V30 39 H 3.876960 -4.299490 3.367650 0
M  V30 40 H 3.576574 -4.361596 1.591007 0
M  V30 41 H 2.857039 0.999424 4.525434 0
M  V30 42 H 2.431702 3.146156 -0.207853 0
M  V30 43 H 0.655484 4.360964 -1.383740 0
M  V30 44 H -1.747016 4.804604 -1.699007 0
M  V30 45 H -0.313146 1.574204 1.642808 0
M  V30 46 H -2.543159 0.829312 1.944492 0
M  V30 47 H -3.097691 2.420712 2.503140 0
M  V30 48 H -3.852235 -0.425363 1.308230 0
M  V30 49 H -5.552270 0.062417 1.295490 0
M  V30 50 H -4.716275 -0.059366 -0.276234 0
M  V30 51 H -5.127292 2.043301 -0.781657 0
M  V30 52 H -5.660163 2.987583 0.612433 0
M  V30 53 H -4.088558 4.588283 0.204394 0
M  V30 54 H -3.998079 3.915638 -1.426302 0
M  V30 55 H 4.332341 -3.047257 -0.363440 0
M  V30 56 H 3.662311 -3.881201 -2.645468 0
M  V30 57 H 1.276571 -3.700721 -3.329469 0
M  V30 58 H -0.812256 -1.372709 -0.191280 0
M  V30 59 H -1.865585 -2.788227 0.047147 0
M  V30 60 H -2.361213 -1.369572 -1.038992 0
M  V30 61 H -2.484762 -4.041791 -2.116615 0
M  V30 62 H -0.866659 -4.840577 -1.892921 0
M  V30 63 H -1.286302 -4.072320 -3.430953 0
M  V30 64 H 0.012688 -1.286092 -3.071586 0
M  V30 END ATOM
M  V30 BEGIN BOND
M  V30 1 2 1 2
M  V30 2 1 2 3
M  V30 3 1 3 4
M  V30 4 1 4 5
M  V30 5 2 5 6
M  V30 6 1 5 7
M  V30 7 2 7 8
M  V30 8 1 8 9
M  V30 9 2 9 10
M  V30 10 1 10 11
M  V30 11 1 11 12
M  V30 12 2 12 13
M  V30 13 1 13 14
M  V30 14 2 14 15
M  V30 15 1 15 16
M  V30 16 2 16 17
M  V30 17 1 16 18
M  V30 18 1 18 19
M  V30 19 1 19 20
M  V30 20 1 19 21
M  V30 21 1 21 22
M  V30 22 1 10 23
M  V30 23 2 23 24
M  V30 24 1 24 25
M  V30 25 1 25 26
M  V30 26 2 26 27
M  V30 27 1 27 28
M  V30 28 2 28 29
M  V30 29 1 29 30
M  V30 30 1 30 31
M  V30 31 1 31 32
M  V30 32 1 31 33
M  V30 33 1 31 34
M  V30 34 2 30 35
M  V30 35 1 25 4
M  V30 36 1 35 26
M  V30 37 1 24 7
M  V30 38 1 17 12
M  V30 39 1 22 15
M  V30 40 1 1 36
M  V30 41 1 1 37
M  V30 42 1 2 38
M  V30 43 1 3 39
M  V30 44 1 3 40
M  V30 45 1 8 41
M  V30 46 1 11 42
M  V30 47 1 13 43
M  V30 48 1 14 44
M  V30 49 1 17 45
M  V30 50 1 18 46
M  V30 51 1 18 47
M  V30 52 1 20 48
M  V30 53 1 20 49
M  V30 54 1 20 50
M  V30 55 1 21 51
M  V30 56 1 21 52
M  V30 57 1 22 53
M  V30 58 1 22 54
M  V30 59 1 27 55
M  V30 60 1 28 56
M  V30 61 1 29 57
M  V30 62 1 32 58
M  V30 63 1 32 59
M  V30 64 1 32 60
M  V30 65 1 33 61
M  V30 66 1 33 62
M  V30 67 1 33 63
M  V30 68 1 34 64
M  V30 END BOND
M  V30 END CTAB
M  END
>  <Dataset>  (639) 
ChEMBL_Kinases

>  <Ligand_Instance>  (639) 
nan

>  <PDB_ID>  (639) 
nan

>  <Standardized_SMILES>  (639) 
C=CCn1c(=O)c2cnc(Nc3ccc4c(c3)CN(C)CC4)nc2n1-c1cccc(C(C)(C)O)n1

>  <Name>  (639) 
nan

>  <Pocket>  (639) 
nan

>  <ATP_Site>  (639) 
nan

>  <Peripheral>  (639) 
nan

>  <Num_H_Atoms_ProtBoundConf>  (639) 
nan

>  <Num_Resolved_Atoms>  (639) 
nan

>  <Num_Not_Resolved_Atoms>  (639) 
nan

$$$$
CHEMBL4062257
     RDKit          3D

  0  0  0  0  0  0  0  0  0  0999 V3000
M  V30 BEGIN CTAB
M  V30 COUNTS 50 53 0 0 0
M  V30 BEGIN ATOM
M  V30 1 C 1.420759 -3.829934 3.737695 0
M  V30 2 C 1.664129 -3.554924 2.277185 0
M  V30 3 C 0.555844 -3.844208 1.471258 0
M  V30 4 C 0.933558 -3.530336 0.182290 0
M  V30 5 N 0.491291 -3.518865 -1.193475 0
M  V30 6 C -0.314921 -2.344722 -1.263866 0
M  V30 7 N 0.274356 -1.140665 -1.362975 0
M  V30 8 C -0.463215 0.005392 -1.440023 0
M  V30 9 C 0.334345 1.221090 -1.521155 0
M  V30 10 O 0.631582 2.099550 -2.332356 0
M  V30 11 N 0.950042 1.426429 -0.236767 0
M  V30 12 C 1.807780 2.597992 -0.061685 0
M  V30 13 C 2.180963 2.643425 1.405457 0
M  V30 14 C 3.042862 3.846576 1.748991 0
M  V30 15 N 0.970219 2.719665 2.200326 0
M  V30 16 C 0.287612 1.465750 2.127551 0
M  V30 17 C -1.198333 1.646710 1.821461 0
M  V30 18 C 0.855354 0.627545 0.988901 0
M  V30 19 N -1.807913 -0.050946 -1.419645 0
M  V30 20 C -2.469940 -1.244845 -1.320863 0
M  V30 21 C -3.860929 -1.277244 -1.300663 0
M  V30 22 C -4.434581 -2.527147 -1.195952 0
M  V30 23 C -3.728435 -3.707213 -1.112124 0
M  V30 24 Cl -4.560889 -5.259253 -0.972001 0
M  V30 25 C -2.342959 -3.609426 -1.138453 0
M  V30 26 C -1.692804 -2.382377 -1.242988 0
M  V30 27 N 2.217619 -3.073941 0.237262 0
M  V30 28 N 2.643127 -3.092000 1.481636 0
M  V30 29 H 2.307463 -3.573653 4.331545 0
M  V30 30 H 1.173071 -4.884594 3.883824 0
M  V30 31 H 0.563940 -3.185344 4.095467 0
M  V30 32 H -0.471068 -4.216527 1.486358 0
M  V30 33 H 0.746866 -4.244485 -1.910486 0
M  V30 34 H 1.231614 3.510353 -0.333674 0
M  V30 35 H 2.683903 2.506667 -0.712812 0
M  V30 36 H 2.791310 1.765590 1.660677 0
M  V30 37 H 3.258716 3.728156 2.842650 0
M  V30 38 H 2.549047 4.807797 1.610097 0
M  V30 39 H 4.047223 3.774110 1.270301 0
M  V30 40 H 0.416431 3.539190 1.860010 0
M  V30 41 H 0.343031 0.841177 3.037902 0
M  V30 42 H -1.765935 2.054497 2.670920 0
M  V30 43 H -1.340959 2.323599 0.936057 0
M  V30 44 H -1.623334 0.666708 1.477738 0
M  V30 45 H 1.762984 0.084670 1.238299 0
M  V30 46 H 0.079732 -0.133825 0.789824 0
M  V30 47 H -4.453728 -0.358951 -1.364379 0
M  V30 48 H -5.534244 -2.588284 -1.180458 0
M  V30 49 H -1.767938 -4.526597 -1.076020 0
M  V30 50 H 3.516873 -2.843769 1.990403 0
M  V30 END ATOM
M  V30 BEGIN BOND
M  V30 1 1 1 2
M  V30 2 2 2 3
M  V30 3 1 3 4
M  V30 4 1 4 5
M  V30 5 1 5 6
M  V30 6 2 6 7
M  V30 7 1 7 8
M  V30 8 1 8 9
M  V30 9 2 9 10
M  V30 10 1 9 11
M  V30 11 1 11 12
M  V30 12 1 12 13
M  V30 13 1 13 14
M  V30 14 1 13 15
M  V30 15 1 15 16
M  V30 16 1 16 17
M  V30 17 1 16 18
M  V30 18 2 8 19
M  V30 19 1 19 20
M  V30 20 2 20 21
M  V30 21 1 21 22
M  V30 22 2 22 23
M  V30 23 1 23 24
M  V30 24 1 23 25
M  V30 25 2 25 26
M  V30 26 2 4 27
M  V30 27 1 27 28
M  V30 28 1 28 2
M  V30 29 1 26 6
M  V30 30 1 18 11
M  V30 31 1 26 20
M  V30 32 1 1 29
M  V30 33 1 1 30
M  V30 34 1 1 31
M  V30 35 1 3 32
M  V30 36 1 5 33
M  V30 37 1 12 34
M  V30 38 1 12 35
M  V30 39 1 13 36
M  V30 40 1 14 37
M  V30 41 1 14 38
M  V30 42 1 14 39
M  V30 43 1 15 40
M  V30 44 1 16 41
M  V30 45 1 17 42
M  V30 46 1 17 43
M  V30 47 1 17 44
M  V30 48 1 18 45
M  V30 49 1 18 46
M  V30 50 1 21 47
M  V30 51 1 22 48
M  V30 52 1 25 49
M  V30 53 1 28 50
M  V30 END BOND
M  V30 END CTAB
M  END
>  <Dataset>  (640) 
ChEMBL_Kinases

>  <Ligand_Instance>  (640) 
nan

>  <PDB_ID>  (640) 
nan

>  <Standardized_SMILES>  (640) 
Cc1cc(Nc2nc(C(=O)N3CC(C)NC(C)C3)nc3ccc(Cl)cc23)n[nH]1

>  <Name>  (640) 
nan

>  <Pocket>  (640) 
nan

>  <ATP_Site>  (640) 
nan

>  <Peripheral>  (640) 
nan

>  <Num_H_Atoms_ProtBoundConf>  (640) 
nan

>  <Num_Resolved_Atoms>  (640) 
nan

>  <Num_Not_Resolved_Atoms>  (640) 
nan

$$$$
CHEMBL98248
     RDKit          3D

  0  0  0  0  0  0  0  0  0  0999 V3000
M  V30 BEGIN CTAB
M  V30 COUNTS 37 39 0 0 0
M  V30 BEGIN ATOM
M  V30 1 C 0.748329 -4.118599 4.498776 0
M  V30 2 O 0.426038 -2.774067 4.193537 0
M  V30 3 C 0.251882 -2.416955 2.878588 0
M  V30 4 C 0.395939 -3.382586 1.880007 0
M  V30 5 C 0.237278 -3.103208 0.537453 0
M  V30 6 N 0.377539 -4.048446 -0.393428 0
M  V30 7 C 0.218214 -3.772557 -1.697901 0
M  V30 8 C -0.095268 -2.464146 -2.002286 0
M  V30 9 C -0.258859 -1.417269 -1.084979 0
M  V30 10 N -0.580040 -0.136996 -1.553275 0
M  V30 11 C 0.061765 1.104493 -1.487372 0
M  V30 12 C -0.579971 2.227713 -1.967673 0
M  V30 13 C 0.046751 3.454170 -1.914832 0
M  V30 14 C 1.311842 3.644114 -1.398690 0
M  V30 15 C 1.974754 2.532884 -0.911325 0
M  V30 16 Br 3.717062 2.657919 -0.176001 0
M  V30 17 C 1.322907 1.318887 -0.977324 0
M  V30 18 C -0.076472 -1.798616 0.222912 0
M  V30 19 C -0.222812 -0.834591 1.188919 0
M  V30 20 C -0.066024 -1.105182 2.532354 0
M  V30 21 O -0.191057 -0.213315 3.567527 0
M  V30 22 C -0.512781 1.135192 3.282376 0
M  V30 23 H 0.021230 -4.834687 4.025286 0
M  V30 24 H 0.786721 -4.284178 5.604580 0
M  V30 25 H 1.757127 -4.376888 4.114438 0
M  V30 26 H 0.644485 -4.419110 2.117884 0
M  V30 27 H 0.315564 -4.484378 -2.506011 0
M  V30 28 H -0.230500 -2.213740 -3.061761 0
M  V30 29 H -1.501014 -0.233058 -2.032743 0
M  V30 30 H -1.570460 2.201392 -2.393704 0
M  V30 31 H -0.467759 4.348776 -2.298841 0
M  V30 32 H 1.783988 4.613043 -1.366943 0
M  V30 33 H 1.849546 0.442568 -0.591300 0
M  V30 34 H -0.469474 0.164972 0.937851 0
M  V30 35 H 0.392004 1.736897 3.013755 0
M  V30 36 H -0.977976 1.624519 4.186175 0
M  V30 37 H -1.242849 1.268608 2.476944 0
M  V30 END ATOM
M  V30 BEGIN BOND
M  V30 1 1 1 2
M  V30 2 1 2 3
M  V30 3 2 3 4
M  V30 4 1 4 5
M  V30 5 2 5 6
M  V30 6 1 6 7
M  V30 7 2 7 8
M  V30 8 1 8 9
M  V30 9 1 9 10
M  V30 10 1 10 11
M  V30 11 2 11 12
M  V30 12 1 12 13
M  V30 13 2 13 14
M  V30 14 1 14 15
M  V30 15 1 15 16
M  V30 16 2 15 17
M  V30 17 2 9 18
M  V30 18 1 18 19
M  V30 19 2 19 20
M  V30 20 1 20 21
M  V30 21 1 21 22
M  V30 22 1 20 3
M  V30 23 1 18 5
M  V30 24 1 17 11
M  V30 25 1 1 23
M  V30 26 1 1 24
M  V30 27 1 1 25
M  V30 28 1 4 26
M  V30 29 1 7 27
M  V30 30 1 8 28
M  V30 31 1 10 29
M  V30 32 1 12 30
M  V30 33 1 13 31
M  V30 34 1 14 32
M  V30 35 1 17 33
M  V30 36 1 19 34
M  V30 37 1 22 35
M  V30 38 1 22 36
M  V30 39 1 22 37
M  V30 END BOND
M  V30 END CTAB
M  END
>  <Dataset>  (641) 
ChEMBL_Kinases

>  <Ligand_Instance>  (641) 
nan

>  <PDB_ID>  (641) 
nan

>  <Standardized_SMILES>  (641) 
COc1cc2nccc(Nc3cccc(Br)c3)c2cc1OC

>  <Name>  (641) 
nan

>  <Pocket>  (641) 
nan

>  <ATP_Site>  (641) 
nan

>  <Peripheral>  (641) 
nan

>  <Num_H_Atoms_ProtBoundConf>  (641) 
nan

>  <Num_Resolved_Atoms>  (641) 
nan

>  <Num_Not_Resolved_Atoms>  (641) 
nan

$$$$
CHEMBL4062244
     RDKit          3D

  0  0  0  0  0  0  0  0  0  0999 V3000
M  V30 BEGIN CTAB
M  V30 COUNTS 36 39 0 0 0
M  V30 BEGIN ATOM
M  V30 1 C -0.160328 -5.737764 3.289871 0
M  V30 2 C 0.414788 -4.589447 2.517134 0
M  V30 3 C 1.077919 -3.587810 3.205984 0
M  V30 4 C 1.616407 -2.515183 2.495119 0
M  V30 5 C 1.435577 -2.544429 1.112325 0
M  V30 6 O 1.921362 -1.558844 0.362184 0
M  V30 7 C 1.444145 -0.378417 -0.074980 0
M  V30 8 S 2.611510 0.545776 -1.087746 0
M  V30 9 C 1.602588 1.949840 -1.415616 0
M  V30 10 C 2.071190 3.056379 -2.224028 0
M  V30 11 N 3.369078 3.069097 -2.795895 0
M  V30 12 O 1.495267 4.113986 -2.551073 0
M  V30 13 C 0.444532 1.680267 -0.764392 0
M  V30 14 C 0.376290 0.498588 -0.089417 0
M  V30 15 C -0.902670 0.149605 0.651855 0
M  V30 16 S -1.413710 -1.163771 1.596314 0
M  V30 17 N -3.109582 -0.514820 1.974555 0
M  V30 18 C -2.982989 0.686302 1.258449 0
M  V30 19 C -1.874628 1.063532 0.570088 0
M  V30 20 C -1.904697 2.357867 -0.132782 0
M  V30 21 C -0.644960 2.674307 -0.827961 0
M  V30 22 C 0.764697 -3.563743 0.444681 0
M  V30 23 N 0.250149 -4.598743 1.173235 0
M  V30 24 H 0.614130 -6.520445 3.495256 0
M  V30 25 H -0.669423 -5.387650 4.216426 0
M  V30 26 H -0.935753 -6.252631 2.679157 0
M  V30 27 H 1.173763 -3.641386 4.277316 0
M  V30 28 H 2.140305 -1.710953 2.976087 0
M  V30 29 H 3.594581 2.206267 -3.351310 0
M  V30 30 H 3.880000 2.366948 -3.393830 0
M  V30 31 H -3.995012 1.073971 1.483974 0
M  V30 32 H -2.126035 3.207852 0.589044 0
M  V30 33 H -2.792159 2.419287 -0.838017 0
M  V30 34 H -0.295180 3.687430 -0.487360 0
M  V30 35 H -0.920556 2.886987 -1.915649 0
M  V30 36 H 0.643069 -3.555126 -0.624016 0
M  V30 END ATOM
M  V30 BEGIN BOND
M  V30 1 1 1 2
M  V30 2 2 2 3
M  V30 3 1 3 4
M  V30 4 2 4 5
M  V30 5 1 5 6
M  V30 6 1 6 7
M  V30 7 1 7 8
M  V30 8 1 8 9
M  V30 9 1 9 10
M  V30 10 1 10 11
M  V30 11 2 10 12
M  V30 12 2 9 13
M  V30 13 1 13 14
M  V30 14 1 14 15
M  V30 15 1 15 16
M  V30 16 1 16 17
M  V30 17 2 17 18
M  V30 18 1 18 19
M  V30 19 1 19 20
M  V30 20 1 20 21
M  V30 21 1 5 22
M  V30 22 2 22 23
M  V30 23 1 23 2
M  V30 24 2 14 7
M  V30 25 2 19 15
M  V30 26 1 21 13
M  V30 27 1 1 24
M  V30 28 1 1 25
M  V30 29 1 1 26
M  V30 30 1 3 27
M  V30 31 1 4 28
M  V30 32 1 11 29
M  V30 33 1 11 30
M  V30 34 1 18 31
M  V30 35 1 20 32
M  V30 36 1 20 33
M  V30 37 1 21 34
M  V30 38 1 21 35
M  V30 39 1 22 36
M  V30 END BOND
M  V30 END CTAB
M  END
>  <Dataset>  (642) 
ChEMBL_Kinases

>  <Ligand_Instance>  (642) 
nan

>  <PDB_ID>  (642) 
nan

>  <Standardized_SMILES>  (642) 
Cc1ccc(Oc2sc(C(N)=O)c3c2-c2sncc2CC3)cn1

>  <Name>  (642) 
nan

>  <Pocket>  (642) 
nan

>  <ATP_Site>  (642) 
nan

>  <Peripheral>  (642) 
nan

>  <Num_H_Atoms_ProtBoundConf>  (642) 
nan

>  <Num_Resolved_Atoms>  (642) 
nan

>  <Num_Not_Resolved_Atoms>  (642) 
nan

$$$$
CHEMBL4061783
     RDKit          3D

  0  0  0  0  0  0  0  0  0  0999 V3000
M  V30 BEGIN CTAB
M  V30 COUNTS 33 36 0 0 0
M  V30 BEGIN ATOM
M  V30 1 N 1.078513 -2.843299 4.169444 0
M  V30 2 C 1.735668 -2.264796 3.078432 0
M  V30 3 O 2.982203 -2.324592 2.951523 0
M  V30 4 C 0.947417 -1.556395 2.032905 0
M  V30 5 S 1.684253 -0.809463 0.644492 0
M  V30 6 C 0.235798 -0.222576 -0.077279 0
M  V30 7 O 0.174344 0.517717 -1.308907 0
M  V30 8 C 1.379628 0.776954 -1.963346 0
M  V30 9 C 1.202013 1.490457 -3.128897 0
M  V30 10 C 2.352487 1.803066 -3.862971 0
M  V30 11 C 3.590565 1.376177 -3.371482 0
M  V30 12 C 3.726972 0.659754 -2.193529 0
M  V30 13 N 2.591691 0.385044 -1.525847 0
M  V30 14 C -0.713848 -0.612373 0.749879 0
M  V30 15 C -0.408599 -1.306627 1.860679 0
M  V30 16 C -1.326858 -1.815705 2.908131 0
M  V30 17 C -2.770688 -1.612621 2.708620 0
M  V30 18 C -3.026842 -0.827790 1.487740 0
M  V30 19 C -4.323030 -0.510818 1.201615 0
M  V30 20 N -4.766416 0.234490 0.059354 0
M  V30 21 S -3.063343 0.476624 -0.644501 0
M  V30 22 C -2.217005 -0.346522 0.553648 0
M  V30 23 H 0.601841 -3.707296 4.516087 0
M  V30 24 H 0.580992 -3.421155 4.855407 0
M  V30 25 H 0.250988 1.824917 -3.517428 0
M  V30 26 H 2.312211 2.367169 -4.802690 0
M  V30 27 H 4.487900 1.624447 -3.951494 0
M  V30 28 H 4.692502 0.337449 -1.828052 0
M  V30 29 H -1.173282 -2.913721 3.077441 0
M  V30 30 H -1.043917 -1.378190 3.920453 0
M  V30 31 H -3.191825 -1.113172 3.623491 0
M  V30 32 H -3.314089 -2.603166 2.574916 0
M  V30 33 H -5.327264 -0.666063 1.637275 0
M  V30 END ATOM
M  V30 BEGIN BOND
M  V30 1 1 1 2
M  V30 2 2 2 3
M  V30 3 1 2 4
M  V30 4 1 4 5
M  V30 5 1 5 6
M  V30 6 1 6 7
M  V30 7 1 7 8
M  V30 8 2 8 9
M  V30 9 1 9 10
M  V30 10 2 10 11
M  V30 11 1 11 12
M  V30 12 2 12 13
M  V30 13 2 6 14
M  V30 14 1 14 15
M  V30 15 1 15 16
M  V30 16 1 16 17
M  V30 17 1 17 18
M  V30 18 1 18 19
M  V30 19 2 19 20
M  V30 20 1 20 21
M  V30 21 1 21 22
M  V30 22 2 15 4
M  V30 23 2 22 18
M  V30 24 1 13 8
M  V30 25 1 22 14
M  V30 26 1 1 23
M  V30 27 1 1 24
M  V30 28 1 9 25
M  V30 29 1 10 26
M  V30 30 1 11 27
M  V30 31 1 12 28
M  V30 32 1 16 29
M  V30 33 1 16 30
M  V30 34 1 17 31
M  V30 35 1 17 32
M  V30 36 1 19 33
M  V30 END BOND
M  V30 END CTAB
M  END
>  <Dataset>  (643) 
ChEMBL_Kinases

>  <Ligand_Instance>  (643) 
nan

>  <PDB_ID>  (643) 
nan

>  <Standardized_SMILES>  (643) 
NC(=O)c1sc(Oc2ccccn2)c2c1CCc1cnsc1-2

>  <Name>  (643) 
nan

>  <Pocket>  (643) 
nan

>  <ATP_Site>  (643) 
nan

>  <Peripheral>  (643) 
nan

>  <Num_H_Atoms_ProtBoundConf>  (643) 
nan

>  <Num_Resolved_Atoms>  (643) 
nan

>  <Num_Not_Resolved_Atoms>  (643) 
nan

$$$$
CHEMBL4862811
     RDKit          3D

  0  0  0  0  0  0  0  0  0  0999 V3000
M  V30 BEGIN CTAB
M  V30 COUNTS 60 64 0 0 0
M  V30 BEGIN ATOM
M  V30 1 O -0.080912 -3.016529 4.204304 0
M  V30 2 C -0.535695 -2.288580 3.287833 0
M  V30 3 N 0.265125 -1.298799 2.639102 0
M  V30 4 C 1.665483 -0.993633 2.889617 0
M  V30 5 C 1.891343 0.304250 3.546817 0
M  V30 6 C 3.308457 0.771868 3.347354 0
M  V30 7 N 3.751841 0.766937 2.018425 0
M  V30 8 C 3.655134 1.903516 1.211668 0
M  V30 9 C 2.325439 2.417202 0.866671 0
M  V30 10 C 1.740545 1.851072 -0.277458 0
M  V30 11 C 0.504502 2.211525 -0.773830 0
M  V30 12 C -0.228948 3.197098 -0.115478 0
M  V30 13 C 0.327972 3.777202 1.024202 0
M  V30 14 C 1.550821 3.406812 1.498774 0
M  V30 15 C 3.679615 -0.516479 1.425773 0
M  V30 16 C 2.361250 -1.193408 1.556735 0
M  V30 17 C -1.909013 -2.389706 2.810033 0
M  V30 18 C -2.984318 -2.925632 3.487939 0
M  V30 19 N -4.221286 -3.043535 2.992303 0
M  V30 20 C -4.542375 -2.637232 1.754314 0
M  V30 21 C -3.550918 -2.085459 0.988980 0
M  V30 22 N -3.567163 -1.597800 -0.343584 0
M  V30 23 C -3.195839 -2.773075 -1.043586 0
M  V30 24 O -2.968875 -3.873647 -0.432078 0
M  V30 25 C -2.948328 -3.211238 -2.433914 0
M  V30 26 C -3.670688 -4.110586 -3.189778 0
M  V30 27 C -3.191988 -4.353099 -4.457011 0
M  V30 28 N -2.098739 -3.787218 -4.995013 0
M  V30 29 C -1.381263 -2.894830 -4.249085 0
M  V30 30 N -0.267583 -2.189255 -4.536900 0
M  V30 31 C 0.081133 -1.420577 -3.478890 0
M  V30 32 C -0.867823 -1.681744 -2.520110 0
M  V30 33 C -1.805389 -2.607256 -2.971723 0
M  V30 34 C -2.257887 -1.973249 1.529342 0
M  V30 35 H 0.001728 -0.608758 1.897789 0
M  V30 36 H 2.036274 -1.799733 3.567204 0
M  V30 37 H 1.775670 0.128997 4.654349 0
M  V30 38 H 1.243247 1.152758 3.241735 0
M  V30 39 H 4.030632 0.152915 3.950492 0
M  V30 40 H 3.361821 1.828075 3.755578 0
M  V30 41 H 4.208972 1.695294 0.250833 0
M  V30 42 H 4.297022 2.712411 1.682698 0
M  V30 43 H 2.255942 1.074280 -0.845309 0
M  V30 44 H 0.098208 1.745508 -1.658403 0
M  V30 45 H -1.190165 3.470675 -0.509217 0
M  V30 46 H -0.215027 4.540246 1.551805 0
M  V30 47 H 2.044826 3.808301 2.369849 0
M  V30 48 H 3.965992 -0.547196 0.353279 0
M  V30 49 H 4.448789 -1.161843 1.937539 0
M  V30 50 H 2.524518 -2.291873 1.433379 0
M  V30 51 H 1.659565 -0.935305 0.722342 0
M  V30 52 H -2.797126 -3.272166 4.498037 0
M  V30 53 H -5.479291 -2.663774 1.223254 0
M  V30 54 H -3.708833 -0.858929 -1.049205 0
M  V30 55 H -4.512277 -4.497636 -2.677459 0
M  V30 56 H -3.837208 -5.081312 -4.981074 0
M  V30 57 H 0.297730 -2.181914 -5.419106 0
M  V30 58 H 0.919713 -0.723656 -3.353494 0
M  V30 59 H -0.870781 -1.220710 -1.551817 0
M  V30 60 H -1.436897 -1.554532 0.958045 0
M  V30 END ATOM
M  V30 BEGIN BOND
M  V30 1 2 1 2
M  V30 2 1 2 3
M  V30 3 1 3 4
M  V30 4 1 4 5
M  V30 5 1 5 6
M  V30 6 1 6 7
M  V30 7 1 7 8
M  V30 8 1 8 9
M  V30 9 2 9 10
M  V30 10 1 10 11
M  V30 11 2 11 12
M  V30 12 1 12 13
M  V30 13 2 13 14
M  V30 14 1 7 15
M  V30 15 1 15 16
M  V30 16 1 2 17
M  V30 17 2 17 18
M  V30 18 1 18 19
M  V30 19 2 19 20
M  V30 20 1 20 21
M  V30 21 1 21 22
M  V30 22 1 22 23
M  V30 23 2 23 24
M  V30 24 1 23 25
M  V30 25 2 25 26
M  V30 26 1 26 27
M  V30 27 2 27 28
M  V30 28 1 28 29
M  V30 29 1 29 30
M  V30 30 1 30 31
M  V30 31 2 31 32
M  V30 32 1 32 33
M  V30 33 2 21 34
M  V30 34 1 16 4
M  V30 35 1 34 17
M  V30 36 1 14 9
M  V30 37 1 33 25
M  V30 38 2 33 29
M  V30 39 1 3 35
M  V30 40 1 4 36
M  V30 41 1 5 37
M  V30 42 1 5 38
M  V30 43 1 6 39
M  V30 44 1 6 40
M  V30 45 1 8 41
M  V30 46 1 8 42
M  V30 47 1 10 43
M  V30 48 1 11 44
M  V30 49 1 12 45
M  V30 50 1 13 46
M  V30 51 1 14 47
M  V30 52 1 15 48
M  V30 53 1 15 49
M  V30 54 1 16 50
M  V30 55 1 16 51
M  V30 56 1 18 52
M  V30 57 1 20 53
M  V30 58 1 22 54
M  V30 59 1 26 55
M  V30 60 1 27 56
M  V30 61 1 30 57
M  V30 62 1 31 58
M  V30 63 1 32 59
M  V30 64 1 34 60
M  V30 END BOND
M  V30 END CTAB
M  END
>  <Dataset>  (644) 
ChEMBL_Kinases

>  <Ligand_Instance>  (644) 
nan

>  <PDB_ID>  (644) 
nan

>  <Standardized_SMILES>  (644) 
O=C(NC1CCN(Cc2ccccc2)CC1)c1cncc(NC(=O)c2ccnc3[nH]ccc23)c1

>  <Name>  (644) 
nan

>  <Pocket>  (644) 
nan

>  <ATP_Site>  (644) 
nan

>  <Peripheral>  (644) 
nan

>  <Num_H_Atoms_ProtBoundConf>  (644) 
nan

>  <Num_Resolved_Atoms>  (644) 
nan

>  <Num_Not_Resolved_Atoms>  (644) 
nan

$$$$
CHEMBL4862847
     RDKit          3D

  0  0  0  0  0  0  0  0  0  0999 V3000
M  V30 BEGIN CTAB
M  V30 COUNTS 49 52 0 0 0
M  V30 BEGIN ATOM
M  V30 1 C 1.204948 -0.800232 4.323025 0
M  V30 2 O 1.212288 -0.668940 2.929381 0
M  V30 3 C 2.380638 -0.110328 2.330305 0
M  V30 4 N 3.607170 0.406210 2.412304 0
M  V30 5 N 4.037541 0.715550 1.176956 0
M  V30 6 C 5.324947 1.244907 1.445552 0
M  V30 7 C 6.413891 0.452107 1.739959 0
M  V30 8 C 7.640960 1.080168 1.986960 0
M  V30 9 C 7.612582 2.453742 1.903443 0
M  V30 10 N 6.526118 3.237291 1.612082 0
M  V30 11 N 5.343986 2.613966 1.375869 0
M  V30 12 C 2.958678 0.328715 0.432294 0
M  V30 13 C 1.789133 -0.245076 1.151563 0
M  V30 14 C 1.141403 -0.378599 -0.288667 0
M  V30 15 O 0.254826 -0.934225 0.495107 0
M  V30 16 N 0.882386 -0.330704 -1.655389 0
M  V30 17 C -0.397451 -1.017099 -1.642256 0
M  V30 18 C -0.292507 -2.379795 -1.881575 0
M  V30 19 C -1.509316 -3.084941 -1.903818 0
M  V30 20 C -2.629925 -2.313440 -1.690409 0
M  V30 21 C -2.733259 -0.965170 -1.456624 0
M  V30 22 C -4.071353 -0.464230 -1.276519 0
M  V30 23 N -4.662587 0.368321 -2.178016 0
M  V30 24 N -5.904665 0.650503 -1.738993 0
M  V30 25 C -6.011593 -0.047083 -0.567222 0
M  V30 26 N -4.886793 -0.751409 -0.247512 0
M  V30 27 C -4.854063 -1.521963 0.950691 0 CFG=1
M  V30 28 C -4.819872 -3.019263 0.741599 0
M  V30 29 C -3.788224 -1.080354 1.947685 0
M  V30 30 F -3.853786 -1.899578 3.084755 0
M  V30 31 F -2.579877 -1.310511 1.349071 0
M  V30 32 F -4.018410 0.213956 2.339141 0
M  V30 33 N -1.522294 -0.315481 -1.438727 0
M  V30 34 H 0.746227 0.137876 4.722521 0
M  V30 35 H 2.248660 -0.914482 4.681281 0
M  V30 36 H 0.653578 -1.692894 4.695386 0
M  V30 37 H 6.307435 -0.610858 1.775078 0
M  V30 38 H 8.514737 0.493149 2.221465 0
M  V30 39 H 8.606017 2.912349 2.112693 0
M  V30 40 H 3.524295 0.664827 -0.511178 0
M  V30 41 H 1.772553 0.150305 -1.686227 0
M  V30 42 H 0.657878 -2.865509 -2.040766 0
M  V30 43 H -1.410474 -4.138883 -2.087808 0
M  V30 44 H -3.496433 -3.011736 -1.750713 0
M  V30 45 H -7.008376 0.144980 -0.164515 0
M  V30 46 H -5.814265 -1.344956 1.521094 0
M  V30 47 H -5.297390 -3.258182 -0.247835 0
M  V30 48 H -5.439328 -3.518496 1.499462 0
M  V30 49 H -3.767734 -3.381952 0.743645 0
M  V30 END ATOM
M  V30 BEGIN BOND
M  V30 1 1 1 2
M  V30 2 1 2 3
M  V30 3 2 3 4
M  V30 4 1 4 5
M  V30 5 1 5 6
M  V30 6 2 6 7
M  V30 7 1 7 8
M  V30 8 2 8 9
M  V30 9 1 9 10
M  V30 10 2 10 11
M  V30 11 1 5 12
M  V30 12 2 12 13
M  V30 13 1 13 14
M  V30 14 2 14 15
M  V30 15 1 14 16
M  V30 16 1 16 17
M  V30 17 2 17 18
M  V30 18 1 18 19
M  V30 19 2 19 20
M  V30 20 1 20 21
M  V30 21 1 21 22
M  V30 22 2 22 23
M  V30 23 1 23 24
M  V30 24 2 24 25
M  V30 25 1 25 26
M  V30 26 1 26 27
M  V30 27 1 27 28
M  V30 28 1 27 29
M  V30 29 1 29 30
M  V30 30 1 29 31
M  V30 31 1 29 32
M  V30 32 2 21 33
M  V30 33 1 13 3
M  V30 34 1 33 17
M  V30 35 1 11 6
M  V30 36 1 26 22
M  V30 37 1 1 34
M  V30 38 1 1 35
M  V30 39 1 1 36
M  V30 40 1 7 37
M  V30 41 1 8 38
M  V30 42 1 9 39
M  V30 43 1 12 40
M  V30 44 1 16 41
M  V30 45 1 18 42
M  V30 46 1 19 43
M  V30 47 1 20 44
M  V30 48 1 25 45
M  V30 49 1 27 46 CFG=1
M  V30 50 1 28 47
M  V30 51 1 28 48
M  V30 52 1 28 49
M  V30 END BOND
M  V30 END CTAB
M  END
>  <Dataset>  (645) 
ChEMBL_Kinases

>  <Ligand_Instance>  (645) 
nan

>  <PDB_ID>  (645) 
nan

>  <Standardized_SMILES>  (645) 
COc1nn(-c2cccnn2)cc1C(=O)Nc1cccc(-c2nncn2[C@@H](C)C(F)(F)F)n1

>  <Name>  (645) 
nan

>  <Pocket>  (645) 
nan

>  <ATP_Site>  (645) 
nan

>  <Peripheral>  (645) 
nan

>  <Num_H_Atoms_ProtBoundConf>  (645) 
nan

>  <Num_Resolved_Atoms>  (645) 
nan

>  <Num_Not_Resolved_Atoms>  (645) 
nan

$$$$
CHEMBL4862849
     RDKit          3D

  0  0  0  0  0  0  0  0  0  0999 V3000
M  V30 BEGIN CTAB
M  V30 COUNTS 40 44 0 0 0
M  V30 BEGIN ATOM
M  V30 1 N 4.499013 -1.991913 3.963260 0
M  V30 2 C 3.680326 -1.636960 2.859654 0
M  V30 3 N 2.362823 -1.885395 2.919587 0
M  V30 4 C 1.528110 -1.566272 1.890277 0
M  V30 5 C 2.016375 -0.966630 0.731369 0
M  V30 6 C 3.370012 -0.739200 0.731927 0
M  V30 7 O 3.868822 -0.203367 -0.280721 0
M  V30 8 N 4.179233 -1.060636 1.756796 0
M  V30 9 C 1.063620 -0.644646 -0.348805 0
M  V30 10 C 1.132689 0.824301 -0.572899 0
M  V30 11 C 1.786465 1.563213 -1.524500 0
M  V30 12 C 1.691117 2.936167 -1.505358 0
M  V30 13 C 0.955573 3.607537 -0.556482 0
M  V30 14 C 0.289406 2.885579 0.410312 0
M  V30 15 C 0.385015 1.510763 0.391128 0
M  V30 16 C -0.326545 -1.041374 0.010332 0
M  V30 17 C -0.792100 -1.608566 1.103645 0
M  V30 18 N 0.163459 -1.899042 2.117690 0
M  V30 19 C -2.233838 -1.794512 0.971386 0
M  V30 20 C -3.146999 -2.345896 1.858901 0
M  V30 21 C -4.488866 -2.415825 1.504725 0
M  V30 22 C -4.926802 -1.942814 0.278436 0
M  V30 23 C -3.984065 -1.402940 -0.572039 0
M  V30 24 C -2.637813 -1.314506 -0.257645 0
M  V30 25 C -1.437497 -0.811991 -0.926403 0
M  V30 26 O -1.529224 -0.314474 -2.075786 0
M  V30 27 H 5.335067 -2.592084 3.706734 0
M  V30 28 H 4.183120 -1.621166 4.898346 0
M  V30 29 H 5.198719 -0.869585 1.713027 0
M  V30 30 H 1.399564 -1.149680 -1.286431 0
M  V30 31 H 2.328614 0.939192 -2.219963 0
M  V30 32 H 2.239365 3.457213 -2.295123 0
M  V30 33 H 0.910805 4.700087 -0.583678 0
M  V30 34 H -0.270732 3.451507 1.128364 0
M  V30 35 H -0.189961 1.054030 1.212114 0
M  V30 36 H -0.162502 -2.345476 2.994441 0
M  V30 37 H -2.818861 -2.718026 2.817412 0
M  V30 38 H -5.147453 -2.860621 2.250373 0
M  V30 39 H -5.976330 -2.010284 0.030037 0
M  V30 40 H -4.294248 -1.024154 -1.538614 0
M  V30 END ATOM
M  V30 BEGIN BOND
M  V30 1 1 1 2
M  V30 2 2 2 3
M  V30 3 1 3 4
M  V30 4 2 4 5
M  V30 5 1 5 6
M  V30 6 2 6 7
M  V30 7 1 6 8
M  V30 8 1 5 9
M  V30 9 1 9 10
M  V30 10 2 10 11
M  V30 11 1 11 12
M  V30 12 2 12 13
M  V30 13 1 13 14
M  V30 14 2 14 15
M  V30 15 1 9 16
M  V30 16 2 16 17
M  V30 17 1 17 18
M  V30 18 1 17 19
M  V30 19 2 19 20
M  V30 20 1 20 21
M  V30 21 2 21 22
M  V30 22 1 22 23
M  V30 23 2 23 24
M  V30 24 1 24 25
M  V30 25 2 25 26
M  V30 26 1 8 2
M  V30 27 1 15 10
M  V30 28 1 25 16
M  V30 29 1 18 4
M  V30 30 1 24 19
M  V30 31 1 1 27
M  V30 32 1 1 28
M  V30 33 1 8 29
M  V30 34 1 9 30
M  V30 35 1 11 31
M  V30 36 1 12 32
M  V30 37 1 13 33
M  V30 38 1 14 34
M  V30 39 1 15 35
M  V30 40 1 18 36
M  V30 41 1 20 37
M  V30 42 1 21 38
M  V30 43 1 22 39
M  V30 44 1 23 40
M  V30 END BOND
M  V30 END CTAB
M  END
>  <Dataset>  (646) 
ChEMBL_Kinases

>  <Ligand_Instance>  (646) 
nan

>  <PDB_ID>  (646) 
nan

>  <Standardized_SMILES>  (646) 
Nc1nc2c(c(=O)[nH]1)C(c1ccccc1)C1=C(N2)c2ccccc2C1=O

>  <Name>  (646) 
nan

>  <Pocket>  (646) 
nan

>  <ATP_Site>  (646) 
nan

>  <Peripheral>  (646) 
nan

>  <Num_H_Atoms_ProtBoundConf>  (646) 
nan

>  <Num_Resolved_Atoms>  (646) 
nan

>  <Num_Not_Resolved_Atoms>  (646) 
nan

$$$$
CHEMBL4061984
     RDKit          3D

  0  0  0  0  0  0  0  0  0  0999 V3000
M  V30 BEGIN CTAB
M  V30 COUNTS 28 30 0 0 0
M  V30 BEGIN ATOM
M  V30 1 O 4.112677 -4.524205 0.646460 0
M  V30 2 C 3.645727 -3.529076 1.247626 0
M  V30 3 N 3.768713 -3.215935 2.594837 0
M  V30 4 C 3.191980 -2.051778 3.149069 0
M  V30 5 S 3.105077 -1.580785 4.705574 0
M  V30 6 S 2.540020 -1.171144 1.704580 0
M  V30 7 C 2.871516 -2.532114 0.546295 0
M  V30 8 C 2.399801 -2.407450 -0.672790 0
M  V30 9 C 1.598642 -1.284220 -1.235912 0
M  V30 10 C 1.673939 -0.651640 -2.464978 0
M  V30 11 S 0.281666 0.576322 -2.320987 0
M  V30 12 C -0.129840 -0.023640 -0.589998 0
M  V30 13 C -1.258001 0.599121 0.182958 0
M  V30 14 C -2.036110 1.574059 -0.353316 0
M  V30 15 C -3.009150 2.046134 0.527827 0
M  V30 16 C -3.152136 1.557466 1.812102 0
M  V30 17 O -4.124036 2.032874 2.686528 0
M  V30 18 C -2.322050 0.564755 2.279538 0
M  V30 19 C -1.338308 0.062602 1.442433 0
M  V30 20 N 0.649718 -0.862089 -0.410525 0
M  V30 21 H 4.302843 -3.848634 3.266129 0
M  V30 22 H 2.640351 -3.247763 -1.347839 0
M  V30 23 H 2.406738 -0.929604 -3.178227 0
M  V30 24 H -1.905717 1.934851 -1.358213 0
M  V30 25 H -3.686434 2.825192 0.221324 0
M  V30 26 H -4.886949 1.373144 2.893376 0
M  V30 27 H -2.417404 0.163511 3.288761 0
M  V30 28 H -0.717670 -0.702940 1.839977 0
M  V30 END ATOM
M  V30 BEGIN BOND
M  V30 1 2 1 2
M  V30 2 1 2 3
M  V30 3 1 3 4
M  V30 4 2 4 5
M  V30 5 1 4 6
M  V30 6 1 6 7
M  V30 7 2 7 8
M  V30 8 1 8 9
M  V30 9 2 9 10
M  V30 10 1 10 11
M  V30 11 1 11 12
M  V30 12 1 12 13
M  V30 13 2 13 14
M  V30 14 1 14 15
M  V30 15 2 15 16
M  V30 16 1 16 17
M  V30 17 1 16 18
M  V30 18 2 18 19
M  V30 19 2 12 20
M  V30 20 1 7 2
M  V30 21 1 20 9
M  V30 22 1 19 13
M  V30 23 1 3 21
M  V30 24 1 8 22
M  V30 25 1 10 23
M  V30 26 1 14 24
M  V30 27 1 15 25
M  V30 28 1 17 26
M  V30 29 1 18 27
M  V30 30 1 19 28
M  V30 END BOND
M  V30 END CTAB
M  END
>  <Dataset>  (647) 
ChEMBL_Kinases

>  <Ligand_Instance>  (647) 
nan

>  <PDB_ID>  (647) 
nan

>  <Standardized_SMILES>  (647) 
O=C1NC(=S)S/C1=C\c1csc(-c2ccc(O)cc2)n1

>  <Name>  (647) 
nan

>  <Pocket>  (647) 
nan

>  <ATP_Site>  (647) 
nan

>  <Peripheral>  (647) 
nan

>  <Num_H_Atoms_ProtBoundConf>  (647) 
nan

>  <Num_Resolved_Atoms>  (647) 
nan

>  <Num_Not_Resolved_Atoms>  (647) 
nan

$$$$
CHEMBL4061891
     RDKit          3D

  0  0  0  0  0  0  0  0  0  0999 V3000
M  V30 BEGIN CTAB
M  V30 COUNTS 17 18 0 0 0
M  V30 BEGIN ATOM
M  V30 1 O 0.522280 -2.415898 2.900425 0
M  V30 2 C 1.222624 -1.371931 2.680654 0
M  V30 3 N 2.275750 -0.990730 3.559032 0
M  V30 4 C 2.986873 0.187244 3.212369 0
M  V30 5 S 3.880795 1.289637 4.010221 0
M  V30 6 S 2.681251 0.285969 1.422786 0
M  V30 7 C 1.033330 -0.476646 1.537677 0
M  V30 8 C -0.079826 -0.319620 0.834957 0
M  V30 9 C 0.166221 0.667602 -0.216041 0
M  V30 10 C 1.299756 0.713284 -1.063620 0
M  V30 11 S 0.916672 2.245292 -2.073611 0
M  V30 12 C -0.721227 2.502114 -1.118902 0
M  V30 13 N -0.779671 1.601539 -0.323153 0
M  V30 14 H 2.579946 -1.502686 4.446389 0
M  V30 15 H -0.975815 -0.857221 1.055113 0
M  V30 16 H 2.052921 -0.029253 -0.985579 0
M  V30 17 H -1.344928 3.378360 -1.401690 0
M  V30 END ATOM
M  V30 BEGIN BOND
M  V30 1 2 1 2
M  V30 2 1 2 3
M  V30 3 1 3 4
M  V30 4 2 4 5
M  V30 5 1 4 6
M  V30 6 1 6 7
M  V30 7 2 7 8
M  V30 8 1 8 9
M  V30 9 2 9 10
M  V30 10 1 10 11
M  V30 11 1 11 12
M  V30 12 2 12 13
M  V30 13 1 7 2
M  V30 14 1 13 9
M  V30 15 1 3 14
M  V30 16 1 8 15
M  V30 17 1 10 16
M  V30 18 1 12 17
M  V30 END BOND
M  V30 END CTAB
M  END
>  <Dataset>  (648) 
ChEMBL_Kinases

>  <Ligand_Instance>  (648) 
nan

>  <PDB_ID>  (648) 
nan

>  <Standardized_SMILES>  (648) 
O=C1NC(=S)S/C1=C\c1cscn1

>  <Name>  (648) 
nan

>  <Pocket>  (648) 
nan

>  <ATP_Site>  (648) 
nan

>  <Peripheral>  (648) 
nan

>  <Num_H_Atoms_ProtBoundConf>  (648) 
nan

>  <Num_Resolved_Atoms>  (648) 
nan

>  <Num_Not_Resolved_Atoms>  (648) 
nan

$$$$
CHEMBL4061844
     RDKit          3D

  0  0  0  0  0  0  0  0  0  0999 V3000
M  V30 BEGIN CTAB
M  V30 COUNTS 24 25 0 0 0
M  V30 BEGIN ATOM
M  V30 1 N 0.404931 -1.697417 4.671087 0
M  V30 2 C 1.219243 -2.182735 3.562043 0
M  V30 3 C 0.938703 -1.433260 2.303296 0
M  V30 4 C -0.041765 -1.845846 1.407905 0
M  V30 5 C -0.312761 -1.161452 0.237742 0
M  V30 6 C 0.411395 -0.016600 -0.071802 0
M  V30 7 C 0.198540 0.773853 -1.283172 0
M  V30 8 C 0.145807 2.158576 -1.151361 0
M  V30 9 C -0.060629 2.652194 -2.425283 0
M  V30 10 O -0.129252 1.641310 -3.275609 0
M  V30 11 C 0.021145 0.513292 -2.626633 0
M  V30 12 C 1.389106 0.386674 0.830496 0
M  V30 13 Cl 2.367158 1.829933 0.531460 0
M  V30 14 C 1.664114 -0.297582 2.006109 0
M  V30 15 H 0.987529 -0.927376 5.111102 0
M  V30 16 H -0.424859 -1.203348 4.262242 0
M  V30 17 H 2.299901 -2.170965 3.827760 0
M  V30 18 H 0.923282 -3.250603 3.438282 0
M  V30 19 H -0.601376 -2.739130 1.656995 0
M  V30 20 H -1.070391 -1.481460 -0.452760 0
M  V30 21 H 0.220774 2.906402 -0.352027 0
M  V30 22 H -0.170087 3.630164 -2.840525 0
M  V30 23 H 0.036620 -0.539754 -2.900246 0
M  V30 24 H 2.435011 0.046876 2.686910 0
M  V30 END ATOM
M  V30 BEGIN BOND
M  V30 1 1 1 2
M  V30 2 1 2 3
M  V30 3 2 3 4
M  V30 4 1 4 5
M  V30 5 2 5 6
M  V30 6 1 6 7
M  V30 7 1 7 8
M  V30 8 2 8 9
M  V30 9 1 9 10
M  V30 10 1 10 11
M  V30 11 1 6 12
M  V30 12 1 12 13
M  V30 13 2 12 14
M  V30 14 1 14 3
M  V30 15 2 11 7
M  V30 16 1 1 15
M  V30 17 1 1 16
M  V30 18 1 2 17
M  V30 19 1 2 18
M  V30 20 1 4 19
M  V30 21 1 5 20
M  V30 22 1 8 21
M  V30 23 1 9 22
M  V30 24 1 11 23
M  V30 25 1 14 24
M  V30 END BOND
M  V30 END CTAB
M  END
>  <Dataset>  (649) 
ChEMBL_Kinases

>  <Ligand_Instance>  (649) 
nan

>  <PDB_ID>  (649) 
nan

>  <Standardized_SMILES>  (649) 
NCc1ccc(-c2ccoc2)c(Cl)c1

>  <Name>  (649) 
nan

>  <Pocket>  (649) 
nan

>  <ATP_Site>  (649) 
nan

>  <Peripheral>  (649) 
nan

>  <Num_H_Atoms_ProtBoundConf>  (649) 
nan

>  <Num_Resolved_Atoms>  (649) 
nan

>  <Num_Not_Resolved_Atoms>  (649) 
nan

$$$$
CHEMBL4061835
     RDKit          3D

  0  0  0  0  0  0  0  0  0  0999 V3000
M  V30 BEGIN CTAB
M  V30 COUNTS 58 61 0 0 0
M  V30 BEGIN ATOM
M  V30 1 C 3.207887 -0.793378 0.807566 0
M  V30 2 C 4.503590 -0.084035 0.430669 0
M  V30 3 C 5.627885 -1.031924 0.814504 0
M  V30 4 O 5.940040 -0.940314 2.162986 0
M  V30 5 C 6.447773 0.304109 2.503083 0
M  V30 6 C 5.996005 1.384752 1.544329 0
M  V30 7 N 4.600470 1.157621 1.147603 0
M  V30 8 C 4.107420 2.298103 0.439828 0
M  V30 9 C 2.692551 2.152727 0.017258 0
M  V30 10 C 2.202687 1.645831 -1.167177 0
M  V30 11 C 0.843815 1.581016 -1.401501 0
M  V30 12 C -0.055163 2.032946 -0.430859 0
M  V30 13 N -1.409690 1.869206 -0.889823 0
M  V30 14 C -1.879750 0.598009 -0.501541 0
M  V30 15 O -1.131296 -0.192535 0.149571 0
M  V30 16 C -3.243392 0.132608 -0.828310 0
M  V30 17 C -3.716378 -1.052920 -0.479304 0
M  V30 18 C -5.050759 -1.543228 -0.783383 0
M  V30 19 C -5.968106 -0.802439 -1.492381 0
M  V30 20 N -7.216609 -1.258136 -1.784377 0
M  V30 21 C -7.595241 -2.495837 -1.367449 0
M  V30 22 C -6.668191 -3.222708 -0.660762 0
M  V30 23 C -5.373464 -2.804814 -0.332619 0
M  V30 24 C -4.543156 -3.704072 0.427556 0
M  V30 25 C -4.442402 -5.041861 0.022185 0
M  V30 26 N -3.648144 -5.719526 0.834624 0
M  V30 27 N -3.218159 -4.882353 1.763607 0
M  V30 28 C -2.332852 -5.030577 2.916330 0
M  V30 29 C -3.747596 -3.651403 1.538749 0
M  V30 30 C 0.412310 2.535961 0.743384 0
M  V30 31 C 1.768799 2.596858 0.968631 0
M  V30 32 H 2.596428 -1.011585 -0.082942 0
M  V30 33 H 3.382668 -1.715432 1.389958 0
M  V30 34 H 2.573992 -0.141620 1.470460 0
M  V30 35 H 4.552118 0.003683 -0.667109 0
M  V30 36 H 6.544716 -0.858864 0.231764 0
M  V30 37 H 5.271243 -2.060278 0.609637 0
M  V30 38 H 7.547781 0.245050 2.476821 0
M  V30 39 H 6.156020 0.580022 3.527571 0
M  V30 40 H 6.118342 2.362408 2.033918 0
M  V30 41 H 6.610913 1.292380 0.628755 0
M  V30 42 H 4.774360 2.414880 -0.457169 0
M  V30 43 H 4.279680 3.204405 1.035349 0
M  V30 44 H 2.960676 1.319105 -1.866012 0
M  V30 45 H 0.615578 1.163794 -2.365261 0
M  V30 46 H -2.035923 2.513608 -1.426595 0
M  V30 47 H -3.877497 0.809790 -1.383587 0
M  V30 48 H -2.983943 -1.629155 0.065344 0
M  V30 49 H -5.742074 0.188095 -1.856866 0
M  V30 50 H -8.571796 -2.904553 -1.572144 0
M  V30 51 H -6.988093 -4.214100 -0.333538 0
M  V30 52 H -4.904919 -5.553039 -0.818954 0
M  V30 53 H -1.675692 -4.151755 3.043979 0
M  V30 54 H -1.689750 -5.929299 2.821936 0
M  V30 55 H -2.916603 -5.156289 3.846459 0
M  V30 56 H -3.639487 -2.713050 2.073976 0
M  V30 57 H -0.365485 2.850626 1.409401 0
M  V30 58 H 2.040472 3.015636 1.939137 0
M  V30 END ATOM
M  V30 BEGIN BOND
M  V30 1 1 1 2
M  V30 2 1 2 3
M  V30 3 1 3 4
M  V30 4 1 4 5
M  V30 5 1 5 6
M  V30 6 1 6 7
M  V30 7 1 7 8
M  V30 8 1 8 9
M  V30 9 2 9 10
M  V30 10 1 10 11
M  V30 11 2 11 12
M  V30 12 1 12 13
M  V30 13 1 13 14
M  V30 14 2 14 15
M  V30 15 1 14 16
M  V30 16 2 16 17
M  V30 17 1 17 18
M  V30 18 2 18 19
M  V30 19 1 19 20
M  V30 20 2 20 21
M  V30 21 1 21 22
M  V30 22 2 22 23
M  V30 23 1 23 24
M  V30 24 1 24 25
M  V30 25 2 25 26
M  V30 26 1 26 27
M  V30 27 1 27 28
M  V30 28 1 27 29
M  V30 29 1 12 30
M  V30 30 2 30 31
M  V30 31 1 7 2
M  V30 32 1 31 9
M  V30 33 1 23 18
M  V30 34 2 29 24
M  V30 35 1 1 32
M  V30 36 1 1 33
M  V30 37 1 1 34
M  V30 38 1 2 35
M  V30 39 1 3 36
M  V30 40 1 3 37
M  V30 41 1 5 38
M  V30 42 1 5 39
M  V30 43 1 6 40
M  V30 44 1 6 41
M  V30 45 1 8 42
M  V30 46 1 8 43
M  V30 47 1 10 44
M  V30 48 1 11 45
M  V30 49 1 13 46
M  V30 50 1 16 47
M  V30 51 1 17 48
M  V30 52 1 19 49
M  V30 53 1 21 50
M  V30 54 1 22 51
M  V30 55 1 25 52
M  V30 56 1 28 53
M  V30 57 1 28 54
M  V30 58 1 28 55
M  V30 59 1 29 56
M  V30 60 1 30 57
M  V30 61 1 31 58
M  V30 END BOND
M  V30 END CTAB
M  END
>  <Dataset>  (650) 
ChEMBL_Kinases

>  <Ligand_Instance>  (650) 
nan

>  <PDB_ID>  (650) 
nan

>  <Standardized_SMILES>  (650) 
CC1COCCN1Cc1ccc(NC(=O)/C=C/c2cnccc2-c2cnn(C)c2)cc1

>  <Name>  (650) 
nan

>  <Pocket>  (650) 
nan

>  <ATP_Site>  (650) 
nan

>  <Peripheral>  (650) 
nan

>  <Num_H_Atoms_ProtBoundConf>  (650) 
nan

>  <Num_Resolved_Atoms>  (650) 
nan

>  <Num_Not_Resolved_Atoms>  (650) 
nan

$$$$
CHEMBL4061829
     RDKit          3D

  0  0  0  0  0  0  0  0  0  0999 V3000
M  V30 BEGIN CTAB
M  V30 COUNTS 49 53 0 0 0
M  V30 BEGIN ATOM
M  V30 1 O 0.722807 -1.063251 6.615661 0
M  V30 2 C 0.779269 -0.740431 5.274600 0
M  V30 3 C 2.083789 -1.150259 4.616004 0
M  V30 4 C 2.013787 -0.744516 3.170831 0
M  V30 5 N 2.409727 0.444154 2.657434 0
M  V30 6 C 2.202021 0.461947 1.320917 0
M  V30 7 C 2.513228 1.570205 0.460381 0
M  V30 8 C 3.862453 1.863979 0.488254 0
M  V30 9 C 4.433377 2.894368 -0.255289 0
M  V30 10 C 3.568714 3.642892 -1.054115 0
M  V30 11 F 4.065161 4.660679 -1.802568 0
M  V30 12 C 2.198719 3.373245 -1.106427 0
M  V30 13 C 1.699366 2.339062 -0.345119 0
M  V30 14 C 1.649539 -0.775016 0.982016 0
M  V30 15 C 1.259634 -1.217445 -0.325407 0
M  V30 16 C 2.163677 -1.331912 -1.377823 0
M  V30 17 C 1.798593 -1.759521 -2.640338 0
M  V30 18 N 0.524400 -2.092406 -2.916487 0
M  V30 19 C -0.412337 -2.005985 -1.940157 0
M  V30 20 N -1.736350 -2.268877 -1.929061 0
M  V30 21 C -2.257249 -2.029505 -0.703393 0
M  V30 22 C -3.655169 -2.203370 -0.319703 0
M  V30 23 C -4.542595 -2.654101 -1.276744 0
M  V30 24 C -5.877221 -2.826983 -0.934711 0
M  V30 25 C -6.237058 -2.532195 0.361873 0
M  V30 26 C -5.352234 -2.076756 1.337568 0
M  V30 27 C -4.038365 -1.916660 0.965312 0
M  V30 28 C -1.209005 -1.596365 0.089303 0
M  V30 29 C -0.043416 -1.578431 -0.681046 0
M  V30 30 N 1.548761 -1.489416 2.143412 0
M  V30 31 H 0.201488 -0.329672 7.067493 0
M  V30 32 H -0.020787 -1.321161 4.764174 0
M  V30 33 H 0.639929 0.349098 5.110477 0
M  V30 34 H 2.979503 -0.779315 5.112414 0
M  V30 35 H 2.138254 -2.269061 4.601221 0
M  V30 36 H 4.639300 1.348743 1.075014 0
M  V30 37 H 5.473253 3.156177 -0.263304 0
M  V30 38 H 1.502983 3.927123 -1.708916 0
M  V30 39 H 0.649886 2.023310 -0.293717 0
M  V30 40 H 3.194227 -1.049440 -1.108386 0
M  V30 41 H 2.587121 -1.816001 -3.404898 0
M  V30 42 H -2.243783 -2.609161 -2.777829 0
M  V30 43 H -4.292693 -2.895267 -2.304638 0
M  V30 44 H -6.645889 -3.176332 -1.618249 0
M  V30 45 H -7.261803 -2.651146 0.673736 0
M  V30 46 H -5.661672 -1.854238 2.344977 0
M  V30 47 H -3.330737 -1.571772 1.677146 0
M  V30 48 H -1.263993 -1.309791 1.150324 0
M  V30 49 H 1.172292 -2.476673 2.273383 0
M  V30 END ATOM
M  V30 BEGIN BOND
M  V30 1 1 1 2
M  V30 2 1 2 3
M  V30 3 1 3 4
M  V30 4 2 4 5
M  V30 5 1 5 6
M  V30 6 1 6 7
M  V30 7 2 7 8
M  V30 8 1 8 9
M  V30 9 2 9 10
M  V30 10 1 10 11
M  V30 11 1 10 12
M  V30 12 2 12 13
M  V30 13 2 6 14
M  V30 14 1 14 15
M  V30 15 2 15 16
M  V30 16 1 16 17
M  V30 17 2 17 18
M  V30 18 1 18 19
M  V30 19 1 19 20
M  V30 20 1 20 21
M  V30 21 1 21 22
M  V30 22 2 22 23
M  V30 23 1 23 24
M  V30 24 2 24 25
M  V30 25 1 25 26
M  V30 26 2 26 27
M  V30 27 2 21 28
M  V30 28 1 28 29
M  V30 29 1 14 30
M  V30 30 1 30 4
M  V30 31 1 13 7
M  V30 32 1 29 15
M  V30 33 2 29 19
M  V30 34 1 27 22
M  V30 35 1 1 31
M  V30 36 1 2 32
M  V30 37 1 2 33
M  V30 38 1 3 34
M  V30 39 1 3 35
M  V30 40 1 8 36
M  V30 41 1 9 37
M  V30 42 1 12 38
M  V30 43 1 13 39
M  V30 44 1 16 40
M  V30 45 1 17 41
M  V30 46 1 20 42
M  V30 47 1 23 43
M  V30 48 1 24 44
M  V30 49 1 25 45
M  V30 50 1 26 46
M  V30 51 1 27 47
M  V30 52 1 28 48
M  V30 53 1 30 49
M  V30 END BOND
M  V30 END CTAB
M  END
>  <Dataset>  (651) 
ChEMBL_Kinases

>  <Ligand_Instance>  (651) 
nan

>  <PDB_ID>  (651) 
nan

>  <Standardized_SMILES>  (651) 
OCCc1nc(-c2ccc(F)cc2)c(-c2ccnc3[nH]c(-c4ccccc4)cc23)[nH]1

>  <Name>  (651) 
nan

>  <Pocket>  (651) 
nan

>  <ATP_Site>  (651) 
nan

>  <Peripheral>  (651) 
nan

>  <Num_H_Atoms_ProtBoundConf>  (651) 
nan

>  <Num_Resolved_Atoms>  (651) 
nan

>  <Num_Not_Resolved_Atoms>  (651) 
nan

$$$$
CHEMBL4061814
     RDKit          3D

  0  0  0  0  0  0  0  0  0  0999 V3000
M  V30 BEGIN CTAB
M  V30 COUNTS 32 35 0 0 0
M  V30 BEGIN ATOM
M  V30 1 O 1.671133 -6.399304 0.981550 0
M  V30 2 C 1.306161 -5.498841 1.767463 0
M  V30 3 N 1.119009 -5.558523 3.165408 0
M  V30 4 C 0.699395 -4.265324 3.576885 0
M  V30 5 S 0.356461 -3.836470 5.113394 0
M  V30 6 N 0.647933 -3.465768 2.403904 0
M  V30 7 C 0.996243 -4.133484 1.289669 0
M  V30 8 C 1.012779 -3.541863 0.043784 0
M  V30 9 C 0.644576 -2.213163 0.029231 0
M  V30 10 C 0.641657 -1.566154 -1.190453 0
M  V30 11 C 0.286007 -0.238088 -1.292529 0
M  V30 12 C -0.083148 0.514774 -0.199113 0
M  V30 13 C -0.476098 1.918340 -0.189309 0
M  V30 14 C 0.115150 2.760503 -1.137166 0
M  V30 15 C -0.219705 4.097379 -1.178517 0
M  V30 16 C -1.148762 4.545975 -0.253452 0
M  V30 17 C -1.741735 3.731142 0.687761 0
M  V30 18 C -1.396996 2.393152 0.717838 0
M  V30 19 C -0.068992 -0.171220 1.019435 0
M  V30 20 C 0.279996 -1.486849 1.143465 0
M  V30 21 C 0.289837 -2.153314 2.351358 0
M  V30 22 O -0.048233 -1.462317 3.351026 0
M  V30 23 H 1.263045 -6.389809 3.760471 0
M  V30 24 H 1.295608 -4.101100 -0.832043 0
M  V30 25 H 0.910445 -2.042353 -2.122573 0
M  V30 26 H 0.271938 0.306835 -2.239580 0
M  V30 27 H 0.840197 2.367820 -1.845390 0
M  V30 28 H 0.257530 4.717576 -1.924581 0
M  V30 29 H -1.368992 5.608046 -0.338966 0
M  V30 30 H -2.467722 4.140664 1.391879 0
M  V30 31 H -1.843120 1.728770 1.442199 0
M  V30 32 H -0.343713 0.348670 1.914324 0
M  V30 END ATOM
M  V30 BEGIN BOND
M  V30 1 2 1 2
M  V30 2 1 2 3
M  V30 3 1 3 4
M  V30 4 2 4 5
M  V30 5 1 4 6
M  V30 6 1 6 7
M  V30 7 2 7 8
M  V30 8 1 8 9
M  V30 9 2 9 10
M  V30 10 1 10 11
M  V30 11 2 11 12
M  V30 12 1 12 13
M  V30 13 2 13 14
M  V30 14 1 14 15
M  V30 15 2 15 16
M  V30 16 1 16 17
M  V30 17 2 17 18
M  V30 18 1 12 19
M  V30 19 2 19 20
M  V30 20 1 20 21
M  V30 21 2 21 22
M  V30 22 1 7 2
M  V30 23 1 20 9
M  V30 24 1 21 6
M  V30 25 1 18 13
M  V30 26 1 3 23
M  V30 27 1 8 24
M  V30 28 1 10 25
M  V30 29 1 11 26
M  V30 30 1 14 27
M  V30 31 1 15 28
M  V30 32 1 16 29
M  V30 33 1 17 30
M  V30 34 1 18 31
M  V30 35 1 19 32
M  V30 END BOND
M  V30 END CTAB
M  END
>  <Dataset>  (652) 
ChEMBL_Kinases

>  <Ligand_Instance>  (652) 
nan

>  <PDB_ID>  (652) 
nan

>  <Standardized_SMILES>  (652) 
O=C1NC(=S)n2c1cc1ccc(-c3ccccc3)cc1c2=O

>  <Name>  (652) 
nan

>  <Pocket>  (652) 
nan

>  <ATP_Site>  (652) 
nan

>  <Peripheral>  (652) 
nan

>  <Num_H_Atoms_ProtBoundConf>  (652) 
nan

>  <Num_Resolved_Atoms>  (652) 
nan

>  <Num_Not_Resolved_Atoms>  (652) 
nan

$$$$
CHEMBL4061811
     RDKit          3D

  0  0  0  0  0  0  0  0  0  0999 V3000
M  V30 BEGIN CTAB
M  V30 COUNTS 66 70 0 0 0
M  V30 BEGIN ATOM
M  V30 1 O 6.643261 2.224439 3.045967 0
M  V30 2 C 5.705252 1.397278 2.903990 0
M  V30 3 N 5.874543 0.093782 3.409957 0
M  V30 4 C 7.073230 -0.349424 4.085548 0
M  V30 5 C 6.902289 -1.804484 4.495164 0
M  V30 6 O 5.811636 -1.884670 5.344264 0
M  V30 7 C 6.670198 -2.666508 3.273469 0
M  V30 8 O 6.494772 -3.988971 3.701355 0
M  V30 9 C 4.509869 1.872224 2.217493 0
M  V30 10 C 4.453202 3.167978 1.791853 0
M  V30 11 C 3.371404 3.718713 1.130053 0
M  V30 12 C 2.260855 2.939797 0.865531 0
M  V30 13 C 2.298669 1.609890 1.293177 0
M  V30 14 C 3.402426 1.099570 1.952569 0
M  V30 15 C 1.264939 0.556590 1.145063 0
M  V30 16 O 1.447851 -0.559178 1.728726 0
M  V30 17 C 0.046695 0.734087 0.362629 0
M  V30 18 C -0.390021 -0.521866 -0.078535 0
M  V30 19 C -1.553433 -0.540886 -0.851223 0
M  V30 20 C -2.193389 0.658839 -1.129824 0
M  V30 21 N -3.361360 0.626058 -1.910089 0
M  V30 22 C -3.949612 -0.518888 -2.514185 0
M  V30 23 C -5.204196 -1.054883 -2.309265 0
M  V30 24 C -5.567164 -2.181962 -3.017427 0
M  V30 25 N -6.881241 -2.693656 -2.761564 0
M  V30 26 C -6.755399 -3.626420 -1.694561 0
M  V30 27 O -5.578763 -3.794145 -1.227641 0
M  V30 28 C -7.804697 -4.452112 -1.027021 0
M  V30 29 C -7.435868 -5.801157 -0.527092 0
M  V30 30 C -7.613229 -4.692961 0.459470 0
M  V30 31 C -4.730795 -2.792875 -3.918279 0
M  V30 32 F -5.176748 -3.890475 -4.561013 0
M  V30 33 C -3.474870 -2.260984 -4.126814 0
M  V30 34 C -3.099463 -1.135661 -3.426654 0
M  V30 35 F -1.825315 -0.739057 -3.755677 0
M  V30 36 C -1.753884 1.875449 -0.691505 0
M  V30 37 C -0.607207 1.920988 0.073321 0
M  V30 38 C -0.205471 3.281168 0.506632 0
M  V30 39 C 1.199106 3.655032 0.158353 0
M  V30 40 H 5.065022 -0.545160 3.263654 0
M  V30 41 H 7.963897 -0.341905 3.396952 0
M  V30 42 H 7.338869 0.262784 4.965305 0
M  V30 43 H 7.790581 -2.171188 5.047952 0
M  V30 44 H 4.990920 -1.867153 4.815592 0
M  V30 45 H 5.751616 -2.389311 2.740392 0
M  V30 46 H 7.571196 -2.661852 2.631968 0
M  V30 47 H 6.372883 -4.036220 4.682470 0
M  V30 48 H 5.276179 3.860005 1.952219 0
M  V30 49 H 3.335271 4.746095 0.796646 0
M  V30 50 H 3.400902 0.072208 2.268813 0
M  V30 51 H 0.176174 -1.412572 0.189047 0
M  V30 52 H -1.871344 -1.518227 -1.178233 0
M  V30 53 H -3.935952 1.460635 -2.134913 0
M  V30 54 H -5.793253 -0.512373 -1.587295 0
M  V30 55 H -7.872528 -2.602505 -3.098483 0
M  V30 56 H -8.825238 -4.337227 -1.396482 0
M  V30 57 H -8.190327 -6.596991 -0.520408 0
M  V30 58 H -6.395511 -6.164454 -0.717403 0
M  V30 59 H -8.524397 -4.710567 1.112004 0
M  V30 60 H -6.681735 -4.246066 0.916223 0
M  V30 61 H -2.873508 -2.793119 -4.848044 0
M  V30 62 H -2.263189 2.778369 -0.919898 0
M  V30 63 H -0.344845 3.325821 1.593834 0
M  V30 64 H -0.871253 4.041062 0.055629 0
M  V30 65 H 1.297569 4.739883 0.404976 0
M  V30 66 H 1.400707 3.565069 -0.931494 0
M  V30 END ATOM
M  V30 BEGIN BOND
M  V30 1 2 1 2
M  V30 2 1 2 3
M  V30 3 1 3 4
M  V30 4 1 4 5
M  V30 5 1 5 6
M  V30 6 1 5 7
M  V30 7 1 7 8
M  V30 8 1 2 9
M  V30 9 2 9 10
M  V30 10 1 10 11
M  V30 11 2 11 12
M  V30 12 1 12 13
M  V30 13 2 13 14
M  V30 14 1 13 15
M  V30 15 2 15 16
M  V30 16 1 15 17
M  V30 17 2 17 18
M  V30 18 1 18 19
M  V30 19 2 19 20
M  V30 20 1 20 21
M  V30 21 1 21 22
M  V30 22 2 22 23
M  V30 23 1 23 24
M  V30 24 1 24 25
M  V30 25 1 25 26
M  V30 26 2 26 27
M  V30 27 1 26 28
M  V30 28 1 28 29
M  V30 29 1 29 30
M  V30 30 2 24 31
M  V30 31 1 31 32
M  V30 32 1 31 33
M  V30 33 2 33 34
M  V30 34 1 34 35
M  V30 35 1 20 36
M  V30 36 2 36 37
M  V30 37 1 37 38
M  V30 38 1 38 39
M  V30 39 1 14 9
M  V30 40 1 37 17
M  V30 41 1 39 12
M  V30 42 1 34 22
M  V30 43 1 30 28
M  V30 44 1 3 40
M  V30 45 1 4 41
M  V30 46 1 4 42
M  V30 47 1 5 43
M  V30 48 1 6 44
M  V30 49 1 7 45
M  V30 50 1 7 46
M  V30 51 1 8 47
M  V30 52 1 10 48
M  V30 53 1 11 49
M  V30 54 1 14 50
M  V30 55 1 18 51
M  V30 56 1 19 52
M  V30 57 1 21 53
M  V30 58 1 23 54
M  V30 59 1 25 55
M  V30 60 1 28 56
M  V30 61 1 29 57
M  V30 62 1 29 58
M  V30 63 1 30 59
M  V30 64 1 30 60
M  V30 65 1 33 61
M  V30 66 1 36 62
M  V30 67 1 38 63
M  V30 68 1 38 64
M  V30 69 1 39 65
M  V30 70 1 39 66
M  V30 END BOND
M  V30 END CTAB
M  END
>  <Dataset>  (653) 
ChEMBL_Kinases

>  <Ligand_Instance>  (653) 
nan

>  <PDB_ID>  (653) 
nan

>  <Standardized_SMILES>  (653) 
O=C(NCC(O)CO)c1ccc2c(c1)C(=O)c1ccc(Nc3cc(NC(=O)C4CC4)c(F)cc3F)cc1CC2

>  <Name>  (653) 
nan

>  <Pocket>  (653) 
nan

>  <ATP_Site>  (653) 
nan

>  <Peripheral>  (653) 
nan

>  <Num_H_Atoms_ProtBoundConf>  (653) 
nan

>  <Num_Resolved_Atoms>  (653) 
nan

>  <Num_Not_Resolved_Atoms>  (653) 
nan

$$$$
CHEMBL98131
     RDKit          3D

  0  0  0  0  0  0  0  0  0  0999 V3000
M  V30 BEGIN CTAB
M  V30 COUNTS 45 48 0 0 0
M  V30 BEGIN ATOM
M  V30 1 C -1.587022 -4.958351 3.856846 0
M  V30 2 O -2.413772 -4.792837 2.723398 0
M  V30 3 C -1.896200 -4.150398 1.608414 0
M  V30 4 C -0.592874 -3.703731 1.664761 0
M  V30 5 C -0.084915 -3.063278 0.546154 0
M  V30 6 C -0.819094 -2.853726 -0.613431 0
M  V30 7 C -0.284814 -2.216699 -1.700467 0
M  V30 8 N 1.062646 -1.786830 -1.564076 0
M  V30 9 C 1.322043 -0.470399 -1.045169 0
M  V30 10 C 2.592560 0.045197 -0.872366 0
M  V30 11 C 2.769371 1.319785 -0.368035 0
M  V30 12 C 1.697145 2.119743 -0.020705 0
M  V30 13 O 1.838501 3.411964 0.491590 0
M  V30 14 C 1.937641 3.591598 1.883871 0
M  V30 15 C 0.678297 3.761648 2.422553 0
M  V30 16 C 0.535334 3.958044 3.800002 0
M  V30 17 C 1.678796 3.974983 4.584442 0
M  V30 18 C 2.930591 3.802511 4.023415 0
M  V30 19 C 3.074775 3.608618 2.665262 0
M  V30 20 C 0.413513 1.635203 -0.180766 0
M  V30 21 C 0.274330 0.358210 -0.687037 0
M  V30 22 C -1.013539 -2.013498 -2.839708 0
M  V30 23 C -0.415362 -1.342080 -3.954535 0
M  V30 24 N 0.068378 -0.818855 -4.861668 0
M  V30 25 C -2.308364 -2.489369 -2.817136 0
M  V30 26 N -2.855707 -3.113773 -1.772489 0
M  V30 27 C -2.122180 -3.306061 -0.655702 0
M  V30 28 C -2.640688 -3.952453 0.468135 0
M  V30 29 H -2.201874 -5.370972 4.695210 0
M  V30 30 H -0.732074 -5.629707 3.655090 0
M  V30 31 H -1.187387 -3.955043 4.118986 0
M  V30 32 H 0.078381 -3.813516 2.524883 0
M  V30 33 H 0.954650 -2.702326 0.579665 0
M  V30 34 H 1.895918 -2.336082 -1.805223 0
M  V30 35 H 3.427297 -0.586804 -1.146442 0
M  V30 36 H 3.775131 1.700176 -0.242326 0
M  V30 37 H -0.267887 3.766890 1.916541 0
M  V30 38 H -0.428041 4.100274 4.302328 0
M  V30 39 H 1.657656 4.123284 5.674593 0
M  V30 40 H 3.840420 3.810186 4.604475 0
M  V30 41 H 3.977952 3.464540 2.114487 0
M  V30 42 H -0.476688 2.200905 0.068283 0
M  V30 43 H -0.734320 -0.055711 -0.826052 0
M  V30 44 H -2.911099 -2.341328 -3.710426 0
M  V30 45 H -3.678591 -4.302940 0.410519 0
M  V30 END ATOM
M  V30 BEGIN BOND
M  V30 1 1 1 2
M  V30 2 1 2 3
M  V30 3 2 3 4
M  V30 4 1 4 5
M  V30 5 2 5 6
M  V30 6 1 6 7
M  V30 7 1 7 8
M  V30 8 1 8 9
M  V30 9 2 9 10
M  V30 10 1 10 11
M  V30 11 2 11 12
M  V30 12 1 12 13
M  V30 13 1 13 14
M  V30 14 2 14 15
M  V30 15 1 15 16
M  V30 16 2 16 17
M  V30 17 1 17 18
M  V30 18 2 18 19
M  V30 19 1 12 20
M  V30 20 2 20 21
M  V30 21 2 7 22
M  V30 22 1 22 23
M  V30 23 3 23 24
M  V30 24 1 22 25
M  V30 25 2 25 26
M  V30 26 1 26 27
M  V30 27 2 27 28
M  V30 28 1 28 3
M  V30 29 1 27 6
M  V30 30 1 21 9
M  V30 31 1 19 14
M  V30 32 1 1 29
M  V30 33 1 1 30
M  V30 34 1 1 31
M  V30 35 1 4 32
M  V30 36 1 5 33
M  V30 37 1 8 34
M  V30 38 1 10 35
M  V30 39 1 11 36
M  V30 40 1 15 37
M  V30 41 1 16 38
M  V30 42 1 17 39
M  V30 43 1 18 40
M  V30 44 1 19 41
M  V30 45 1 20 42
M  V30 46 1 21 43
M  V30 47 1 25 44
M  V30 48 1 28 45
M  V30 END BOND
M  V30 END CTAB
M  END
>  <Dataset>  (654) 
ChEMBL_Kinases

>  <Ligand_Instance>  (654) 
nan

>  <PDB_ID>  (654) 
nan

>  <Standardized_SMILES>  (654) 
COc1ccc2c(Nc3ccc(Oc4ccccc4)cc3)c(C#N)cnc2c1

>  <Name>  (654) 
nan

>  <Pocket>  (654) 
nan

>  <ATP_Site>  (654) 
nan

>  <Peripheral>  (654) 
nan

>  <Num_H_Atoms_ProtBoundConf>  (654) 
nan

>  <Num_Resolved_Atoms>  (654) 
nan

>  <Num_Not_Resolved_Atoms>  (654) 
nan

$$$$
CHEMBL4862671
     RDKit          3D

  0  0  0  0  0  0  0  0  0  0999 V3000
M  V30 BEGIN CTAB
M  V30 COUNTS 41 44 0 0 0
M  V30 BEGIN ATOM
M  V30 1 O 4.203962 -3.520581 3.544562 0
M  V30 2 C 3.390976 -4.283653 2.960613 0
M  V30 3 O 3.695041 -5.606825 3.152556 0
M  V30 4 C 2.264780 -3.785013 2.177279 0
M  V30 5 C 1.407049 -4.676568 1.559775 0
M  V30 6 C 0.342471 -4.180143 0.819743 0
M  V30 7 C 0.149537 -2.828986 0.706391 0
M  V30 8 C 1.013620 -1.953956 1.328083 0
M  V30 9 C 2.094143 -2.427843 2.079689 0
M  V30 10 C 0.908850 -0.579485 1.277097 0
M  V30 11 C -0.149300 -0.087410 0.541542 0
M  V30 12 N -0.276650 1.346318 0.475650 0
M  V30 13 C -0.254020 2.211450 -0.692979 0
M  V30 14 C 0.900071 3.201412 -0.547405 0
M  V30 15 C 0.586819 4.030199 0.699003 0
M  V30 16 C 0.691796 3.098448 1.881953 0
M  V30 17 C -0.456511 2.094850 1.727978 0
M  V30 18 C -1.020877 -0.953876 -0.085274 0
M  V30 19 C -2.053559 -0.365448 -0.801313 0
M  V30 20 C -2.909771 -1.277411 -1.418056 0
M  V30 21 N -2.778856 -2.621667 -1.348203 0
M  V30 22 C -1.759633 -3.169874 -0.640960 0
M  V30 23 C -0.880968 -2.322437 -0.009498 0
M  V30 24 H 3.883808 -5.965813 4.098272 0
M  V30 25 H 1.599415 -5.740416 1.677458 0
M  V30 26 H -0.261380 -4.940975 0.382817 0
M  V30 27 H 2.782664 -1.758960 2.574603 0
M  V30 28 H 1.601492 0.077213 1.774708 0
M  V30 29 H -1.172320 2.832483 -0.704338 0
M  V30 30 H -0.122549 1.591491 -1.600631 0
M  V30 31 H 1.870819 2.693929 -0.463139 0
M  V30 32 H 0.846312 3.911478 -1.415162 0
M  V30 33 H -0.499100 4.313984 0.590945 0
M  V30 34 H 1.216915 4.921137 0.760664 0
M  V30 35 H 0.570169 3.602108 2.844905 0
M  V30 36 H 1.627807 2.519985 1.793563 0
M  V30 37 H -1.434414 2.569321 1.809407 0
M  V30 38 H -0.351768 1.402535 2.593878 0
M  V30 39 H -2.233758 0.676440 -0.910776 0
M  V30 40 H -3.742222 -0.899759 -1.996849 0
M  V30 41 H -1.738026 -4.243730 -0.643472 0
M  V30 END ATOM
M  V30 BEGIN BOND
M  V30 1 2 1 2
M  V30 2 1 2 3
M  V30 3 1 2 4
M  V30 4 2 4 5
M  V30 5 1 5 6
M  V30 6 2 6 7
M  V30 7 1 7 8
M  V30 8 2 8 9
M  V30 9 1 8 10
M  V30 10 2 10 11
M  V30 11 1 11 12
M  V30 12 1 12 13
M  V30 13 1 13 14
M  V30 14 1 14 15
M  V30 15 1 15 16
M  V30 16 1 16 17
M  V30 17 1 11 18
M  V30 18 2 18 19
M  V30 19 1 19 20
M  V30 20 2 20 21
M  V30 21 1 21 22
M  V30 22 2 22 23
M  V30 23 1 9 4
M  V30 24 1 17 12
M  V30 25 1 23 18
M  V30 26 1 23 7
M  V30 27 1 3 24
M  V30 28 1 5 25
M  V30 29 1 6 26
M  V30 30 1 9 27
M  V30 31 1 10 28
M  V30 32 1 13 29
M  V30 33 1 13 30
M  V30 34 1 14 31
M  V30 35 1 14 32
M  V30 36 1 15 33
M  V30 37 1 15 34
M  V30 38 1 16 35
M  V30 39 1 16 36
M  V30 40 1 17 37
M  V30 41 1 17 38
M  V30 42 1 19 39
M  V30 43 1 20 40
M  V30 44 1 22 41
M  V30 END BOND
M  V30 END CTAB
M  END
>  <Dataset>  (655) 
ChEMBL_Kinases

>  <Ligand_Instance>  (655) 
nan

>  <PDB_ID>  (655) 
nan

>  <Standardized_SMILES>  (655) 
O=C(O)c1ccc2c(c1)cc(N1CCCCC1)c1ccncc12

>  <Name>  (655) 
nan

>  <Pocket>  (655) 
nan

>  <ATP_Site>  (655) 
nan

>  <Peripheral>  (655) 
nan

>  <Num_H_Atoms_ProtBoundConf>  (655) 
nan

>  <Num_Resolved_Atoms>  (655) 
nan

>  <Num_Not_Resolved_Atoms>  (655) 
nan

$$$$
CHEMBL400077
     RDKit          3D

  0  0  0  0  0  0  0  0  0  0999 V3000
M  V30 BEGIN CTAB
M  V30 COUNTS 40 43 0 0 0
M  V30 BEGIN ATOM
M  V30 1 C -1.348861 -5.821836 4.064445 0
M  V30 2 N -1.102627 -4.669061 3.324872 0
M  V30 3 C -0.854855 -3.510792 2.581791 0
M  V30 4 N 0.260967 -2.912129 2.231190 0
M  V30 5 C 0.317616 -1.800123 1.502313 0
M  V30 6 C 1.485896 -1.199727 1.147572 0
M  V30 7 C 1.308721 -0.100782 0.412634 0
M  V30 8 C 2.322723 0.784163 -0.144545 0
M  V30 9 C 3.647591 0.560859 0.067699 0
M  V30 10 C 4.642705 1.391173 -0.459093 0
M  V30 11 C 4.149523 2.440953 -1.203320 0
M  V30 12 C 2.810528 2.679388 -1.426499 0
M  V30 13 C 2.383747 3.844443 -2.247523 0
M  V30 14 N 2.179732 5.034571 -1.443311 0
M  V30 15 C 1.862060 1.841459 -0.892185 0
M  V30 16 S -0.439669 0.114682 0.205785 0
M  V30 17 C -0.910306 -1.357944 1.164326 0
M  V30 18 N -2.108437 -1.886792 1.466284 0
M  V30 19 C -3.318947 -1.430818 1.119540 0
M  V30 20 C -3.633484 -0.223329 0.315055 0
M  V30 21 C -4.176870 -2.347594 1.688565 0
M  V30 22 N -3.448683 -3.267641 2.321612 0
M  V30 23 C -2.118435 -3.020570 2.211156 0
M  V30 24 H -2.478094 -5.993019 4.226717 0
M  V30 25 H -0.999432 -5.829525 5.139612 0
M  V30 26 H -1.023489 -6.756708 3.521770 0
M  V30 27 H -0.072765 -4.886207 3.513867 0
M  V30 28 H 2.498402 -1.499986 1.384698 0
M  V30 29 H 3.971009 -0.284862 0.663602 0
M  V30 30 H 5.676897 1.199414 -0.280286 0
M  V30 31 H 4.849214 3.150262 -1.661709 0
M  V30 32 H 1.393023 3.591903 -2.693084 0
M  V30 33 H 3.100040 4.067733 -3.059983 0
M  V30 34 H 1.862344 4.770914 -0.478313 0
M  V30 35 H 3.061969 5.562294 -1.387513 0
M  V30 36 H 0.826042 2.066742 -1.092946 0
M  V30 37 H -3.026644 0.601981 0.706811 0
M  V30 38 H -4.706245 -0.007937 0.328166 0
M  V30 39 H -3.384423 -0.410314 -0.769875 0
M  V30 40 H -5.255005 -2.333686 1.635930 0
M  V30 END ATOM
M  V30 BEGIN BOND
M  V30 1 1 1 2
M  V30 2 1 2 3
M  V30 3 2 3 4
M  V30 4 1 4 5
M  V30 5 1 5 6
M  V30 6 2 6 7
M  V30 7 1 7 8
M  V30 8 2 8 9
M  V30 9 1 9 10
M  V30 10 2 10 11
M  V30 11 1 11 12
M  V30 12 1 12 13
M  V30 13 1 13 14
M  V30 14 2 12 15
M  V30 15 1 7 16
M  V30 16 1 16 17
M  V30 17 1 17 18
M  V30 18 1 18 19
M  V30 19 1 19 20
M  V30 20 2 19 21
M  V30 21 1 21 22
M  V30 22 2 22 23
M  V30 23 1 23 3
M  V30 24 2 17 5
M  V30 25 1 23 18
M  V30 26 1 15 8
M  V30 27 1 1 24
M  V30 28 1 1 25
M  V30 29 1 1 26
M  V30 30 1 2 27
M  V30 31 1 6 28
M  V30 32 1 9 29
M  V30 33 1 10 30
M  V30 34 1 11 31
M  V30 35 1 13 32
M  V30 36 1 13 33
M  V30 37 1 14 34
M  V30 38 1 14 35
M  V30 39 1 15 36
M  V30 40 1 20 37
M  V30 41 1 20 38
M  V30 42 1 20 39
M  V30 43 1 21 40
M  V30 END BOND
M  V30 END CTAB
M  END
>  <Dataset>  (656) 
ChEMBL_Kinases

>  <Ligand_Instance>  (656) 
nan

>  <PDB_ID>  (656) 
nan

>  <Standardized_SMILES>  (656) 
CNc1nc2cc(-c3cccc(CN)c3)sc2n2c(C)cnc12

>  <Name>  (656) 
nan

>  <Pocket>  (656) 
nan

>  <ATP_Site>  (656) 
nan

>  <Peripheral>  (656) 
nan

>  <Num_H_Atoms_ProtBoundConf>  (656) 
nan

>  <Num_Resolved_Atoms>  (656) 
nan

>  <Num_Not_Resolved_Atoms>  (656) 
nan

$$$$
CHEMBL399966
     RDKit          3D

  0  0  0  0  0  0  0  0  0  0999 V3000
M  V30 BEGIN CTAB
M  V30 COUNTS 35 37 0 0 0
M  V30 BEGIN ATOM
M  V30 1 C 0.251193 -2.665110 4.626989 0
M  V30 2 N 0.116552 -3.411804 3.412629 0
M  V30 3 C -0.093721 -2.553244 2.299924 0
M  V30 4 C 1.106798 -1.756622 1.932358 0
M  V30 5 C 0.741970 -0.907631 0.763512 0
M  V30 6 C 1.090445 -1.350512 -0.497010 0
M  V30 7 C 0.721574 -0.574621 -1.575952 0
M  V30 8 C 1.091272 -1.065084 -2.808238 0
M  V30 9 C 0.729926 -0.305276 -3.909067 0
M  V30 10 N 0.046077 0.870731 -3.848442 0
M  V30 11 C -0.278597 1.282353 -2.601380 0
M  V30 12 O -0.897256 2.363872 -2.658386 0
M  V30 13 C 0.034795 0.601086 -1.457735 0
M  V30 14 C -0.302065 1.027908 -0.217489 0
M  V30 15 C -0.983124 2.207826 -0.083631 0
M  V30 16 C -1.343482 2.693003 1.168179 0
M  V30 17 Br -2.287849 4.313222 1.515211 0
M  V30 18 C -0.970358 1.909029 2.261723 0
M  V30 19 C -0.285662 0.714786 2.179890 0
M  V30 20 C 0.040038 0.293011 0.894317 0
M  V30 21 H 0.860998 -1.760579 4.487077 0
M  V30 22 H 0.689441 -3.354110 5.404185 0
M  V30 23 H -0.802935 -2.384709 4.936979 0
M  V30 24 H 0.911019 -4.058934 3.264485 0
M  V30 25 H -0.983952 -1.884390 2.450711 0
M  V30 26 H -0.346147 -3.182069 1.395581 0
M  V30 27 H 1.914216 -2.446853 1.612999 0
M  V30 28 H 1.551447 -1.147960 2.745916 0
M  V30 29 H 1.643917 -2.293309 -0.609237 0
M  V30 30 H 1.639470 -1.998667 -2.933249 0
M  V30 31 H 1.025074 -0.691869 -4.885269 0
M  V30 32 H -0.161278 1.341385 -4.743374 0
M  V30 33 H -1.323566 2.894278 -0.829932 0
M  V30 34 H -1.221540 2.235056 3.262439 0
M  V30 35 H -0.030525 0.174351 3.072577 0
M  V30 END ATOM
M  V30 BEGIN BOND
M  V30 1 1 1 2
M  V30 2 1 2 3
M  V30 3 1 3 4
M  V30 4 1 4 5
M  V30 5 2 5 6
M  V30 6 1 6 7
M  V30 7 1 7 8
M  V30 8 2 8 9
M  V30 9 1 9 10
M  V30 10 1 10 11
M  V30 11 2 11 12
M  V30 12 1 11 13
M  V30 13 1 13 14
M  V30 14 2 14 15
M  V30 15 1 15 16
M  V30 16 1 16 17
M  V30 17 2 16 18
M  V30 18 1 18 19
M  V30 19 2 19 20
M  V30 20 1 20 5
M  V30 21 2 13 7
M  V30 22 1 20 14
M  V30 23 1 1 21
M  V30 24 1 1 22
M  V30 25 1 1 23
M  V30 26 1 2 24
M  V30 27 1 3 25
M  V30 28 1 3 26
M  V30 29 1 4 27
M  V30 30 1 4 28
M  V30 31 1 6 29
M  V30 32 1 8 30
M  V30 33 1 9 31
M  V30 34 1 10 32
M  V30 35 1 15 33
M  V30 36 1 18 34
M  V30 37 1 19 35
M  V30 END BOND
M  V30 END CTAB
M  END
>  <Dataset>  (657) 
ChEMBL_Kinases

>  <Ligand_Instance>  (657) 
nan

>  <PDB_ID>  (657) 
nan

>  <Standardized_SMILES>  (657) 
CNCCc1cc2cc[nH]c(=O)c2c2cc(Br)ccc12

>  <Name>  (657) 
nan

>  <Pocket>  (657) 
nan

>  <ATP_Site>  (657) 
nan

>  <Peripheral>  (657) 
nan

>  <Num_H_Atoms_ProtBoundConf>  (657) 
nan

>  <Num_Resolved_Atoms>  (657) 
nan

>  <Num_Not_Resolved_Atoms>  (657) 
nan

$$$$
CHEMBL399933
     RDKit          3D

  0  0  0  0  0  0  0  0  0  0999 V3000
M  V30 BEGIN CTAB
M  V30 COUNTS 61 65 0 0 0
M  V30 BEGIN ATOM
M  V30 1 N 9.573585 -1.668291 2.548205 0
M  V30 2 C 9.252071 -0.459200 3.229294 0
M  V30 3 O 10.067310 0.172628 3.953198 0
M  V30 4 C 7.909674 0.097172 3.095667 0
M  V30 5 C 7.594999 1.270656 3.755838 0
M  V30 6 C 6.325258 1.841172 3.658818 0
M  V30 7 C 5.348401 1.236752 2.892509 0
M  V30 8 N 4.067243 1.528842 2.606638 0
M  V30 9 C 3.575587 0.576642 1.791376 0
M  V30 10 C 2.234220 0.448278 1.204236 0
M  V30 11 C 1.898554 -0.609151 0.377777 0
M  V30 12 C 0.623786 -0.683108 -0.148384 0
M  V30 13 C -0.331597 0.297681 0.144035 0
M  V30 14 O -1.559704 0.072569 -0.464777 0
M  V30 15 C -2.677550 0.928613 -0.315900 0
M  V30 16 C -3.873990 0.425062 -1.096741 0
M  V30 17 C -5.068122 1.330416 -0.944164 0
M  V30 18 C -6.340166 0.550161 -0.908868 0
M  V30 19 C -6.360515 -0.665084 -1.795980 0
M  V30 20 N -5.168119 -1.474461 -1.648582 0
M  V30 21 C -5.466779 -2.868588 -1.486684 0
M  V30 22 C -4.274662 -3.735818 -1.332004 0
M  V30 23 C -3.691729 -4.275009 -2.465377 0
M  V30 24 C -2.567279 -5.098722 -2.379476 0
M  V30 25 C -2.039613 -5.370545 -1.134416 0
M  V30 26 Cl -0.615600 -6.405634 -0.941276 0
M  V30 27 C -2.634362 -4.824317 -0.018881 0
M  V30 28 Cl -1.991621 -5.146865 1.587712 0
M  V30 29 C -3.760580 -3.995386 -0.063851 0
M  V30 30 C -4.284997 -0.954360 -0.627388 0
M  V30 31 C 0.006790 1.360526 0.975090 0
M  V30 32 C 1.287188 1.411152 1.487896 0
M  V30 33 N 4.578232 -0.318055 1.573510 0
M  V30 34 C 5.691221 0.078005 2.252643 0
M  V30 35 C 6.951429 -0.526742 2.323397 0
M  V30 36 H 9.165513 -2.285093 3.291147 0
M  V30 37 H 10.032596 -1.956465 1.657052 0
M  V30 38 H 8.334854 1.771438 4.364736 0
M  V30 39 H 6.088530 2.775535 4.189646 0
M  V30 40 H 3.517118 2.350351 2.945327 0
M  V30 41 H 2.665126 -1.368118 0.161679 0
M  V30 42 H 0.437684 -1.541717 -0.787068 0
M  V30 43 H -2.980911 0.856535 0.770060 0
M  V30 44 H -2.471933 1.985395 -0.483723 0
M  V30 45 H -3.559608 0.349780 -2.157739 0
M  V30 46 H -4.976339 1.889689 0.019090 0
M  V30 47 H -5.038492 2.124632 -1.730712 0
M  V30 48 H -6.662395 0.313119 0.144702 0
M  V30 49 H -7.152541 1.230355 -1.300052 0
M  V30 50 H -7.211097 -1.310952 -1.433148 0
M  V30 51 H -6.550223 -0.414426 -2.838018 0
M  V30 52 H -6.076363 -3.161873 -2.379170 0
M  V30 53 H -6.176483 -2.948268 -0.616673 0
M  V30 54 H -4.082113 -4.078479 -3.434556 0
M  V30 55 H -2.073118 -5.545390 -3.231249 0
M  V30 56 H -4.195731 -3.587641 0.837289 0
M  V30 57 H -4.808623 -0.922785 0.329595 0
M  V30 58 H -3.389305 -1.628024 -0.639586 0
M  V30 59 H -0.784243 2.074415 1.152148 0
M  V30 60 H 1.480132 2.262153 2.124088 0
M  V30 61 H 7.161587 -1.441773 1.795473 0
M  V30 END ATOM
M  V30 BEGIN BOND
M  V30 1 1 1 2
M  V30 2 2 2 3
M  V30 3 1 2 4
M  V30 4 2 4 5
M  V30 5 1 5 6
M  V30 6 2 6 7
M  V30 7 1 7 8
M  V30 8 1 8 9
M  V30 9 1 9 10
M  V30 10 2 10 11
M  V30 11 1 11 12
M  V30 12 2 12 13
M  V30 13 1 13 14
M  V30 14 1 14 15
M  V30 15 1 15 16
M  V30 16 1 16 17
M  V30 17 1 17 18
M  V30 18 1 18 19
M  V30 19 1 19 20
M  V30 20 1 20 21
M  V30 21 1 21 22
M  V30 22 2 22 23
M  V30 23 1 23 24
M  V30 24 2 24 25
M  V30 25 1 25 26
M  V30 26 1 25 27
M  V30 27 1 27 28
M  V30 28 2 27 29
M  V30 29 1 20 30
M  V30 30 1 13 31
M  V30 31 2 31 32
M  V30 32 2 9 33
M  V30 33 1 33 34
M  V30 34 2 34 35
M  V30 35 1 35 4
M  V30 36 1 34 7
M  V30 37 1 32 10
M  V30 38 1 30 16
M  V30 39 1 29 22
M  V30 40 1 1 36
M  V30 41 1 1 37
M  V30 42 1 5 38
M  V30 43 1 6 39
M  V30 44 1 8 40
M  V30 45 1 11 41
M  V30 46 1 12 42
M  V30 47 1 15 43
M  V30 48 1 15 44
M  V30 49 1 16 45
M  V30 50 1 17 46
M  V30 51 1 17 47
M  V30 52 1 18 48
M  V30 53 1 18 49
M  V30 54 1 19 50
M  V30 55 1 19 51
M  V30 56 1 21 52
M  V30 57 1 21 53
M  V30 58 1 23 54
M  V30 59 1 24 55
M  V30 60 1 29 56
M  V30 61 1 30 57
M  V30 62 1 30 58
M  V30 63 1 31 59
M  V30 64 1 32 60
M  V30 65 1 35 61
M  V30 END BOND
M  V30 END CTAB
M  END
>  <Dataset>  (658) 
ChEMBL_Kinases

>  <Ligand_Instance>  (658) 
nan

>  <PDB_ID>  (658) 
nan

>  <Standardized_SMILES>  (658) 
NC(=O)c1ccc2[nH]c(-c3ccc(OCC4CCCN(Cc5ccc(Cl)c(Cl)c5)C4)cc3)nc2c1

>  <Name>  (658) 
nan

>  <Pocket>  (658) 
nan

>  <ATP_Site>  (658) 
nan

>  <Peripheral>  (658) 
nan

>  <Num_H_Atoms_ProtBoundConf>  (658) 
nan

>  <Num_Resolved_Atoms>  (658) 
nan

>  <Num_Not_Resolved_Atoms>  (658) 
nan

$$$$
CHEMBL399902
     RDKit          3D

  0  0  0  0  0  0  0  0  0  0999 V3000
M  V30 BEGIN CTAB
M  V30 COUNTS 27 30 0 0 0
M  V30 BEGIN ATOM
M  V30 1 O -2.065403 -0.738948 3.002611 0
M  V30 2 C -0.905627 -1.067025 2.699024 0
M  V30 3 N -0.341839 -1.780862 3.683835 0
M  V30 4 C 0.939397 -2.213288 3.491431 0
M  V30 5 C 1.697305 -1.973894 2.366067 0
M  V30 6 C 1.074690 -1.231199 1.371690 0
M  V30 7 C 1.809608 -0.979789 0.241084 0
M  V30 8 N 3.058348 -1.310843 -0.131125 0
M  V30 9 C 3.243958 -0.786598 -1.357858 0
M  V30 10 N 2.144554 -0.133756 -1.768360 0
M  V30 11 C 1.235880 -0.246637 -0.774836 0
M  V30 12 C -0.070365 0.190456 -0.570968 0
M  V30 13 C -0.588374 0.924292 -1.635067 0
M  V30 14 C -1.881512 1.373585 -1.467114 0
M  V30 15 C -2.664202 1.140417 -0.333663 0
M  V30 16 F -3.921297 1.653897 -0.327085 0
M  V30 17 C -2.070244 0.404616 0.670681 0
M  V30 18 C -0.791065 -0.065655 0.557302 0
M  V30 19 C -0.209627 -0.792473 1.553814 0
M  V30 20 H -0.776945 -2.054274 4.607666 0
M  V30 21 H 1.426893 -2.794777 4.269965 0
M  V30 22 H 2.705621 -2.350246 2.288270 0
M  V30 23 H 3.777941 -1.864515 0.395704 0
M  V30 24 H 4.109660 -0.822164 -2.012063 0
M  V30 25 H -0.034506 1.137509 -2.535635 0
M  V30 26 H -2.306948 1.950852 -2.289099 0
M  V30 27 H -2.750240 0.286958 1.481963 0
M  V30 END ATOM
M  V30 BEGIN BOND
M  V30 1 2 1 2
M  V30 2 1 2 3
M  V30 3 1 3 4
M  V30 4 2 4 5
M  V30 5 1 5 6
M  V30 6 2 6 7
M  V30 7 1 7 8
M  V30 8 1 8 9
M  V30 9 2 9 10
M  V30 10 1 10 11
M  V30 11 2 11 12
M  V30 12 1 12 13
M  V30 13 2 13 14
M  V30 14 1 14 15
M  V30 15 1 15 16
M  V30 16 2 15 17
M  V30 17 1 17 18
M  V30 18 2 18 19
M  V30 19 1 19 2
M  V30 20 1 19 6
M  V30 21 1 11 7
M  V30 22 1 18 12
M  V30 23 1 3 20
M  V30 24 1 4 21
M  V30 25 1 5 22
M  V30 26 1 8 23
M  V30 27 1 9 24
M  V30 28 1 13 25
M  V30 29 1 14 26
M  V30 30 1 17 27
M  V30 END BOND
M  V30 END CTAB
M  END
>  <Dataset>  (659) 
ChEMBL_Kinases

>  <Ligand_Instance>  (659) 
nan

>  <PDB_ID>  (659) 
nan

>  <Standardized_SMILES>  (659) 
O=c1[nH]ccc2c3[nH]cnc3c3ccc(F)cc3c12

>  <Name>  (659) 
nan

>  <Pocket>  (659) 
nan

>  <ATP_Site>  (659) 
nan

>  <Peripheral>  (659) 
nan

>  <Num_H_Atoms_ProtBoundConf>  (659) 
nan

>  <Num_Resolved_Atoms>  (659) 
nan

>  <Num_Not_Resolved_Atoms>  (659) 
nan

$$$$
CHEMBL94965
     RDKit          3D

  0  0  0  0  0  0  0  0  0  0999 V3000
M  V30 BEGIN CTAB
M  V30 COUNTS 64 68 0 0 0
M  V30 BEGIN ATOM
M  V30 1 N 4.079485 -6.456150 3.185253 0
M  V30 2 C 3.829813 -5.313663 3.251736 0
M  V30 3 C 3.519300 -3.912727 3.318797 0
M  V30 4 C 3.553743 -3.219949 4.524610 0
M  V30 5 N 3.268864 -1.907205 4.628170 0
M  V30 6 C 2.928528 -1.178775 3.551054 0
M  V30 7 C 2.615680 0.184773 3.584885 0
M  V30 8 C 2.261522 0.896659 2.428940 0
M  V30 9 O 2.014258 2.183801 2.757767 0
M  V30 10 C 1.626730 3.274458 2.009187 0
M  V30 11 C 0.298625 3.165178 1.313347 0
M  V30 12 C -0.031623 4.435071 0.513704 0
M  V30 13 N -1.282174 4.265497 -0.111935 0
M  V30 14 C -2.444922 4.211061 0.677295 0
M  V30 15 C -3.725499 4.146558 -0.110494 0
M  V30 16 O -3.646236 5.052941 -1.141587 0
M  V30 17 C -2.732146 4.576036 -2.071341 0
M  V30 18 C -1.373832 4.340529 -1.507994 0
M  V30 19 C 2.244028 0.162731 1.262809 0
M  V30 20 C 2.547379 -1.179027 1.202667 0
M  V30 21 C 2.891192 -1.852690 2.353832 0
M  V30 22 C 3.174279 -3.202144 2.185885 0
M  V30 23 N 3.105897 -3.817614 0.913186 0
M  V30 24 C 1.854216 -4.317873 0.455799 0
M  V30 25 C 0.763999 -4.137180 1.286964 0
M  V30 26 C -0.490021 -4.585090 0.923217 0
M  V30 27 C -0.605343 -5.216423 -0.297927 0
M  V30 28 O -1.829631 -5.707550 -0.762916 0
M  V30 29 C -2.675628 -4.894020 -1.533596 0
M  V30 30 C -3.634179 -4.084990 -0.953954 0
M  V30 31 C -4.474812 -3.276919 -1.711581 0
M  V30 32 C -4.360056 -3.271695 -3.090983 0
M  V30 33 C -3.396890 -4.086753 -3.648133 0
M  V30 34 C -2.552868 -4.895949 -2.915542 0
M  V30 35 C 0.470809 -5.415879 -1.160151 0
M  V30 36 C 1.734138 -4.953189 -0.770621 0
M  V30 37 H 3.823902 -3.758026 5.437723 0
M  V30 38 H 2.695260 0.562161 4.617097 0
M  V30 39 H 2.434962 3.607335 1.310293 0
M  V30 40 H 1.524167 4.153004 2.714710 0
M  V30 41 H -0.520937 3.009759 2.061478 0
M  V30 42 H 0.230769 2.314192 0.613010 0
M  V30 43 H -0.098972 5.274770 1.245322 0
M  V30 44 H 0.734523 4.616400 -0.253992 0
M  V30 45 H -2.482403 5.161435 1.287597 0
M  V30 46 H -2.418688 3.400136 1.464249 0
M  V30 47 H -4.560426 4.481660 0.555337 0
M  V30 48 H -3.932627 3.105909 -0.434079 0
M  V30 49 H -3.129344 3.578316 -2.418497 0
M  V30 50 H -2.766811 5.235556 -2.961260 0
M  V30 51 H -0.920137 3.411862 -1.965073 0
M  V30 52 H -0.733047 5.184673 -1.869727 0
M  V30 53 H 1.973934 0.762190 0.416189 0
M  V30 54 H 2.480145 -1.587660 0.201462 0
M  V30 55 H 3.939512 -3.920276 0.293142 0
M  V30 56 H 0.834505 -3.651663 2.234441 0
M  V30 57 H -1.398220 -4.489220 1.505761 0
M  V30 58 H -3.719251 -4.093035 0.122255 0
M  V30 59 H -5.221303 -2.647960 -1.244851 0
M  V30 60 H -4.987195 -2.663528 -3.719374 0
M  V30 61 H -3.267086 -4.118766 -4.725146 0
M  V30 62 H -1.802284 -5.529115 -3.372406 0
M  V30 63 H 0.390817 -5.903072 -2.105671 0
M  V30 64 H 2.580077 -5.094251 -1.416630 0
M  V30 END ATOM
M  V30 BEGIN BOND
M  V30 1 3 1 2
M  V30 2 1 2 3
M  V30 3 2 3 4
M  V30 4 1 4 5
M  V30 5 2 5 6
M  V30 6 1 6 7
M  V30 7 2 7 8
M  V30 8 1 8 9
M  V30 9 1 9 10
M  V30 10 1 10 11
M  V30 11 1 11 12
M  V30 12 1 12 13
M  V30 13 1 13 14
M  V30 14 1 14 15
M  V30 15 1 15 16
M  V30 16 1 16 17
M  V30 17 1 17 18
M  V30 18 1 8 19
M  V30 19 2 19 20
M  V30 20 1 20 21
M  V30 21 2 21 22
M  V30 22 1 22 23
M  V30 23 1 23 24
M  V30 24 2 24 25
M  V30 25 1 25 26
M  V30 26 2 26 27
M  V30 27 1 27 28
M  V30 28 1 28 29
M  V30 29 2 29 30
M  V30 30 1 30 31
M  V30 31 2 31 32
M  V30 32 1 32 33
M  V30 33 2 33 34
M  V30 34 1 27 35
M  V30 35 2 35 36
M  V30 36 1 22 3
M  V30 37 1 36 24
M  V30 38 1 21 6
M  V30 39 1 34 29
M  V30 40 1 18 13
M  V30 41 1 4 37
M  V30 42 1 7 38
M  V30 43 1 10 39
M  V30 44 1 10 40
M  V30 45 1 11 41
M  V30 46 1 11 42
M  V30 47 1 12 43
M  V30 48 1 12 44
M  V30 49 1 14 45
M  V30 50 1 14 46
M  V30 51 1 15 47
M  V30 52 1 15 48
M  V30 53 1 17 49
M  V30 54 1 17 50
M  V30 55 1 18 51
M  V30 56 1 18 52
M  V30 57 1 19 53
M  V30 58 1 20 54
M  V30 59 1 23 55
M  V30 60 1 25 56
M  V30 61 1 26 57
M  V30 62 1 30 58
M  V30 63 1 31 59
M  V30 64 1 32 60
M  V30 65 1 33 61
M  V30 66 1 34 62
M  V30 67 1 35 63
M  V30 68 1 36 64
M  V30 END BOND
M  V30 END CTAB
M  END
>  <Dataset>  (660) 
ChEMBL_Kinases

>  <Ligand_Instance>  (660) 
nan

>  <PDB_ID>  (660) 
nan

>  <Standardized_SMILES>  (660) 
N#Cc1cnc2cc(OCCCN3CCOCC3)ccc2c1Nc1ccc(Oc2ccccc2)cc1

>  <Name>  (660) 
nan

>  <Pocket>  (660) 
nan

>  <ATP_Site>  (660) 
nan

>  <Peripheral>  (660) 
nan

>  <Num_H_Atoms_ProtBoundConf>  (660) 
nan

>  <Num_Resolved_Atoms>  (660) 
nan

>  <Num_Not_Resolved_Atoms>  (660) 
nan

$$$$
CHEMBL399761
     RDKit          3D

  0  0  0  0  0  0  0  0  0  0999 V3000
M  V30 BEGIN CTAB
M  V30 COUNTS 41 44 0 0 0
M  V30 BEGIN ATOM
M  V30 1 C -0.119220 -5.805549 2.625951 0
M  V30 2 O 1.169561 -5.386326 3.016319 0
M  V30 3 C 1.545853 -4.089419 2.712773 0
M  V30 4 C 0.663352 -3.268086 2.051451 0
M  V30 5 C 1.070198 -1.985287 1.765707 0
M  V30 6 C 2.314276 -1.442520 2.093439 0
M  V30 7 C 2.727149 -0.061685 1.775416 0
M  V30 8 N 1.803367 0.553979 1.170013 0
M  V30 9 N 1.857635 1.875947 0.723571 0
M  V30 10 C 2.991900 2.552185 0.959824 0
M  V30 11 N 2.876321 3.790743 0.467372 0
M  V30 12 N 1.661404 3.897269 -0.083095 0
M  V30 13 C 1.034705 2.723492 0.073060 0
M  V30 14 C -0.308084 2.258779 -0.326653 0
M  V30 15 C -1.465646 2.710361 0.309379 0
M  V30 16 C -2.712818 2.282349 -0.057715 0
M  V30 17 C -2.844997 1.377906 -1.085152 0
M  V30 18 O -4.144648 1.005368 -1.383137 0
M  V30 19 C -4.383292 0.081917 -2.421742 0
M  V30 20 C -1.726069 0.905374 -1.741403 0
M  V30 21 C -0.483466 1.356522 -1.347230 0
M  V30 22 S 4.452337 1.960139 1.794317 0
M  V30 23 C 4.102837 0.241669 2.236231 0
M  V30 24 C 3.115687 -2.372028 2.759278 0
M  V30 25 C 2.786921 -3.651294 3.076443 0
M  V30 26 H -0.930195 -5.227374 3.114780 0
M  V30 27 H -0.193218 -5.656629 1.531122 0
M  V30 28 H -0.178567 -6.893686 2.854817 0
M  V30 29 H -0.320502 -3.602734 1.758651 0
M  V30 30 H 0.365843 -1.343636 1.242812 0
M  V30 31 H -1.352913 3.422197 1.117136 0
M  V30 32 H -3.563097 2.677783 0.482808 0
M  V30 33 H -3.733643 -0.806413 -2.294203 0
M  V30 34 H -4.106738 0.532232 -3.393062 0
M  V30 35 H -5.433287 -0.268245 -2.395447 0
M  V30 36 H -1.870832 0.187554 -2.552829 0
M  V30 37 H 0.364803 0.958266 -1.890797 0
M  V30 38 H 4.071031 0.193048 3.353134 0
M  V30 39 H 4.847760 -0.458021 1.808900 0
M  V30 40 H 4.112379 -2.033897 3.056215 0
M  V30 41 H 3.488752 -4.288301 3.596626 0
M  V30 END ATOM
M  V30 BEGIN BOND
M  V30 1 1 1 2
M  V30 2 1 2 3
M  V30 3 2 3 4
M  V30 4 1 4 5
M  V30 5 2 5 6
M  V30 6 1 6 7
M  V30 7 2 7 8
M  V30 8 1 8 9
M  V30 9 1 9 10
M  V30 10 2 10 11
M  V30 11 1 11 12
M  V30 12 2 12 13
M  V30 13 1 13 14
M  V30 14 2 14 15
M  V30 15 1 15 16
M  V30 16 2 16 17
M  V30 17 1 17 18
M  V30 18 1 18 19
M  V30 19 1 17 20
M  V30 20 2 20 21
M  V30 21 1 10 22
M  V30 22 1 22 23
M  V30 23 1 6 24
M  V30 24 2 24 25
M  V30 25 1 25 3
M  V30 26 1 23 7
M  V30 27 1 13 9
M  V30 28 1 21 14
M  V30 29 1 1 26
M  V30 30 1 1 27
M  V30 31 1 1 28
M  V30 32 1 4 29
M  V30 33 1 5 30
M  V30 34 1 15 31
M  V30 35 1 16 32
M  V30 36 1 19 33
M  V30 37 1 19 34
M  V30 38 1 19 35
M  V30 39 1 20 36
M  V30 40 1 21 37
M  V30 41 1 23 38
M  V30 42 1 23 39
M  V30 43 1 24 40
M  V30 44 1 25 41
M  V30 END BOND
M  V30 END CTAB
M  END
>  <Dataset>  (661) 
ChEMBL_Kinases

>  <Ligand_Instance>  (661) 
nan

>  <PDB_ID>  (661) 
nan

>  <Standardized_SMILES>  (661) 
COc1ccc(C2=Nn3c(nnc3-c3ccc(OC)cc3)SC2)cc1

>  <Name>  (661) 
nan

>  <Pocket>  (661) 
nan

>  <ATP_Site>  (661) 
nan

>  <Peripheral>  (661) 
nan

>  <Num_H_Atoms_ProtBoundConf>  (661) 
nan

>  <Num_Resolved_Atoms>  (661) 
nan

>  <Num_Not_Resolved_Atoms>  (661) 
nan

$$$$
CHEMBL94857
     RDKit          3D

  0  0  0  0  0  0  0  0  0  0999 V3000
M  V30 BEGIN CTAB
M  V30 COUNTS 65 65 0 0 0
M  V30 BEGIN ATOM
M  V30 1 C 3.964744 -6.076231 2.060608 0
M  V30 2 C 3.551277 -5.340320 0.813700 0
M  V30 3 C 2.636617 -4.165261 1.182826 0
M  V30 4 C 3.399085 -3.223942 2.104201 0
M  V30 5 C 2.555787 -2.038399 2.510077 0
M  V30 6 C 2.099691 -1.216302 1.325612 0
M  V30 7 C 3.301759 -0.709349 0.602810 0
M  V30 8 C 2.948802 0.134072 -0.605929 0
M  V30 9 C 2.147103 -0.648850 -1.596998 0
M  V30 10 C 1.792907 0.192120 -2.808881 0
M  V30 11 C 0.978320 1.406830 -2.428282 0
M  V30 12 C -0.321119 1.085166 -1.761427 0
M  V30 13 C -1.096532 2.355185 -1.404809 0
M  V30 14 C -2.371305 2.036924 -0.751074 0
M  V30 15 C -2.828682 2.349705 0.448180 0
M  V30 16 C -2.055318 3.138241 1.397631 0
M  V30 17 O -0.969364 3.685363 1.185325 0
M  V30 18 O -2.792014 3.136004 2.559956 0
M  V30 19 C -3.740587 2.057162 2.549425 0
M  V30 20 C -4.111116 2.021001 1.087037 0
M  V30 21 C -5.056561 3.166091 0.808549 0
M  V30 22 O -6.311599 3.003563 1.347774 0
M  V30 23 C -4.692635 0.721308 0.630089 0
M  V30 24 O -3.853273 -0.357800 0.892188 0
M  V30 25 C -4.288561 -1.640850 0.508161 0
M  V30 26 C -3.479487 -2.872903 0.734814 0
M  V30 27 O -5.421972 -1.776875 -0.060194 0
M  V30 28 H 4.917075 -5.631316 2.468925 0
M  V30 29 H 4.080737 -7.148701 1.816906 0
M  V30 30 H 3.199597 -5.882419 2.838811 0
M  V30 31 H 3.107868 -5.965813 0.040242 0
M  V30 32 H 4.485444 -4.908364 0.376498 0
M  V30 33 H 2.391232 -3.674126 0.226780 0
M  V30 34 H 1.722997 -4.542813 1.682359 0
M  V30 35 H 4.379923 -2.970719 1.695854 0
M  V30 36 H 3.594962 -3.790428 3.060865 0
M  V30 37 H 3.116100 -1.438497 3.238403 0
M  V30 38 H 1.658118 -2.453588 3.014078 0
M  V30 39 H 1.496936 -1.897359 0.663819 0
M  V30 40 H 1.433414 -0.408028 1.691961 0
M  V30 41 H 3.894713 -0.073252 1.290360 0
M  V30 42 H 3.892015 -1.604332 0.277695 0
M  V30 43 H 2.315337 0.972886 -0.246391 0
M  V30 44 H 3.890995 0.478227 -1.054883 0
M  V30 45 H 1.215706 -0.975164 -1.133599 0
M  V30 46 H 2.665767 -1.588520 -1.916423 0
M  V30 47 H 2.724912 0.485442 -3.307906 0
M  V30 48 H 1.236879 -0.427931 -3.542446 0
M  V30 49 H 0.766895 1.929652 -3.403671 0
M  V30 50 H 1.554998 2.081768 -1.772418 0
M  V30 51 H -0.923806 0.467208 -2.461883 0
M  V30 52 H -0.183745 0.462717 -0.853341 0
M  V30 53 H -1.379669 2.777029 -2.419558 0
M  V30 54 H -0.474425 3.114641 -0.956480 0
M  V30 55 H -3.057187 1.435506 -1.369066 0
M  V30 56 H -3.204416 1.160472 2.896380 0
M  V30 57 H -4.613711 2.297436 3.195062 0
M  V30 58 H -5.126892 3.407135 -0.291636 0
M  V30 59 H -4.596936 4.073011 1.272879 0
M  V30 60 H -6.336935 2.369118 2.106446 0
M  V30 61 H -5.619753 0.553663 1.246639 0
M  V30 62 H -5.023361 0.827624 -0.404267 0
M  V30 63 H -2.601694 -2.608613 1.351980 0
M  V30 64 H -4.078266 -3.674168 1.211661 0
M  V30 65 H -3.188852 -3.258840 -0.257213 0
M  V30 END ATOM
M  V30 BEGIN BOND
M  V30 1 1 1 2
M  V30 2 1 2 3
M  V30 3 1 3 4
M  V30 4 1 4 5
M  V30 5 1 5 6
M  V30 6 1 6 7
M  V30 7 1 7 8
M  V30 8 1 8 9
M  V30 9 1 9 10
M  V30 10 1 10 11
M  V30 11 1 11 12
M  V30 12 1 12 13
M  V30 13 1 13 14
M  V30 14 2 14 15
M  V30 15 1 15 16
M  V30 16 2 16 17
M  V30 17 1 16 18
M  V30 18 1 18 19
M  V30 19 1 19 20
M  V30 20 1 20 21
M  V30 21 1 21 22
M  V30 22 1 20 23
M  V30 23 1 23 24
M  V30 24 1 24 25
M  V30 25 1 25 26
M  V30 26 2 25 27
M  V30 27 1 20 15
M  V30 28 1 1 28
M  V30 29 1 1 29
M  V30 30 1 1 30
M  V30 31 1 2 31
M  V30 32 1 2 32
M  V30 33 1 3 33
M  V30 34 1 3 34
M  V30 35 1 4 35
M  V30 36 1 4 36
M  V30 37 1 5 37
M  V30 38 1 5 38
M  V30 39 1 6 39
M  V30 40 1 6 40
M  V30 41 1 7 41
M  V30 42 1 7 42
M  V30 43 1 8 43
M  V30 44 1 8 44
M  V30 45 1 9 45
M  V30 46 1 9 46
M  V30 47 1 10 47
M  V30 48 1 10 48
M  V30 49 1 11 49
M  V30 50 1 11 50
M  V30 51 1 12 51
M  V30 52 1 12 52
M  V30 53 1 13 53
M  V30 54 1 13 54
M  V30 55 1 14 55
M  V30 56 1 19 56
M  V30 57 1 19 57
M  V30 58 1 21 58
M  V30 59 1 21 59
M  V30 60 1 22 60
M  V30 61 1 23 61
M  V30 62 1 23 62
M  V30 63 1 26 63
M  V30 64 1 26 64
M  V30 65 1 26 65
M  V30 END BOND
M  V30 END CTAB
M  END
>  <Dataset>  (662) 
ChEMBL_Kinases

>  <Ligand_Instance>  (662) 
nan

>  <PDB_ID>  (662) 
nan

>  <Standardized_SMILES>  (662) 
CCCCCCCCCCCCC/C=C1\C(=O)OCC1(CO)COC(C)=O

>  <Name>  (662) 
nan

>  <Pocket>  (662) 
nan

>  <ATP_Site>  (662) 
nan

>  <Peripheral>  (662) 
nan

>  <Num_H_Atoms_ProtBoundConf>  (662) 
nan

>  <Num_Resolved_Atoms>  (662) 
nan

>  <Num_Not_Resolved_Atoms>  (662) 
nan

$$$$
CHEMBL399696
     RDKit          3D

  0  0  0  0  0  0  0  0  0  0999 V3000
M  V30 BEGIN CTAB
M  V30 COUNTS 106 114 0 0 0
M  V30 BEGIN ATOM
M  V30 1 C -0.324668 7.606356 -7.527112 0
M  V30 2 C -0.379079 6.206898 -7.034354 0
M  V30 3 O -1.019489 5.957555 -5.955710 0
M  V30 4 N 0.205137 5.048098 -7.615135 0
M  V30 5 C -0.120365 3.931017 -6.780528 0
M  V30 6 N 0.517500 3.418028 -5.763947 0
M  V30 7 C -0.028736 2.377042 -5.175609 0
M  V30 8 C 0.783210 1.862631 -4.012110 0
M  V30 9 C -1.234349 1.830017 -5.602531 0
M  V30 10 S -2.084612 0.491194 -4.964417 0
M  V30 11 O -1.143752 -0.557212 -4.521898 0
M  V30 12 O -2.947748 -0.084178 -6.062925 0
M  V30 13 O -3.165154 1.003879 -3.736654 0
M  V30 14 C -2.835623 2.198465 -3.115047 0
M  V30 15 C -3.285275 3.437756 -3.576799 0
M  V30 16 C -2.987506 4.653685 -2.997927 0
M  V30 17 C -2.181516 4.642084 -1.874045 0
M  V30 18 C -1.726124 3.414907 -1.402626 0
M  V30 19 C -2.032706 2.200462 -1.993553 0
M  V30 20 N -1.412628 1.265454 -1.252698 0
M  V30 21 C -0.726592 1.773869 -0.228314 0
M  V30 22 C 0.009497 1.139545 0.741370 0
M  V30 23 C 0.289355 -0.286685 0.841557 0
M  V30 24 C -0.001606 -1.202533 -0.106203 0
M  V30 25 C -0.646849 -2.482271 0.193601 0 CFG=1
M  V30 26 O -2.040348 -2.431689 -0.126319 0
M  V30 27 C -0.183372 -3.680530 -0.541481 0
M  V30 28 C 1.050457 -3.584070 -1.381217 0
M  V30 29 C 2.208575 -3.040744 -0.736587 0
M  V30 30 C 3.409980 -3.144214 -0.277399 0
M  V30 31 C 4.055672 -4.433898 -0.410908 0
M  V30 32 C 4.354856 -5.124836 0.870465 0
M  V30 33 C 4.833736 -4.375579 2.032811 0
M  V30 34 C 3.841303 -3.697505 2.919954 0
M  V30 35 N 2.963725 -2.717358 2.421360 0
M  V30 36 C 3.123369 -1.421095 2.997434 0
M  V30 37 C 2.339604 -0.484534 2.099530 0
M  V30 38 C 0.886561 -0.761893 2.119440 0
M  V30 39 C 0.502844 -2.167129 2.467893 0 CFG=1
M  V30 40 C -0.122391 -2.156761 3.885008 0
M  V30 41 C -1.578332 -2.354012 3.757622 0 CFG=2
M  V30 42 C -2.142666 -3.611103 4.333535 0
M  V30 43 C -3.526795 -3.371022 4.896378 0
M  V30 44 C -3.996252 -1.978329 4.759288 0
M  V30 45 O -4.118243 -1.407896 5.851803 0
M  V30 46 C -4.401970 -0.933106 3.784749 0
M  V30 47 C -4.037011 -1.380892 2.397206 0
M  V30 48 C -2.551758 -1.116514 2.089568 0
M  V30 49 N -1.862463 -2.284195 2.341432 0
M  V30 50 C -0.674818 -2.674198 1.694945 0 CFG=1
M  V30 51 C 1.616559 -3.148315 2.585247 0
M  V30 52 N 0.557541 1.965004 1.650918 0
M  V30 53 C 0.389004 3.293438 1.596867 0
M  V30 54 C -0.344492 3.950407 0.631594 0
M  V30 55 C -0.921931 3.134046 -0.316866 0
M  V30 56 S -1.627178 2.903752 -6.975842 0
M  V30 57 H -1.321222 7.830641 -7.976052 0
M  V30 58 H 0.498038 7.801065 -8.211333 0
M  V30 59 H -0.214269 8.324166 -6.661160 0
M  V30 60 H 0.737936 5.202720 -8.494954 0
M  V30 61 H 1.764509 1.466129 -4.340041 0
M  V30 62 H 0.244762 1.036023 -3.542368 0
M  V30 63 H 1.014351 2.661169 -3.278611 0
M  V30 64 H -3.919767 3.461796 -4.459556 0
M  V30 65 H -3.384251 5.561284 -3.429864 0
M  V30 66 H -1.919324 5.569997 -1.382777 0
M  V30 67 H -1.541114 0.274771 -1.535863 0
M  V30 68 H 0.315606 -0.855792 -1.107453 0
M  V30 69 H -2.087644 -2.317846 -1.116315 0
M  V30 70 H -0.047201 -4.583212 0.099593 0
M  V30 71 H -0.959457 -4.084535 -1.284592 0
M  V30 72 H 0.790655 -2.959068 -2.284811 0
M  V30 73 H 1.293841 -4.586545 -1.856359 0
M  V30 74 H 2.181109 -2.009274 -0.460412 0
M  V30 75 H 4.196675 -2.574340 0.189108 0
M  V30 76 H 5.000786 -4.340279 -0.996888 0
M  V30 77 H 3.454111 -5.151752 -1.073813 0
M  V30 78 H 3.441160 -5.716896 1.217025 0
M  V30 79 H 5.086509 -5.969758 0.658809 0
M  V30 80 H 5.413346 -5.068496 2.730683 0
M  V30 81 H 5.616545 -3.605764 1.788462 0
M  V30 82 H 4.408728 -3.235602 3.789359 0
M  V30 83 H 3.252048 -4.529468 3.449490 0
M  V30 84 H 2.666425 -1.460481 4.023775 0
M  V30 85 H 4.153716 -1.036777 3.011036 0
M  V30 86 H 2.821509 -0.474026 1.117437 0
M  V30 87 H 2.586980 0.546517 2.520062 0
M  V30 88 H 0.516718 -0.098612 2.967589 0
M  V30 89 H 0.146000 -1.175400 4.375886 0
M  V30 90 H 0.278699 -2.917318 4.546298 0
M  V30 91 H -2.077082 -1.519705 4.317578 0
M  V30 92 H -2.185248 -4.392486 3.546770 0
M  V30 93 H -1.510914 -3.975595 5.179970 0
M  V30 94 H -3.617679 -3.736790 5.941541 0
M  V30 95 H -4.261895 -4.006528 4.324046 0
M  V30 96 H -3.857777 0.043362 3.948661 0
M  V30 97 H -5.470720 -0.658171 3.858758 0
M  V30 98 H -4.243210 -2.448622 2.234356 0
M  V30 99 H -4.703534 -0.827394 1.690225 0
M  V30 100 H -2.256923 -0.339835 2.860905 0
M  V30 101 H -2.547491 -0.602037 1.148289 0
M  V30 102 H -0.640091 -3.791557 1.819476 0
M  V30 103 H 1.379415 -4.005906 1.879087 0
M  V30 104 H 1.632822 -3.705080 3.578875 0
M  V30 105 H 0.894747 3.836546 2.405763 0
M  V30 106 H -0.437350 5.019126 0.648656 0
M  V30 END ATOM
M  V30 BEGIN BOND
M  V30 1 1 1 2
M  V30 2 2 2 3
M  V30 3 1 2 4
M  V30 4 1 4 5
M  V30 5 2 5 6
M  V30 6 1 6 7
M  V30 7 1 7 8
M  V30 8 2 7 9
M  V30 9 1 9 10
M  V30 10 2 10 11
M  V30 11 2 10 12
M  V30 12 1 10 13
M  V30 13 1 13 14
M  V30 14 2 14 15
M  V30 15 1 15 16
M  V30 16 2 16 17
M  V30 17 1 17 18
M  V30 18 2 18 19
M  V30 19 1 19 20
M  V30 20 1 20 21
M  V30 21 2 21 22
M  V30 22 1 22 23
M  V30 23 2 23 24
M  V30 24 1 24 25
M  V30 25 1 25 26 CFG=3
M  V30 26 1 25 27
M  V30 27 1 27 28
M  V30 28 1 28 29
M  V30 29 2 29 30
M  V30 30 1 30 31
M  V30 31 1 31 32
M  V30 32 1 32 33
M  V30 33 1 33 34
M  V30 34 1 34 35
M  V30 35 1 35 36
M  V30 36 1 36 37
M  V30 37 1 37 38
M  V30 38 1 38 39
M  V30 39 1 39 40 CFG=1
M  V30 40 1 40 41
M  V30 41 1 41 42
M  V30 42 1 42 43
M  V30 43 1 43 44
M  V30 44 2 44 45
M  V30 45 1 44 46
M  V30 46 1 46 47
M  V30 47 1 47 48
M  V30 48 1 48 49
M  V30 49 1 49 50
M  V30 50 1 39 51
M  V30 51 1 22 52
M  V30 52 2 52 53
M  V30 53 1 53 54
M  V30 54 2 54 55
M  V30 55 1 9 56
M  V30 56 1 56 5
M  V30 57 1 19 14
M  V30 58 1 55 21
M  V30 59 1 55 18
M  V30 60 1 38 23
M  V30 61 1 50 39
M  V30 62 1 50 25
M  V30 63 1 51 35
M  V30 64 1 49 41
M  V30 65 1 1 57
M  V30 66 1 1 58
M  V30 67 1 1 59
M  V30 68 1 4 60
M  V30 69 1 8 61
M  V30 70 1 8 62
M  V30 71 1 8 63
M  V30 72 1 15 64
M  V30 73 1 16 65
M  V30 74 1 17 66
M  V30 75 1 20 67
M  V30 76 1 24 68
M  V30 77 1 26 69
M  V30 78 1 27 70
M  V30 79 1 27 71
M  V30 80 1 28 72
M  V30 81 1 28 73
M  V30 82 1 29 74
M  V30 83 1 30 75
M  V30 84 1 31 76
M  V30 85 1 31 77
M  V30 86 1 32 78
M  V30 87 1 32 79
M  V30 88 1 33 80
M  V30 89 1 33 81
M  V30 90 1 34 82
M  V30 91 1 34 83
M  V30 92 1 36 84
M  V30 93 1 36 85
M  V30 94 1 37 86
M  V30 95 1 37 87
M  V30 96 1 38 88
M  V30 97 1 40 89
M  V30 98 1 40 90
M  V30 99 1 41 91 CFG=1
M  V30 100 1 42 92
M  V30 101 1 42 93
M  V30 102 1 43 94
M  V30 103 1 43 95
M  V30 104 1 46 96
M  V30 105 1 46 97
M  V30 106 1 47 98
M  V30 107 1 47 99
M  V30 108 1 48 100
M  V30 109 1 48 101
M  V30 110 1 50 102 CFG=3
M  V30 111 1 51 103
M  V30 112 1 51 104
M  V30 113 1 53 105
M  V30 114 1 54 106
M  V30 END BOND
M  V30 END CTAB
M  END
>  <Dataset>  (663) 
ChEMBL_Kinases

>  <Ligand_Instance>  (663) 
nan

>  <PDB_ID>  (663) 
nan

>  <Standardized_SMILES>  (663) 
CC(=O)Nc1nc(C)c(S(=O)(=O)Oc2cccc3c2[nH]c2c(C4=C[C@@]5(O)CC/C=C\CCCCN6CCC4[C@]4(C[C@@H]7CCC(=O)CCCN7[C@H]45)C6)nccc23)s1

>  <Name>  (663) 
nan

>  <Pocket>  (663) 
nan

>  <ATP_Site>  (663) 
nan

>  <Peripheral>  (663) 
nan

>  <Num_H_Atoms_ProtBoundConf>  (663) 
nan

>  <Num_Resolved_Atoms>  (663) 
nan

>  <Num_Not_Resolved_Atoms>  (663) 
nan

$$$$
CHEMBL399689
     RDKit          3D

  0  0  0  0  0  0  0  0  0  0999 V3000
M  V30 BEGIN CTAB
M  V30 COUNTS 47 50 0 0 0
M  V30 BEGIN ATOM
M  V30 1 C 0.323273 -6.128345 3.198625 0
M  V30 2 N -1.014111 -5.885215 2.727981 0
M  V30 3 C -1.433142 -4.617544 2.192146 0
M  V30 4 N -0.529316 -3.658667 2.144128 0
M  V30 5 C -0.829705 -2.439334 1.658782 0
M  V30 6 C -0.065079 -1.316724 1.516699 0
M  V30 7 C -0.591910 -0.206959 1.000820 0
M  V30 8 C 0.029984 1.129691 0.747187 0
M  V30 9 C -0.799357 2.082979 0.193796 0
M  V30 10 C -0.230657 3.333373 -0.047367 0
M  V30 11 C 1.094230 3.551992 0.269033 0
M  V30 12 C 1.890220 2.548286 0.829095 0
M  V30 13 C 3.294651 2.834426 1.146653 0
M  V30 14 C 4.118833 2.484650 -0.097430 0 CFG=2
M  V30 15 N 5.503772 2.782440 0.259712 0
M  V30 16 C 3.680150 3.290419 -1.259344 0
M  V30 17 N 3.199200 4.038218 -2.375147 0
M  V30 18 O 4.860949 3.767248 -1.215829 0
M  V30 19 C 1.335732 1.297054 1.074699 0
M  V30 20 S -2.257259 -0.569108 0.631439 0
M  V30 21 C -2.158543 -2.342807 1.238403 0
M  V30 22 N -3.116739 -3.315069 1.274860 0
M  V30 23 C -4.384154 -3.265714 0.887805 0
M  V30 24 C -5.131816 -2.131020 0.299103 0
M  V30 25 C -4.854329 -4.550973 1.169096 0
M  V30 26 N -3.840646 -5.253678 1.694838 0
M  V30 27 C -2.733532 -4.498143 1.772636 0
M  V30 28 H 0.607873 -7.164359 2.994826 0
M  V30 29 H 1.000830 -5.417972 2.682345 0
M  V30 30 H 0.369921 -5.981656 4.306145 0
M  V30 31 H -1.680350 -6.680550 2.792235 0
M  V30 32 H 0.976258 -1.284725 1.811038 0
M  V30 33 H -1.839414 1.935949 -0.062598 0
M  V30 34 H -0.800649 4.143741 -0.478276 0
M  V30 35 H 1.551877 4.512189 0.089970 0
M  V30 36 H 3.681447 2.344770 2.038463 0
M  V30 37 H 3.416210 3.952538 1.245208 0
M  V30 38 H 4.030186 1.412389 -0.327435 0
M  V30 39 H 5.688115 2.257417 1.126317 0
M  V30 40 H 6.091863 2.413295 -0.525487 0
M  V30 41 H 2.753172 4.955005 -2.110074 0
M  V30 42 H 3.361462 3.561651 -3.304442 0
M  V30 43 H 1.949626 0.522370 1.506845 0
M  V30 44 H -6.222583 -2.251316 0.441168 0
M  V30 45 H -4.862123 -1.170186 0.797649 0
M  V30 46 H -4.967380 -2.079958 -0.813796 0
M  V30 47 H -5.876955 -4.886338 0.979079 0
M  V30 END ATOM
M  V30 BEGIN BOND
M  V30 1 1 1 2
M  V30 2 1 2 3
M  V30 3 2 3 4
M  V30 4 1 4 5
M  V30 5 1 5 6
M  V30 6 2 6 7
M  V30 7 1 7 8
M  V30 8 2 8 9
M  V30 9 1 9 10
M  V30 10 2 10 11
M  V30 11 1 11 12
M  V30 12 1 12 13
M  V30 13 1 13 14
M  V30 14 1 14 15
M  V30 15 1 14 16
M  V30 16 1 16 17
M  V30 17 2 16 18
M  V30 18 2 12 19
M  V30 19 1 7 20
M  V30 20 1 20 21
M  V30 21 1 21 22
M  V30 22 1 22 23
M  V30 23 1 23 24
M  V30 24 2 23 25
M  V30 25 1 25 26
M  V30 26 2 26 27
M  V30 27 1 27 3
M  V30 28 2 21 5
M  V30 29 1 27 22
M  V30 30 1 19 8
M  V30 31 1 1 28
M  V30 32 1 1 29
M  V30 33 1 1 30
M  V30 34 1 2 31
M  V30 35 1 6 32
M  V30 36 1 9 33
M  V30 37 1 10 34
M  V30 38 1 11 35
M  V30 39 1 13 36
M  V30 40 1 13 37
M  V30 41 1 14 38 CFG=3
M  V30 42 1 15 39
M  V30 43 1 15 40
M  V30 44 1 17 41
M  V30 45 1 17 42
M  V30 46 1 19 43
M  V30 47 1 24 44
M  V30 48 1 24 45
M  V30 49 1 24 46
M  V30 50 1 25 47
M  V30 END BOND
M  V30 END CTAB
M  END
>  <Dataset>  (664) 
ChEMBL_Kinases

>  <Ligand_Instance>  (664) 
nan

>  <PDB_ID>  (664) 
nan

>  <Standardized_SMILES>  (664) 
CNc1nc2cc(-c3cccc(C[C@H](N)C(N)=O)c3)sc2n2c(C)cnc12

>  <Name>  (664) 
nan

>  <Pocket>  (664) 
nan

>  <ATP_Site>  (664) 
nan

>  <Peripheral>  (664) 
nan

>  <Num_H_Atoms_ProtBoundConf>  (664) 
nan

>  <Num_Resolved_Atoms>  (664) 
nan

>  <Num_Not_Resolved_Atoms>  (664) 
nan

$$$$
CHEMBL399688
     RDKit          3D

  0  0  0  0  0  0  0  0  0  0999 V3000
M  V30 BEGIN CTAB
M  V30 COUNTS 45 48 0 0 0
M  V30 BEGIN ATOM
M  V30 1 C 0.574944 -5.463709 3.972550 0
M  V30 2 N -0.668367 -5.449357 3.227782 0
M  V30 3 C -0.970242 -4.412453 2.282820 0
M  V30 4 N -0.076533 -3.455437 2.103061 0
M  V30 5 C -0.279087 -2.426696 1.222936 0
M  V30 6 C 0.551198 -1.402759 0.956301 0
M  V30 7 C 0.188672 -0.501222 0.075852 0
M  V30 8 C 0.795407 0.739213 -0.482571 0
M  V30 9 C 0.103662 1.468091 -1.428342 0
M  V30 10 C 0.695656 2.617875 -1.928606 0
M  V30 11 C 1.942696 2.989906 -1.468682 0
M  V30 12 C 2.603757 2.216065 -0.507817 0
M  V30 13 C 3.962223 2.672660 -0.044882 0
M  V30 14 C 3.706484 3.589437 1.154657 0
M  V30 15 C 2.870670 4.749689 0.764480 0
M  V30 16 N 2.667946 5.571087 1.905971 0
M  V30 17 O 2.167560 5.655512 0.275562 0
M  V30 18 C 2.040746 1.050784 0.021021 0
M  V30 19 S -1.420513 -1.038609 -0.477088 0
M  V30 20 C -1.460318 -2.505982 0.584035 0
M  V30 21 N -2.414719 -3.486737 0.745474 0
M  V30 22 C -3.606997 -3.615838 0.136799 0
M  V30 23 C -4.195355 -2.705508 -0.883676 0
M  V30 24 C -4.149873 -4.785976 0.681256 0
M  V30 25 N -3.248460 -5.269139 1.570806 0
M  V30 26 C -2.176460 -4.477348 1.618512 0
M  V30 27 H 1.367324 -6.058349 3.454577 0
M  V30 28 H 0.453189 -5.902548 4.988506 0
M  V30 29 H 0.986298 -4.437042 4.127762 0
M  V30 30 H -1.338133 -6.224011 3.405174 0
M  V30 31 H 1.525086 -1.223432 1.398787 0
M  V30 32 H -0.872073 1.177544 -1.788590 0
M  V30 33 H 0.181838 3.202723 -2.663133 0
M  V30 34 H 2.440979 3.886112 -1.836842 0
M  V30 35 H 4.416316 3.220648 -0.874161 0
M  V30 36 H 4.495195 1.789454 0.311951 0
M  V30 37 H 4.646170 3.956436 1.584817 0
M  V30 38 H 3.157059 3.049419 1.949095 0
M  V30 39 H 2.309823 5.858780 2.865042 0
M  V30 40 H 2.423554 6.044237 2.811740 0
M  V30 41 H 2.546211 0.460735 0.754559 0
M  V30 42 H -5.282613 -2.851695 -0.915528 0
M  V30 43 H -4.022077 -1.659403 -0.497051 0
M  V30 44 H -3.696942 -2.780891 -1.857111 0
M  V30 45 H -5.113067 -5.205270 0.422341 0
M  V30 END ATOM
M  V30 BEGIN BOND
M  V30 1 1 1 2
M  V30 2 1 2 3
M  V30 3 2 3 4
M  V30 4 1 4 5
M  V30 5 1 5 6
M  V30 6 2 6 7
M  V30 7 1 7 8
M  V30 8 2 8 9
M  V30 9 1 9 10
M  V30 10 2 10 11
M  V30 11 1 11 12
M  V30 12 1 12 13
M  V30 13 1 13 14
M  V30 14 1 14 15
M  V30 15 1 15 16
M  V30 16 2 15 17
M  V30 17 2 12 18
M  V30 18 1 7 19
M  V30 19 1 19 20
M  V30 20 1 20 21
M  V30 21 1 21 22
M  V30 22 1 22 23
M  V30 23 2 22 24
M  V30 24 1 24 25
M  V30 25 2 25 26
M  V30 26 1 26 3
M  V30 27 2 20 5
M  V30 28 1 26 21
M  V30 29 1 18 8
M  V30 30 1 1 27
M  V30 31 1 1 28
M  V30 32 1 1 29
M  V30 33 1 2 30
M  V30 34 1 6 31
M  V30 35 1 9 32
M  V30 36 1 10 33
M  V30 37 1 11 34
M  V30 38 1 13 35
M  V30 39 1 13 36
M  V30 40 1 14 37
M  V30 41 1 14 38
M  V30 42 1 16 39
M  V30 43 1 16 40
M  V30 44 1 18 41
M  V30 45 1 23 42
M  V30 46 1 23 43
M  V30 47 1 23 44
M  V30 48 1 24 45
M  V30 END BOND
M  V30 END CTAB
M  END
>  <Dataset>  (665) 
ChEMBL_Kinases

>  <Ligand_Instance>  (665) 
nan

>  <PDB_ID>  (665) 
nan

>  <Standardized_SMILES>  (665) 
CNc1nc2cc(-c3cccc(CCC(N)=O)c3)sc2n2c(C)cnc12

>  <Name>  (665) 
nan

>  <Pocket>  (665) 
nan

>  <ATP_Site>  (665) 
nan

>  <Peripheral>  (665) 
nan

>  <Num_H_Atoms_ProtBoundConf>  (665) 
nan

>  <Num_Resolved_Atoms>  (665) 
nan

>  <Num_Not_Resolved_Atoms>  (665) 
nan

$$$$
CHEMBL403200
     RDKit          3D

  0  0  0  0  0  0  0  0  0  0999 V3000
M  V30 BEGIN CTAB
M  V30 COUNTS 46 48 0 0 0
M  V30 BEGIN ATOM
M  V30 1 C 1.689377 -2.220907 3.438839 0
M  V30 2 C 2.401123 -1.284407 2.530071 0
M  V30 3 C 3.772553 -1.396828 2.336216 0
M  V30 4 C 4.438719 -0.529337 1.492735 0
M  V30 5 C 3.768799 0.473373 0.817236 0
M  V30 6 C 4.427993 1.414431 -0.084544 0
M  V30 7 O 3.770005 2.327312 -0.689090 0
M  V30 8 N 5.807527 1.385650 -0.348518 0
M  V30 9 C 6.365485 2.358048 -1.254625 0
M  V30 10 C 6.911667 3.642693 -1.147499 0
M  V30 11 C 7.267036 4.020697 -2.445595 0
M  V30 12 O 6.946318 3.015411 -3.258217 0
M  V30 13 N 6.426105 2.053244 -2.579392 0
M  V30 14 C 2.406277 0.595232 1.001571 0
M  V30 15 C 1.739645 -0.279128 1.850732 0
M  V30 16 N 0.316145 -0.206841 2.087828 0
M  V30 17 C -0.524472 -0.959125 1.230926 0
M  V30 18 O -0.144381 -1.687958 0.277895 0
M  V30 19 C -1.936691 -0.851431 1.511232 0
M  V30 20 C -2.754836 -0.236774 2.365889 0
M  V30 21 N -4.050507 -0.434006 2.251772 0
M  V30 22 C -4.625497 -1.080704 1.500054 0
M  V30 23 N -5.914249 -1.505207 1.099324 0
M  V30 24 C -6.168229 -2.418344 -0.017646 0
M  V30 25 C -5.503667 -3.745522 0.213999 0
M  V30 26 C -7.616627 -2.499342 -0.351373 0
M  V30 27 S -3.150915 -1.753051 0.505631 0
M  V30 28 H 2.442552 -2.597207 4.162393 0
M  V30 29 H 0.920852 -1.706897 4.045555 0
M  V30 30 H 1.300514 -3.124337 2.917992 0
M  V30 31 H 4.368575 -2.170051 2.840567 0
M  V30 32 H 5.502704 -0.636283 1.358271 0
M  V30 33 H 6.422752 0.677680 0.098436 0
M  V30 34 H 6.940195 4.043842 -0.143616 0
M  V30 35 H 7.709331 5.004344 -2.528260 0
M  V30 36 H 1.793812 1.352417 0.513594 0
M  V30 37 H -0.045650 0.385569 2.867623 0
M  V30 38 H -2.306419 0.413319 3.134724 0
M  V30 39 H -6.643682 -1.078627 1.706957 0
M  V30 40 H -5.677901 -1.901295 -0.895389 0
M  V30 41 H -6.133158 -4.606445 -0.136720 0
M  V30 42 H -4.493955 -3.782473 -0.253565 0
M  V30 43 H -5.353807 -3.914999 1.318074 0
M  V30 44 H -8.261702 -2.722344 0.518677 0
M  V30 45 H -7.931263 -1.564364 -0.867811 0
M  V30 46 H -7.730158 -3.315496 -1.105052 0
M  V30 END ATOM
M  V30 BEGIN BOND
M  V30 1 1 1 2
M  V30 2 2 2 3
M  V30 3 1 3 4
M  V30 4 2 4 5
M  V30 5 1 5 6
M  V30 6 2 6 7
M  V30 7 1 6 8
M  V30 8 1 8 9
M  V30 9 1 9 10
M  V30 10 2 10 11
M  V30 11 1 11 12
M  V30 12 1 12 13
M  V30 13 1 5 14
M  V30 14 2 14 15
M  V30 15 1 15 16
M  V30 16 1 16 17
M  V30 17 2 17 18
M  V30 18 1 17 19
M  V30 19 2 19 20
M  V30 20 1 20 21
M  V30 21 2 21 22
M  V30 22 1 22 23
M  V30 23 1 23 24
M  V30 24 1 24 25
M  V30 25 1 24 26
M  V30 26 1 22 27
M  V30 27 1 15 2
M  V30 28 1 27 19
M  V30 29 2 13 9
M  V30 30 1 1 28
M  V30 31 1 1 29
M  V30 32 1 1 30
M  V30 33 1 3 31
M  V30 34 1 4 32
M  V30 35 1 8 33
M  V30 36 1 10 34
M  V30 37 1 11 35
M  V30 38 1 14 36
M  V30 39 1 16 37
M  V30 40 1 20 38
M  V30 41 1 23 39
M  V30 42 1 24 40
M  V30 43 1 25 41
M  V30 44 1 25 42
M  V30 45 1 25 43
M  V30 46 1 26 44
M  V30 47 1 26 45
M  V30 48 1 26 46
M  V30 END BOND
M  V30 END CTAB
M  END
>  <Dataset>  (666) 
ChEMBL_Kinases

>  <Ligand_Instance>  (666) 
nan

>  <PDB_ID>  (666) 
nan

>  <Standardized_SMILES>  (666) 
Cc1ccc(C(=O)Nc2ccon2)cc1NC(=O)c1cnc(NC(C)C)s1

>  <Name>  (666) 
nan

>  <Pocket>  (666) 
nan

>  <ATP_Site>  (666) 
nan

>  <Peripheral>  (666) 
nan

>  <Num_H_Atoms_ProtBoundConf>  (666) 
nan

>  <Num_Resolved_Atoms>  (666) 
nan

>  <Num_Not_Resolved_Atoms>  (666) 
nan

$$$$
CHEMBL399521
     RDKit          3D

  0  0  0  0  0  0  0  0  0  0999 V3000
M  V30 BEGIN CTAB
M  V30 COUNTS 47 50 0 0 0
M  V30 BEGIN ATOM
M  V30 1 C -0.684054 -2.071687 5.695852 0
M  V30 2 N 0.730558 -2.212344 5.879619 0
M  V30 3 C 1.384227 -0.969714 6.199028 0
M  V30 4 C 1.372074 -2.923375 4.806962 0
M  V30 5 C 1.145501 -2.172337 3.534260 0
M  V30 6 C 2.035222 -1.187032 3.094822 0
M  V30 7 C 1.849791 -0.478524 1.924497 0
M  V30 8 N 0.760313 -0.773463 1.203831 0
M  V30 9 C 0.386942 -0.210743 0.040410 0
M  V30 10 C 0.946614 0.829447 -0.815448 0
M  V30 11 N 1.290130 0.458763 -2.084269 0
M  V30 12 C 1.815690 1.343754 -2.955597 0
M  V30 13 N 2.159528 0.905168 -4.274921 0
M  V30 14 N 2.024380 2.645129 -2.601801 0
M  V30 15 C 1.695571 3.059747 -1.343171 0
M  V30 16 C 1.158386 2.145759 -0.459392 0
M  V30 17 C 0.783838 2.508516 0.893902 0
M  V30 18 N 0.495220 2.815074 1.990441 0
M  V30 19 C -0.798321 -0.808234 -0.361618 0
M  V30 20 C -1.729070 -0.696139 -1.481054 0
M  V30 21 C -2.394992 0.494041 -1.694046 0
M  V30 22 C -3.278060 0.635160 -2.736623 0
M  V30 23 C -3.494336 -0.442590 -3.580338 0
M  V30 24 F -4.373097 -0.286021 -4.610059 0
M  V30 25 C -2.825699 -1.626995 -3.360855 0
M  V30 26 C -1.927606 -1.784799 -2.308109 0
M  V30 27 N -1.105732 -1.719609 0.578527 0
M  V30 28 C -0.151618 -1.702364 1.542388 0
M  V30 29 C 0.059447 -2.396420 2.719204 0
M  V30 30 H -1.144495 -2.998472 5.320167 0
M  V30 31 H -0.905831 -1.302723 4.900542 0
M  V30 32 H -1.214212 -1.752491 6.609819 0
M  V30 33 H 1.275052 -0.301725 5.298539 0
M  V30 34 H 0.885954 -0.431666 7.014061 0
M  V30 35 H 2.464948 -1.095747 6.383989 0
M  V30 36 H 2.448525 -3.039813 4.933554 0
M  V30 37 H 0.931485 -3.926911 4.658025 0
M  V30 38 H 2.919812 -0.950353 3.682402 0
M  V30 39 H 2.568208 0.283703 1.615337 0
M  V30 40 H 3.056308 0.687527 -4.791122 0
M  V30 41 H 1.234641 0.798635 -4.787898 0
M  V30 42 H 1.848063 4.089304 -1.026360 0
M  V30 43 H -2.219729 1.345079 -1.022193 0
M  V30 44 H -3.783803 1.593287 -2.869947 0
M  V30 45 H -3.028417 -2.456763 -4.055955 0
M  V30 46 H -1.408387 -2.734422 -2.153722 0
M  V30 47 H -0.668880 -3.128892 2.975915 0
M  V30 END ATOM
M  V30 BEGIN BOND
M  V30 1 1 1 2
M  V30 2 1 2 3
M  V30 3 1 2 4
M  V30 4 1 4 5
M  V30 5 1 5 6
M  V30 6 2 6 7
M  V30 7 1 7 8
M  V30 8 1 8 9
M  V30 9 1 9 10
M  V30 10 2 10 11
M  V30 11 1 11 12
M  V30 12 1 12 13
M  V30 13 2 12 14
M  V30 14 1 14 15
M  V30 15 2 15 16
M  V30 16 1 16 17
M  V30 17 3 17 18
M  V30 18 2 9 19
M  V30 19 1 19 20
M  V30 20 2 20 21
M  V30 21 1 21 22
M  V30 22 2 22 23
M  V30 23 1 23 24
M  V30 24 1 23 25
M  V30 25 2 25 26
M  V30 26 1 19 27
M  V30 27 2 27 28
M  V30 28 1 28 29
M  V30 29 2 29 5
M  V30 30 1 28 8
M  V30 31 1 16 10
M  V30 32 1 26 20
M  V30 33 1 1 30
M  V30 34 1 1 31
M  V30 35 1 1 32
M  V30 36 1 3 33
M  V30 37 1 3 34
M  V30 38 1 3 35
M  V30 39 1 4 36
M  V30 40 1 4 37
M  V30 41 1 6 38
M  V30 42 1 7 39
M  V30 43 1 13 40
M  V30 44 1 13 41
M  V30 45 1 15 42
M  V30 46 1 21 43
M  V30 47 1 22 44
M  V30 48 1 25 45
M  V30 49 1 26 46
M  V30 50 1 29 47
M  V30 END BOND
M  V30 END CTAB
M  END
>  <Dataset>  (667) 
ChEMBL_Kinases

>  <Ligand_Instance>  (667) 
nan

>  <PDB_ID>  (667) 
nan

>  <Standardized_SMILES>  (667) 
CN(C)Cc1ccn2c(-c3nc(N)ncc3C#N)c(-c3ccc(F)cc3)nc2c1

>  <Name>  (667) 
nan

>  <Pocket>  (667) 
nan

>  <ATP_Site>  (667) 
nan

>  <Peripheral>  (667) 
nan

>  <Num_H_Atoms_ProtBoundConf>  (667) 
nan

>  <Num_Resolved_Atoms>  (667) 
nan

>  <Num_Not_Resolved_Atoms>  (667) 
nan

$$$$
CHEMBL399520
     RDKit          3D

  0  0  0  0  0  0  0  0  0  0999 V3000
M  V30 BEGIN CTAB
M  V30 COUNTS 62 65 0 0 0
M  V30 BEGIN ATOM
M  V30 1 C 6.625577 1.476670 3.332684 0
M  V30 2 N 5.961930 1.293024 4.596570 0
M  V30 3 C 5.853563 -0.102427 4.970909 0
M  V30 4 C 4.710879 1.987703 4.685490 0
M  V30 5 C 3.761169 1.513388 3.615973 0
M  V30 6 C 3.633491 2.056608 2.354265 0
M  V30 7 C 2.702329 1.488250 1.485721 0
M  V30 8 N 1.927638 0.440506 1.820698 0
M  V30 9 C 0.986468 -0.233739 1.123795 0
M  V30 10 C 0.511210 -0.035732 -0.223112 0
M  V30 11 C 1.361013 -0.117151 -1.305221 0
M  V30 12 C 0.999956 0.055626 -2.634638 0
M  V30 13 N -0.296735 0.325315 -2.868004 0
M  V30 14 C -1.157241 0.411768 -1.825753 0
M  V30 15 N -2.508483 0.701315 -2.195909 0
M  V30 16 C -3.277255 -0.493082 -2.444860 0
M  V30 17 O -2.809327 -1.671483 -2.347127 0
M  V30 18 N -4.636630 -0.483845 -2.825447 0
M  V30 19 C -5.336109 -1.755045 -3.058739 0
M  V30 20 C -5.337001 -2.610234 -1.822815 0
M  V30 21 C -6.767233 -1.510827 -3.463696 0
M  V30 22 C -4.637568 -2.478185 -4.211600 0
M  V30 23 N -0.779831 0.239142 -0.538222 0
M  V30 24 C 0.508802 -1.223471 1.961063 0
M  V30 25 C -0.538541 -2.213801 1.626842 0
M  V30 26 C -0.487047 -3.189000 0.653047 0
M  V30 27 C -1.590937 -4.008740 0.516018 0
M  V30 28 C -2.696874 -3.852621 1.324046 0
M  V30 29 F -3.750360 -4.676450 1.152841 0
M  V30 30 C -2.751730 -2.873399 2.303843 0
M  V30 31 C -1.634891 -2.040960 2.445478 0
M  V30 32 N 1.173470 -1.125229 3.148511 0
M  V30 33 C 2.056882 -0.087688 3.057950 0
M  V30 34 C 2.962013 0.423700 3.977855 0
M  V30 35 H 7.607008 0.983210 3.285462 0
M  V30 36 H 6.724484 2.581953 3.187969 0
M  V30 37 H 6.023987 1.056930 2.496034 0
M  V30 38 H 5.305299 -0.706452 4.198866 0
M  V30 39 H 6.852547 -0.562748 5.034678 0
M  V30 40 H 5.336954 -0.158577 5.950474 0
M  V30 41 H 4.270535 1.796854 5.679331 0
M  V30 42 H 4.849744 3.065686 4.484493 0
M  V30 43 H 4.268507 2.882287 2.140083 0
M  V30 44 H 2.619206 1.929712 0.503268 0
M  V30 45 H 2.403838 -0.337289 -1.077213 0
M  V30 46 H 1.785306 -0.037467 -3.400727 0
M  V30 47 H -3.058804 1.594320 -2.324817 0
M  V30 48 H -5.130479 0.441359 -2.936418 0
M  V30 49 H -5.268400 -1.992621 -0.903311 0
M  V30 50 H -4.458937 -3.302932 -1.844016 0
M  V30 51 H -6.301661 -3.186972 -1.770827 0
M  V30 52 H -7.052376 -2.329134 -4.172179 0
M  V30 53 H -7.472309 -1.607316 -2.592928 0
M  V30 54 H -6.906597 -0.554107 -4.007479 0
M  V30 55 H -4.237050 -1.696412 -4.897149 0
M  V30 56 H -5.383069 -3.059218 -4.818422 0
M  V30 57 H -3.859833 -3.145046 -3.832774 0
M  V30 58 H 0.437969 -3.205240 0.088731 0
M  V30 59 H -1.499662 -4.761462 -0.265850 0
M  V30 60 H -3.649034 -2.788363 2.919056 0
M  V30 61 H -1.767625 -1.313178 3.227779 0
M  V30 62 H 3.016677 -0.039923 4.943140 0
M  V30 END ATOM
M  V30 BEGIN BOND
M  V30 1 1 1 2
M  V30 2 1 2 3
M  V30 3 1 2 4
M  V30 4 1 4 5
M  V30 5 1 5 6
M  V30 6 2 6 7
M  V30 7 1 7 8
M  V30 8 1 8 9
M  V30 9 1 9 10
M  V30 10 2 10 11
M  V30 11 1 11 12
M  V30 12 2 12 13
M  V30 13 1 13 14
M  V30 14 1 14 15
M  V30 15 1 15 16
M  V30 16 2 16 17
M  V30 17 1 16 18
M  V30 18 1 18 19
M  V30 19 1 19 20
M  V30 20 1 19 21
M  V30 21 1 19 22
M  V30 22 2 14 23
M  V30 23 2 9 24
M  V30 24 1 24 25
M  V30 25 2 25 26
M  V30 26 1 26 27
M  V30 27 2 27 28
M  V30 28 1 28 29
M  V30 29 1 28 30
M  V30 30 2 30 31
M  V30 31 1 24 32
M  V30 32 2 32 33
M  V30 33 1 33 34
M  V30 34 2 34 5
M  V30 35 1 33 8
M  V30 36 1 23 10
M  V30 37 1 31 25
M  V30 38 1 1 35
M  V30 39 1 1 36
M  V30 40 1 1 37
M  V30 41 1 3 38
M  V30 42 1 3 39
M  V30 43 1 3 40
M  V30 44 1 4 41
M  V30 45 1 4 42
M  V30 46 1 6 43
M  V30 47 1 7 44
M  V30 48 1 11 45
M  V30 49 1 12 46
M  V30 50 1 15 47
M  V30 51 1 18 48
M  V30 52 1 20 49
M  V30 53 1 20 50
M  V30 54 1 20 51
M  V30 55 1 21 52
M  V30 56 1 21 53
M  V30 57 1 21 54
M  V30 58 1 22 55
M  V30 59 1 22 56
M  V30 60 1 22 57
M  V30 61 1 26 58
M  V30 62 1 27 59
M  V30 63 1 30 60
M  V30 64 1 31 61
M  V30 65 1 34 62
M  V30 END BOND
M  V30 END CTAB
M  END
>  <Dataset>  (668) 
ChEMBL_Kinases

>  <Ligand_Instance>  (668) 
nan

>  <PDB_ID>  (668) 
nan

>  <Standardized_SMILES>  (668) 
CN(C)Cc1ccn2c(-c3ccnc(NC(=O)NC(C)(C)C)n3)c(-c3ccc(F)cc3)nc2c1

>  <Name>  (668) 
nan

>  <Pocket>  (668) 
nan

>  <ATP_Site>  (668) 
nan

>  <Peripheral>  (668) 
nan

>  <Num_H_Atoms_ProtBoundConf>  (668) 
nan

>  <Num_Resolved_Atoms>  (668) 
nan

>  <Num_Not_Resolved_Atoms>  (668) 
nan

$$$$
CHEMBL399492
     RDKit          3D

  0  0  0  0  0  0  0  0  0  0999 V3000
M  V30 BEGIN CTAB
M  V30 COUNTS 29 32 0 0 0
M  V30 BEGIN ATOM
M  V30 1 O -1.678750 -3.304571 -0.649849 0
M  V30 2 C -0.953097 -3.257278 0.353004 0
M  V30 3 N -0.713504 -4.342813 1.233047 0
M  V30 4 C 0.045644 -4.268441 2.431723 0
M  V30 5 C 0.791416 -3.035648 2.710101 0
M  V30 6 C 0.545064 -1.912778 1.801922 0
M  V30 7 N 1.057733 -0.675402 1.910253 0
M  V30 8 C 0.591551 0.043916 0.892254 0
M  V30 9 C -0.233860 -0.757289 0.124116 0
M  V30 10 C -0.880041 -0.305739 -1.015040 0
M  V30 11 C -0.675825 1.004685 -1.379443 0
M  V30 12 C 0.129644 1.862216 -0.667575 0
M  V30 13 C 0.281798 3.154392 -1.096511 0
M  V30 14 N 1.069363 3.940604 -0.374422 0
M  V30 15 C 1.690862 3.489364 0.729637 0
M  V30 16 C 1.548616 2.196831 1.172769 0
M  V30 17 C 0.734300 1.342449 0.446831 0
M  V30 18 C -0.258627 -2.001775 0.709468 0
M  V30 19 H -1.112323 -5.277129 1.008327 0
M  V30 20 H -0.671004 -4.468052 3.281605 0
M  V30 21 H 0.761019 -5.142383 2.425533 0
M  V30 22 H 0.602442 -2.670201 3.760722 0
M  V30 23 H 1.905919 -3.218049 2.689134 0
M  V30 24 H 1.708012 -0.270465 2.628217 0
M  V30 25 H -1.525730 -0.951940 -1.606255 0
M  V30 26 H -1.180423 1.337190 -2.259004 0
M  V30 27 H -0.229518 3.504041 -1.994028 0
M  V30 28 H 2.338444 4.105697 1.338374 0
M  V30 29 H 2.033771 1.826169 2.043784 0
M  V30 END ATOM
M  V30 BEGIN BOND
M  V30 1 2 1 2
M  V30 2 1 2 3
M  V30 3 1 3 4
M  V30 4 1 4 5
M  V30 5 1 5 6
M  V30 6 1 6 7
M  V30 7 1 7 8
M  V30 8 2 8 9
M  V30 9 1 9 10
M  V30 10 2 10 11
M  V30 11 1 11 12
M  V30 12 2 12 13
M  V30 13 1 13 14
M  V30 14 2 14 15
M  V30 15 1 15 16
M  V30 16 2 16 17
M  V30 17 1 9 18
M  V30 18 1 18 2
M  V30 19 2 18 6
M  V30 20 1 17 8
M  V30 21 1 17 12
M  V30 22 1 3 19
M  V30 23 1 4 20
M  V30 24 1 4 21
M  V30 25 1 5 22
M  V30 26 1 5 23
M  V30 27 1 7 24
M  V30 28 1 10 25
M  V30 29 1 11 26
M  V30 30 1 13 27
M  V30 31 1 15 28
M  V30 32 1 16 29
M  V30 END BOND
M  V30 END CTAB
M  END
>  <Dataset>  (669) 
ChEMBL_Kinases

>  <Ligand_Instance>  (669) 
nan

>  <PDB_ID>  (669) 
nan

>  <Standardized_SMILES>  (669) 
O=C1NCCc2[nH]c3c(ccc4cnccc43)c21

>  <Name>  (669) 
nan

>  <Pocket>  (669) 
nan

>  <ATP_Site>  (669) 
nan

>  <Peripheral>  (669) 
nan

>  <Num_H_Atoms_ProtBoundConf>  (669) 
nan

>  <Num_Resolved_Atoms>  (669) 
nan

>  <Num_Not_Resolved_Atoms>  (669) 
nan

$$$$
CHEMBL4866350
     RDKit          3D

  0  0  0  0  0  0  0  0  0  0999 V3000
M  V30 BEGIN CTAB
M  V30 COUNTS 37 40 0 0 0
M  V30 BEGIN ATOM
M  V30 1 C 0.296957 -5.200269 1.886858 0
M  V30 2 C 0.003428 -4.338172 2.916709 0
M  V30 3 C 0.547469 -3.081004 2.950363 0
M  V30 4 C 1.396422 -2.722618 1.912649 0
M  V30 5 N 2.042909 -1.436463 1.848291 0
M  V30 6 C 2.682725 -0.972026 0.668216 0
M  V30 7 N 3.917543 -1.329742 0.235378 0
M  V30 8 C 4.404230 -0.784030 -0.918431 0
M  V30 9 N 3.666735 0.112893 -1.638131 0
M  V30 10 C 2.438127 0.466363 -1.203562 0
M  V30 11 C 1.693895 1.364062 -1.912486 0
M  V30 12 C 0.422677 1.754485 -1.493137 0
M  V30 13 C -0.074507 1.207693 -0.331115 0
M  V30 14 C -1.394807 1.544027 0.178861 0
M  V30 15 C -2.269064 2.428043 -0.399769 0
M  V30 16 C -3.529922 2.769499 0.039914 0
M  V30 17 C -3.942054 2.138669 1.195115 0
M  V30 18 C -3.134244 1.214763 1.873248 0
M  V30 19 C -1.871680 0.951894 1.326960 0
M  V30 20 N 0.672035 0.326469 0.352822 0
M  V30 21 C 1.901312 -0.059335 -0.041033 0
M  V30 22 C 1.685548 -3.602871 0.875479 0
M  V30 23 C 1.145153 -4.872184 0.828004 0
M  V30 24 H -0.113630 -6.215078 1.817071 0
M  V30 25 H -0.662122 -4.643876 3.712678 0
M  V30 26 H 0.343606 -2.361774 3.740599 0
M  V30 27 H 2.046330 -0.811861 2.693798 0
M  V30 28 H 5.382537 -1.050749 -1.285871 0
M  V30 29 H 2.047439 1.816296 -2.828288 0
M  V30 30 H -0.138154 2.469048 -2.077324 0
M  V30 31 H -1.952783 2.942353 -1.318006 0
M  V30 32 H -4.155508 3.483319 -0.477612 0
M  V30 33 H -4.925949 2.361697 1.594702 0
M  V30 34 H -3.486436 0.724058 2.794555 0
M  V30 35 H -1.261457 0.242142 1.855934 0
M  V30 36 H 2.354988 -3.295048 0.076360 0
M  V30 37 H 1.417896 -5.497095 -0.006826 0
M  V30 END ATOM
M  V30 BEGIN BOND
M  V30 1 2 1 2
M  V30 2 1 2 3
M  V30 3 2 3 4
M  V30 4 1 4 5
M  V30 5 1 5 6
M  V30 6 2 6 7
M  V30 7 1 7 8
M  V30 8 2 8 9
M  V30 9 1 9 10
M  V30 10 2 10 11
M  V30 11 1 11 12
M  V30 12 2 12 13
M  V30 13 1 13 14
M  V30 14 2 14 15
M  V30 15 1 15 16
M  V30 16 2 16 17
M  V30 17 1 17 18
M  V30 18 2 18 19
M  V30 19 1 13 20
M  V30 20 2 20 21
M  V30 21 1 4 22
M  V30 22 2 22 23
M  V30 23 1 23 1
M  V30 24 1 21 6
M  V30 25 1 21 10
M  V30 26 1 19 14
M  V30 27 1 1 24
M  V30 28 1 2 25
M  V30 29 1 3 26
M  V30 30 1 5 27
M  V30 31 1 8 28
M  V30 32 1 11 29
M  V30 33 1 12 30
M  V30 34 1 15 31
M  V30 35 1 16 32
M  V30 36 1 17 33
M  V30 37 1 18 34
M  V30 38 1 19 35
M  V30 39 1 22 36
M  V30 40 1 23 37
M  V30 END BOND
M  V30 END CTAB
M  END
>  <Dataset>  (670) 
ChEMBL_Kinases

>  <Ligand_Instance>  (670) 
nan

>  <PDB_ID>  (670) 
nan

>  <Standardized_SMILES>  (670) 
c1ccc(Nc2ncnc3ccc(-c4ccccc4)nc23)cc1

>  <Name>  (670) 
nan

>  <Pocket>  (670) 
nan

>  <ATP_Site>  (670) 
nan

>  <Peripheral>  (670) 
nan

>  <Num_H_Atoms_ProtBoundConf>  (670) 
nan

>  <Num_Resolved_Atoms>  (670) 
nan

>  <Num_Not_Resolved_Atoms>  (670) 
nan

$$$$
CHEMBL4866426
     RDKit          3D

  0  0  0  0  0  0  0  0  0  0999 V3000
M  V30 BEGIN CTAB
M  V30 COUNTS 51 52 0 0 0
M  V30 BEGIN ATOM
M  V30 1 C -1.749910 -7.051680 0.126509 0
M  V30 2 N -0.636338 -7.131712 -0.770024 0
M  V30 3 C 0.066754 -6.000493 -1.255809 0
M  V30 4 C -0.310006 -4.731576 -0.867234 0
M  V30 5 C 0.384690 -3.656207 -1.350281 0
M  V30 6 C 0.112854 -2.255658 -1.036563 0
M  V30 7 C 0.095383 -1.306410 -2.044000 0
M  V30 8 C -0.165081 0.017777 -1.722701 0
M  V30 9 C -0.392272 0.289902 -0.386673 0
M  V30 10 N -0.661910 1.650016 -0.044241 0
M  V30 11 C 0.495879 2.439586 0.275806 0
M  V30 12 O 1.671323 1.925446 0.239151 0
M  V30 13 C 0.900216 3.794320 0.680858 0 CFG=2
M  V30 14 N 2.356478 3.852225 0.370229 0
M  V30 15 C 0.842070 4.091970 2.151940 0
M  V30 16 C -0.477902 3.964220 2.827319 0
M  V30 17 C -0.331919 4.357742 4.324014 0
M  V30 18 C -0.900721 2.487710 2.915909 0
M  V30 19 C -0.385222 -0.622775 0.653220 0
M  V30 20 C -0.121905 -1.934561 0.296357 0
M  V30 21 O -0.101676 -2.891286 1.293100 0
M  V30 22 C -0.327498 -2.641718 2.646132 0
M  V30 23 C 1.452802 -3.865266 -2.220256 0
M  V30 24 C 1.818803 -5.144107 -2.600867 0
M  V30 25 N 1.101812 -6.174586 -2.096907 0
M  V30 26 H -1.831183 -7.979126 0.764848 0
M  V30 27 H -2.697390 -6.935761 -0.439710 0
M  V30 28 H -1.555260 -6.231828 0.847955 0
M  V30 29 H -0.359154 -8.095524 -1.057501 0
M  V30 30 H -1.132894 -4.531585 -0.194410 0
M  V30 31 H 0.279604 -1.568967 -3.078204 0
M  V30 32 H -0.195495 0.815105 -2.454187 0
M  V30 33 H -1.441159 2.367808 0.070444 0
M  V30 34 H 0.377722 4.591958 0.132110 0
M  V30 35 H 2.440430 3.470651 -0.595548 0
M  V30 36 H 2.874763 3.208442 1.003207 0
M  V30 37 H 1.540939 3.374994 2.693701 0
M  V30 38 H 1.277322 5.089600 2.390566 0
M  V30 39 H -1.264205 4.523371 2.330796 0
M  V30 40 H -0.428353 5.435658 4.455011 0
M  V30 41 H -1.120236 3.848580 4.915307 0
M  V30 42 H 0.659969 3.996619 4.672062 0
M  V30 43 H -0.030680 1.901686 2.615803 0
M  V30 44 H -1.074952 2.183165 3.997460 0
M  V30 45 H -1.836792 2.314589 2.383690 0
M  V30 46 H -0.577523 -0.293778 1.665805 0
M  V30 47 H -1.404382 -2.497169 2.893251 0
M  V30 48 H 0.116626 -3.488040 3.215789 0
M  V30 49 H 0.199020 -1.730797 3.007964 0
M  V30 50 H 2.044071 -3.062067 -2.639183 0
M  V30 51 H 2.650196 -5.297170 -3.277354 0
M  V30 END ATOM
M  V30 BEGIN BOND
M  V30 1 1 1 2
M  V30 2 1 2 3
M  V30 3 2 3 4
M  V30 4 1 4 5
M  V30 5 1 5 6
M  V30 6 2 6 7
M  V30 7 1 7 8
M  V30 8 2 8 9
M  V30 9 1 9 10
M  V30 10 1 10 11
M  V30 11 2 11 12
M  V30 12 1 11 13
M  V30 13 1 13 14
M  V30 14 1 13 15
M  V30 15 1 15 16
M  V30 16 1 16 17
M  V30 17 1 16 18
M  V30 18 1 9 19
M  V30 19 2 19 20
M  V30 20 1 20 21
M  V30 21 1 21 22
M  V30 22 2 5 23
M  V30 23 1 23 24
M  V30 24 2 24 25
M  V30 25 1 25 3
M  V30 26 1 20 6
M  V30 27 1 1 26
M  V30 28 1 1 27
M  V30 29 1 1 28
M  V30 30 1 2 29
M  V30 31 1 4 30
M  V30 32 1 7 31
M  V30 33 1 8 32
M  V30 34 1 10 33
M  V30 35 1 13 34 CFG=3
M  V30 36 1 14 35
M  V30 37 1 14 36
M  V30 38 1 15 37
M  V30 39 1 15 38
M  V30 40 1 16 39
M  V30 41 1 17 40
M  V30 42 1 17 41
M  V30 43 1 17 42
M  V30 44 1 18 43
M  V30 45 1 18 44
M  V30 46 1 18 45
M  V30 47 1 19 46
M  V30 48 1 22 47
M  V30 49 1 22 48
M  V30 50 1 22 49
M  V30 51 1 23 50
M  V30 52 1 24 51
M  V30 END BOND
M  V30 END CTAB
M  END
>  <Dataset>  (671) 
ChEMBL_Kinases

>  <Ligand_Instance>  (671) 
nan

>  <PDB_ID>  (671) 
nan

>  <Standardized_SMILES>  (671) 
CNc1cc(-c2ccc(NC(=O)[C@H](N)CC(C)C)cc2OC)ccn1

>  <Name>  (671) 
nan

>  <Pocket>  (671) 
nan

>  <ATP_Site>  (671) 
nan

>  <Peripheral>  (671) 
nan

>  <Num_H_Atoms_ProtBoundConf>  (671) 
nan

>  <Num_Resolved_Atoms>  (671) 
nan

>  <Num_Not_Resolved_Atoms>  (671) 
nan

$$$$
CHEMBL94852
     RDKit          3D

  0  0  0  0  0  0  0  0  0  0999 V3000
M  V30 BEGIN CTAB
M  V30 COUNTS 45 48 0 0 0
M  V30 BEGIN ATOM
M  V30 1 C 3.301090 -3.565521 3.901153 0
M  V30 2 O 2.638250 -2.469841 3.278462 0
M  V30 3 C 1.692127 -2.672276 2.267279 0
M  V30 4 O 1.434279 -3.844114 1.914336 0
M  V30 5 C 1.043239 -1.546757 1.661365 0
M  V30 6 C 1.315866 -0.244628 2.038893 0
M  V30 7 C 0.718763 0.902217 1.489859 0
M  V30 8 C 1.159503 2.170105 2.048759 0
M  V30 9 C 2.560967 2.277861 2.070927 0
M  V30 10 C 3.228505 3.380162 2.560353 0
M  V30 11 C 2.524556 4.447838 3.060380 0
M  V30 12 C 1.149953 4.347690 3.041403 0
M  V30 13 F 0.358791 5.338172 3.507993 0
M  V30 14 C 0.498399 3.241830 2.550224 0
M  V30 15 C -0.209058 0.671965 0.496935 0
M  V30 16 C -0.490201 -0.602686 0.110635 0
M  V30 17 C 0.106631 -1.717102 0.662444 0
M  V30 18 N -1.413103 -0.883240 -0.936820 0
M  V30 19 C -1.721845 -2.231659 -1.352515 0
M  V30 20 C -0.912280 -2.732749 -2.355099 0
M  V30 21 Cl 0.406339 -1.839345 -3.101907 0
M  V30 22 C -1.110471 -4.011318 -2.836021 0
M  V30 23 C -2.130564 -4.807220 -2.312586 0
M  V30 24 C -2.932644 -4.288369 -1.307663 0
M  V30 25 C -2.728514 -3.007705 -0.831107 0
M  V30 26 Cl -3.703332 -2.303874 0.428202 0
M  V30 27 C -2.089890 0.152516 -1.640287 0
M  V30 28 O -2.913517 0.030670 -2.565890 0
M  V30 29 N -1.743678 1.456215 -1.188230 0
M  V30 30 C -0.856415 1.845854 -0.078280 0
M  V30 31 H 2.690574 -4.474423 3.766675 0
M  V30 32 H 4.321993 -3.693459 3.486304 0
M  V30 33 H 3.354156 -3.331906 4.968267 0
M  V30 34 H 2.057848 -0.150987 2.826657 0
M  V30 35 H 3.245840 1.497790 1.702332 0
M  V30 36 H 4.304200 3.462183 2.577043 0
M  V30 37 H 2.915194 5.366717 3.471409 0
M  V30 38 H -0.555663 3.155530 2.539769 0
M  V30 39 H -0.118638 -2.729968 0.354853 0
M  V30 40 H -0.519643 -4.453918 -3.607574 0
M  V30 41 H -2.324246 -5.814451 -2.656989 0
M  V30 42 H -3.736786 -4.813282 -0.841909 0
M  V30 43 H -2.165965 2.287409 -1.699756 0
M  V30 44 H -1.609631 2.186984 0.698671 0
M  V30 45 H -0.212144 2.638085 -0.448801 0
M  V30 END ATOM
M  V30 BEGIN BOND
M  V30 1 1 1 2
M  V30 2 1 2 3
M  V30 3 2 3 4
M  V30 4 1 3 5
M  V30 5 2 5 6
M  V30 6 1 6 7
M  V30 7 1 7 8
M  V30 8 2 8 9
M  V30 9 1 9 10
M  V30 10 2 10 11
M  V30 11 1 11 12
M  V30 12 1 12 13
M  V30 13 2 12 14
M  V30 14 2 7 15
M  V30 15 1 15 16
M  V30 16 2 16 17
M  V30 17 1 16 18
M  V30 18 1 18 19
M  V30 19 2 19 20
M  V30 20 1 20 21
M  V30 21 1 20 22
M  V30 22 2 22 23
M  V30 23 1 23 24
M  V30 24 2 24 25
M  V30 25 1 25 26
M  V30 26 1 18 27
M  V30 27 2 27 28
M  V30 28 1 27 29
M  V30 29 1 29 30
M  V30 30 1 17 5
M  V30 31 1 25 19
M  V30 32 1 14 8
M  V30 33 1 30 15
M  V30 34 1 1 31
M  V30 35 1 1 32
M  V30 36 1 1 33
M  V30 37 1 6 34
M  V30 38 1 9 35
M  V30 39 1 10 36
M  V30 40 1 11 37
M  V30 41 1 14 38
M  V30 42 1 17 39
M  V30 43 1 22 40
M  V30 44 1 23 41
M  V30 45 1 24 42
M  V30 46 1 29 43
M  V30 47 1 30 44
M  V30 48 1 30 45
M  V30 END BOND
M  V30 END CTAB
M  END
>  <Dataset>  (672) 
ChEMBL_Kinases

>  <Ligand_Instance>  (672) 
nan

>  <PDB_ID>  (672) 
nan

>  <Standardized_SMILES>  (672) 
COC(=O)c1cc(-c2cccc(F)c2)c2c(c1)N(c1c(Cl)cccc1Cl)C(=O)NC2

>  <Name>  (672) 
nan

>  <Pocket>  (672) 
nan

>  <ATP_Site>  (672) 
nan

>  <Peripheral>  (672) 
nan

>  <Num_H_Atoms_ProtBoundConf>  (672) 
nan

>  <Num_Resolved_Atoms>  (672) 
nan

>  <Num_Not_Resolved_Atoms>  (672) 
nan

$$$$
CHEMBL4866448
     RDKit          3D

  0  0  0  0  0  0  0  0  0  0999 V3000
M  V30 BEGIN CTAB
M  V30 COUNTS 71 75 0 0 0
M  V30 BEGIN ATOM
M  V30 1 C 9.415203 -2.636082 0.817141 0
M  V30 2 O 8.209955 -2.278594 1.252562 0
M  V30 3 C 7.037178 -2.083974 1.694527 0
M  V30 4 C 6.425438 -0.823037 1.783866 0
M  V30 5 C 5.115848 -0.803180 2.303968 0
M  V30 6 C 4.380769 0.516769 2.433675 0 CFG=1
M  V30 7 C 4.879853 1.272114 3.638998 0
M  V30 8 O 6.232186 1.545381 3.631193 0
M  V30 9 N 4.555924 1.168571 1.185481 0
M  V30 10 C 3.389978 1.176716 0.389653 0
M  V30 11 O 2.306199 0.631108 0.790107 0
M  V30 12 C 3.073254 1.742855 -0.986342 0 CFG=1
M  V30 13 C 4.130935 1.302750 -1.938353 0
M  V30 14 N 1.738719 1.259240 -1.315784 0
M  V30 15 C 1.378283 -0.124903 -1.530801 0
M  V30 16 C -0.107940 -0.142135 -1.552829 0
M  V30 17 C -0.932541 -1.242337 -1.560811 0
M  V30 18 C -2.289956 -0.936447 -1.645376 0
M  V30 19 C -2.829863 0.344575 -1.718684 0
M  V30 20 C -4.303293 0.432690 -1.760882 0
M  V30 21 N -4.841266 -0.313867 -0.780083 0
M  V30 22 C -6.151948 -0.461411 -0.534964 0
M  V30 23 N -6.634375 -1.265850 0.554275 0
M  V30 24 C -8.025343 -1.469704 0.838515 0
M  V30 25 C -8.662208 -2.235769 -0.331825 0
M  V30 26 C -8.150630 -3.681066 -0.268386 0
M  V30 27 O -7.017591 -3.715762 0.514523 0
M  V30 28 C -7.258853 -3.597747 1.874442 0
M  V30 29 C -8.125912 -2.368470 2.078291 0
M  V30 30 N -6.995730 0.210055 -1.362090 0
M  V30 31 C -6.507057 0.978657 -2.369280 0
M  V30 32 C -5.158115 1.102590 -2.584300 0
M  V30 33 Cl -4.352951 2.037609 -3.815231 0
M  V30 34 C -1.936670 1.415189 -1.705692 0
M  V30 35 C -0.584231 1.146772 -1.619856 0
M  V30 36 C 0.569779 2.065457 -1.479743 0
M  V30 37 O 0.490196 3.320188 -1.506231 0
M  V30 38 C 4.504569 -2.007050 2.694367 0
M  V30 39 C 5.141530 -3.223315 2.589862 0
M  V30 40 N 6.387625 -3.218141 2.092276 0
M  V30 41 H 9.712802 -3.612774 1.339171 0
M  V30 42 H 9.487309 -2.922816 -0.280100 0
M  V30 43 H 10.258372 -1.906582 1.008450 0
M  V30 44 H 6.931103 0.081087 1.472098 0
M  V30 45 H 3.341683 0.214355 2.658091 0
M  V30 46 H 4.651801 0.718080 4.568711 0
M  V30 47 H 4.261338 2.210962 3.680538 0
M  V30 48 H 6.562337 1.531466 4.551141 0
M  V30 49 H 5.322465 1.650956 0.683456 0
M  V30 50 H 3.081448 2.856462 -0.915251 0
M  V30 51 H 4.339319 2.105118 -2.700676 0
M  V30 52 H 5.085928 1.200516 -1.372374 0
M  V30 53 H 3.898927 0.363097 -2.482178 0
M  V30 54 H 1.752773 -0.833148 -0.806928 0
M  V30 55 H 1.682528 -0.453818 -2.572571 0
M  V30 56 H -0.614703 -2.274231 -1.508267 0
M  V30 57 H -2.964897 -1.802554 -1.653391 0
M  V30 58 H -5.886994 -1.709085 1.149302 0
M  V30 59 H -8.593504 -0.566600 1.032311 0
M  V30 60 H -9.768657 -2.228898 -0.191699 0
M  V30 61 H -8.312295 -1.766275 -1.260533 0
M  V30 62 H -7.917272 -4.086365 -1.260590 0
M  V30 63 H -8.892261 -4.346527 0.248831 0
M  V30 64 H -7.726574 -4.509214 2.288951 0
M  V30 65 H -6.280352 -3.489325 2.384437 0
M  V30 66 H -7.678226 -1.807584 2.928952 0
M  V30 67 H -9.142800 -2.695771 2.288365 0
M  V30 68 H -7.134284 1.530633 -3.049204 0
M  V30 69 H -2.378767 2.398293 -1.765394 0
M  V30 70 H 3.493656 -1.943925 3.089915 0
M  V30 71 H 4.568121 -4.075412 2.925859 0
M  V30 END ATOM
M  V30 BEGIN BOND
M  V30 1 1 1 2
M  V30 2 1 2 3
M  V30 3 2 3 4
M  V30 4 1 4 5
M  V30 5 1 5 6
M  V30 6 1 6 7
M  V30 7 1 7 8
M  V30 8 1 6 9
M  V30 9 1 9 10
M  V30 10 2 10 11
M  V30 11 1 10 12
M  V30 12 1 12 13
M  V30 13 1 12 14
M  V30 14 1 14 15
M  V30 15 1 15 16
M  V30 16 2 16 17
M  V30 17 1 17 18
M  V30 18 2 18 19
M  V30 19 1 19 20
M  V30 20 2 20 21
M  V30 21 1 21 22
M  V30 22 1 22 23
M  V30 23 1 23 24
M  V30 24 1 24 25
M  V30 25 1 25 26
M  V30 26 1 26 27
M  V30 27 1 27 28
M  V30 28 1 28 29
M  V30 29 2 22 30
M  V30 30 1 30 31
M  V30 31 2 31 32
M  V30 32 1 32 33
M  V30 33 1 19 34
M  V30 34 2 34 35
M  V30 35 1 35 36
M  V30 36 2 36 37
M  V30 37 2 5 38
M  V30 38 1 38 39
M  V30 39 2 39 40
M  V30 40 1 40 3
M  V30 41 1 36 14
M  V30 42 1 35 16
M  V30 43 1 32 20
M  V30 44 1 29 24
M  V30 45 1 1 41
M  V30 46 1 1 42
M  V30 47 1 1 43
M  V30 48 1 4 44
M  V30 49 1 6 45 CFG=1
M  V30 50 1 7 46
M  V30 51 1 7 47
M  V30 52 1 8 48
M  V30 53 1 9 49
M  V30 54 1 12 50 CFG=1
M  V30 55 1 13 51
M  V30 56 1 13 52
M  V30 57 1 13 53
M  V30 58 1 15 54
M  V30 59 1 15 55
M  V30 60 1 17 56
M  V30 61 1 18 57
M  V30 62 1 23 58
M  V30 63 1 24 59
M  V30 64 1 25 60
M  V30 65 1 25 61
M  V30 66 1 26 62
M  V30 67 1 26 63
M  V30 68 1 28 64
M  V30 69 1 28 65
M  V30 70 1 29 66
M  V30 71 1 29 67
M  V30 72 1 31 68
M  V30 73 1 34 69
M  V30 74 1 38 70
M  V30 75 1 39 71
M  V30 END BOND
M  V30 END CTAB
M  END
>  <Dataset>  (673) 
ChEMBL_Kinases

>  <Ligand_Instance>  (673) 
nan

>  <PDB_ID>  (673) 
nan

>  <Standardized_SMILES>  (673) 
COc1cc([C@@H](CO)NC(=O)[C@@H](C)N2Cc3ccc(-c4nc(NC5CCOCC5)ncc4Cl)cc3C2=O)ccn1

>  <Name>  (673) 
nan

>  <Pocket>  (673) 
nan

>  <ATP_Site>  (673) 
nan

>  <Peripheral>  (673) 
nan

>  <Num_H_Atoms_ProtBoundConf>  (673) 
nan

>  <Num_Resolved_Atoms>  (673) 
nan

>  <Num_Not_Resolved_Atoms>  (673) 
nan

$$$$
CHEMBL4866487
     RDKit          3D

  0  0  0  0  0  0  0  0  0  0999 V3000
M  V30 BEGIN CTAB
M  V30 COUNTS 30 32 0 0 0
M  V30 BEGIN ATOM
M  V30 1 C -1.101761 -1.923259 3.015085 0
M  V30 2 N -0.911049 -2.878152 1.951371 0
M  V30 3 C -1.400195 -4.220923 2.200916 0
M  V30 4 C -0.288766 -2.579832 0.712556 0
M  V30 5 N -0.168843 -3.562717 -0.213082 0
M  V30 6 C 0.424030 -3.272733 -1.389146 0
M  V30 7 C 0.869356 -1.983949 -1.565342 0
M  V30 8 I 1.773878 -1.648993 -3.428265 0
M  V30 9 C 0.773288 -0.959803 -0.667494 0
M  V30 10 C 1.230293 0.398818 -0.822084 0
M  V30 11 C 1.856463 1.140033 -1.787532 0
M  V30 12 N 2.046834 2.414511 -1.379122 0
M  V30 13 N 1.545200 2.521159 -0.136989 0
M  V30 14 N 1.560321 3.630872 0.570750 0
M  V30 15 C 1.029267 3.623510 1.805951 0
M  V30 16 C 0.495482 2.433978 2.255935 0
M  V30 17 C 0.522245 1.321104 1.448304 0
M  V30 18 C 1.059673 1.314491 0.188792 0
M  V30 19 N 0.171567 -1.351657 0.461701 0
M  V30 20 H -1.716916 -2.306271 3.836166 0
M  V30 21 H -0.132921 -1.501854 3.383951 0
M  V30 22 H -1.664777 -1.049102 2.573942 0
M  V30 23 H -2.331925 -4.160872 2.792657 0
M  V30 24 H -0.668135 -4.796340 2.816216 0
M  V30 25 H -1.637783 -4.776576 1.269526 0
M  V30 26 H 0.522232 -4.048661 -2.128023 0
M  V30 27 H 2.157441 0.774207 -2.735424 0
M  V30 28 H 1.039762 4.539336 2.394678 0
M  V30 29 H 0.071166 2.435055 3.247460 0
M  V30 30 H 0.077445 0.457480 1.909450 0
M  V30 END ATOM
M  V30 BEGIN BOND
M  V30 1 1 1 2
M  V30 2 1 2 3
M  V30 3 1 2 4
M  V30 4 2 4 5
M  V30 5 1 5 6
M  V30 6 2 6 7
M  V30 7 1 7 8
M  V30 8 1 7 9
M  V30 9 1 9 10
M  V30 10 1 10 11
M  V30 11 2 11 12
M  V30 12 1 12 13
M  V30 13 1 13 14
M  V30 14 2 14 15
M  V30 15 1 15 16
M  V30 16 2 16 17
M  V30 17 1 17 18
M  V30 18 2 9 19
M  V30 19 1 19 4
M  V30 20 2 18 10
M  V30 21 1 18 13
M  V30 22 1 1 20
M  V30 23 1 1 21
M  V30 24 1 1 22
M  V30 25 1 3 23
M  V30 26 1 3 24
M  V30 27 1 3 25
M  V30 28 1 6 26
M  V30 29 1 11 27
M  V30 30 1 15 28
M  V30 31 1 16 29
M  V30 32 1 17 30
M  V30 END BOND
M  V30 END CTAB
M  END
>  <Dataset>  (674) 
ChEMBL_Kinases

>  <Ligand_Instance>  (674) 
nan

>  <PDB_ID>  (674) 
nan

>  <Standardized_SMILES>  (674) 
CN(C)c1ncc(I)c(-c2cnn3ncccc23)n1

>  <Name>  (674) 
nan

>  <Pocket>  (674) 
nan

>  <ATP_Site>  (674) 
nan

>  <Peripheral>  (674) 
nan

>  <Num_H_Atoms_ProtBoundConf>  (674) 
nan

>  <Num_Resolved_Atoms>  (674) 
nan

>  <Num_Not_Resolved_Atoms>  (674) 
nan

$$$$
CHEMBL94825
     RDKit          3D

  0  0  0  0  0  0  0  0  0  0999 V3000
M  V30 BEGIN CTAB
M  V30 COUNTS 55 59 0 0 0
M  V30 BEGIN ATOM
M  V30 1 O 2.224662 -3.291654 -3.068634 0
M  V30 2 C 2.170843 -2.494645 -2.110002 0
M  V30 3 N 3.343608 -1.888667 -1.584206 0
M  V30 4 C 3.504632 -0.951376 -0.494305 0
M  V30 5 C 2.170768 -0.664206 0.071003 0
M  V30 6 C 2.111881 0.227559 1.143381 0
M  V30 7 C 3.362131 0.832186 1.654572 0
M  V30 8 C 4.119403 0.244501 2.662339 0
M  V30 9 C 5.281040 0.843871 3.109814 0
M  V30 10 C 5.682249 2.052198 2.531548 0
M  V30 11 C 4.949666 2.657738 1.529547 0
M  V30 12 C 3.778652 2.034082 1.092689 0
M  V30 13 Cl 2.856030 2.822870 -0.188381 0
M  V30 14 C 0.902465 0.551813 1.732052 0
M  V30 15 C -0.307583 0.010114 1.289053 0
M  V30 16 O -1.408251 0.449093 1.996228 0
M  V30 17 C -2.737531 0.092090 1.793002 0
M  V30 18 C -3.330469 -0.641867 2.985288 0
M  V30 19 C -4.804300 -0.765160 2.784276 0
M  V30 20 N -5.265185 -0.524734 1.452146 0
M  V30 21 C -4.897392 0.737105 0.891809 0
M  V30 22 C -3.617836 1.275435 1.445040 0
M  V30 23 C -0.229897 -0.867134 0.230825 0
M  V30 24 C 0.972242 -1.190817 -0.355944 0
M  V30 25 N 0.978468 -2.103630 -1.444609 0
M  V30 26 C -0.261211 -2.645782 -1.883144 0
M  V30 27 C -0.643601 -3.827692 -1.263751 0
M  V30 28 Cl 0.299714 -4.646959 -0.014056 0
M  V30 29 C -1.822924 -4.466433 -1.589343 0
M  V30 30 C -2.662377 -3.925397 -2.561613 0
M  V30 31 C -2.275251 -2.739011 -3.181124 0
M  V30 32 C -1.090616 -2.104448 -2.848815 0
M  V30 33 Cl -0.547489 -0.617063 -3.586281 0
M  V30 34 H 4.281654 -2.109211 -2.003998 0
M  V30 35 H 4.202693 -1.361754 0.261800 0
M  V30 36 H 3.968961 -0.027012 -0.947622 0
M  V30 37 H 3.767568 -0.680095 3.070614 0
M  V30 38 H 5.867980 0.384523 3.893726 0
M  V30 39 H 6.584774 2.558373 2.849582 0
M  V30 40 H 5.293461 3.591104 1.108726 0
M  V30 41 H 0.957770 1.263112 2.570295 0
M  V30 42 H -2.793843 -0.622737 0.950105 0
M  V30 43 H -3.117768 -0.067945 3.909660 0
M  V30 44 H -2.831712 -1.627479 3.080195 0
M  V30 45 H -5.330600 -0.076168 3.473287 0
M  V30 46 H -5.127307 -1.795874 3.053509 0
M  V30 47 H -5.262040 -1.328777 0.818400 0
M  V30 48 H -4.770214 0.560613 -0.215106 0
M  V30 49 H -5.724819 1.483951 0.952150 0
M  V30 50 H -3.070675 1.915017 0.735532 0
M  V30 51 H -3.888223 1.827106 2.384122 0
M  V30 52 H -1.178660 -1.267597 -0.087589 0
M  V30 53 H -2.178822 -5.385221 -1.147644 0
M  V30 54 H -3.613727 -4.371923 -2.875382 0
M  V30 55 H -2.897907 -2.276920 -3.947516 0
M  V30 END ATOM
M  V30 BEGIN BOND
M  V30 1 2 1 2
M  V30 2 1 2 3
M  V30 3 1 3 4
M  V30 4 1 4 5
M  V30 5 2 5 6
M  V30 6 1 6 7
M  V30 7 2 7 8
M  V30 8 1 8 9
M  V30 9 2 9 10
M  V30 10 1 10 11
M  V30 11 2 11 12
M  V30 12 1 12 13
M  V30 13 1 6 14
M  V30 14 2 14 15
M  V30 15 1 15 16
M  V30 16 1 16 17
M  V30 17 1 17 18
M  V30 18 1 18 19
M  V30 19 1 19 20
M  V30 20 1 20 21
M  V30 21 1 21 22
M  V30 22 1 15 23
M  V30 23 2 23 24
M  V30 24 1 24 25
M  V30 25 1 25 26
M  V30 26 2 26 27
M  V30 27 1 27 28
M  V30 28 1 27 29
M  V30 29 2 29 30
M  V30 30 1 30 31
M  V30 31 2 31 32
M  V30 32 1 32 33
M  V30 33 1 25 2
M  V30 34 1 32 26
M  V30 35 1 24 5
M  V30 36 1 12 7
M  V30 37 1 22 17
M  V30 38 1 3 34
M  V30 39 1 4 35
M  V30 40 1 4 36
M  V30 41 1 8 37
M  V30 42 1 9 38
M  V30 43 1 10 39
M  V30 44 1 11 40
M  V30 45 1 14 41
M  V30 46 1 17 42
M  V30 47 1 18 43
M  V30 48 1 18 44
M  V30 49 1 19 45
M  V30 50 1 19 46
M  V30 51 1 20 47
M  V30 52 1 21 48
M  V30 53 1 21 49
M  V30 54 1 22 50
M  V30 55 1 22 51
M  V30 56 1 23 52
M  V30 57 1 29 53
M  V30 58 1 30 54
M  V30 59 1 31 55
M  V30 END BOND
M  V30 END CTAB
M  END
>  <Dataset>  (675) 
ChEMBL_Kinases

>  <Ligand_Instance>  (675) 
nan

>  <PDB_ID>  (675) 
nan

>  <Standardized_SMILES>  (675) 
O=C1NCc2c(-c3ccccc3Cl)cc(OC3CCNCC3)cc2N1c1c(Cl)cccc1Cl

>  <Name>  (675) 
nan

>  <Pocket>  (675) 
nan

>  <ATP_Site>  (675) 
nan

>  <Peripheral>  (675) 
nan

>  <Num_H_Atoms_ProtBoundConf>  (675) 
nan

>  <Num_Resolved_Atoms>  (675) 
nan

>  <Num_Not_Resolved_Atoms>  (675) 
nan

$$$$
CHEMBL4866517
     RDKit          3D

  0  0  0  0  0  0  0  0  0  0999 V3000
M  V30 BEGIN CTAB
M  V30 COUNTS 34 37 0 0 0
M  V30 BEGIN ATOM
M  V30 1 C -0.406066 -3.872925 3.099709 0
M  V30 2 C -1.311410 -3.965638 1.889305 0
M  V30 3 F -2.407393 -4.762810 2.023138 0
M  V30 4 C -0.481217 -4.231391 0.642745 0
M  V30 5 N -0.305109 -2.822055 0.482006 0
M  V30 6 C 0.634943 -1.941778 -0.125568 0
M  V30 7 N 1.713313 -2.446027 -0.765603 0
M  V30 8 C 2.616330 -1.608769 -1.348957 0
M  V30 9 C 2.453893 -0.220185 -1.301940 0
M  V30 10 C 1.341598 0.258065 -0.640194 0
M  V30 11 C 1.129876 1.703990 -0.565235 0
M  V30 12 C 1.939664 2.687703 -1.097182 0
M  V30 13 N 1.361632 3.863117 -0.788171 0
M  V30 14 N 0.246441 3.678559 -0.099667 0
M  V30 15 N -0.619180 4.571136 0.395749 0
M  V30 16 C -1.690876 4.114107 1.067930 0
M  V30 17 C -1.959331 2.772333 1.282519 0
M  V30 18 C -1.039272 1.869478 0.754217 0
M  V30 19 C 0.074569 2.346003 0.055548 0
M  V30 20 N 0.484073 -0.616258 -0.083248 0
M  V30 21 C -1.533526 -2.617424 1.224851 0
M  V30 22 H 0.091685 -4.846197 3.236750 0
M  V30 23 H 0.340952 -3.081898 2.876048 0
M  V30 24 H -0.997167 -3.527847 3.966190 0
M  V30 25 H 0.411087 -4.839862 0.858316 0
M  V30 26 H -1.153326 -4.725224 -0.110985 0
M  V30 27 H 3.484169 -1.990543 -1.864945 0
M  V30 28 H 3.154597 0.465796 -1.755974 0
M  V30 29 H 2.858839 2.509398 -1.652227 0
M  V30 30 H -2.428156 4.810312 1.492328 0
M  V30 31 H -2.844984 2.462951 1.835436 0
M  V30 32 H -1.211977 0.808104 0.899750 0
M  V30 33 H -1.495764 -1.774745 1.950491 0
M  V30 34 H -2.454513 -2.572963 0.625114 0
M  V30 END ATOM
M  V30 BEGIN BOND
M  V30 1 1 1 2
M  V30 2 1 2 3
M  V30 3 1 2 4
M  V30 4 1 4 5
M  V30 5 1 5 6
M  V30 6 2 6 7
M  V30 7 1 7 8
M  V30 8 2 8 9
M  V30 9 1 9 10
M  V30 10 1 10 11
M  V30 11 1 11 12
M  V30 12 2 12 13
M  V30 13 1 13 14
M  V30 14 1 14 15
M  V30 15 2 15 16
M  V30 16 1 16 17
M  V30 17 2 17 18
M  V30 18 1 18 19
M  V30 19 2 10 20
M  V30 20 1 5 21
M  V30 21 1 21 2
M  V30 22 1 20 6
M  V30 23 2 19 11
M  V30 24 1 19 14
M  V30 25 1 1 22
M  V30 26 1 1 23
M  V30 27 1 1 24
M  V30 28 1 4 25
M  V30 29 1 4 26
M  V30 30 1 8 27
M  V30 31 1 9 28
M  V30 32 1 12 29
M  V30 33 1 16 30
M  V30 34 1 17 31
M  V30 35 1 18 32
M  V30 36 1 21 33
M  V30 37 1 21 34
M  V30 END BOND
M  V30 END CTAB
M  END
>  <Dataset>  (676) 
ChEMBL_Kinases

>  <Ligand_Instance>  (676) 
nan

>  <PDB_ID>  (676) 
nan

>  <Standardized_SMILES>  (676) 
CC1(F)CN(c2nccc(-c3cnn4ncccc34)n2)C1

>  <Name>  (676) 
nan

>  <Pocket>  (676) 
nan

>  <ATP_Site>  (676) 
nan

>  <Peripheral>  (676) 
nan

>  <Num_H_Atoms_ProtBoundConf>  (676) 
nan

>  <Num_Resolved_Atoms>  (676) 
nan

>  <Num_Not_Resolved_Atoms>  (676) 
nan

$$$$
CHEMBL4866544
     RDKit          3D

  0  0  0  0  0  0  0  0  0  0999 V3000
M  V30 BEGIN CTAB
M  V30 COUNTS 50 52 0 0 0
M  V30 BEGIN ATOM
M  V30 1 C -1.983562 -2.664834 -0.828879 0
M  V30 2 N -0.924532 -3.621227 -0.697422 0
M  V30 3 C 0.505391 -3.555629 -0.603384 0
M  V30 4 N 1.183933 -2.417237 -0.632893 0
M  V30 5 C 2.506794 -2.289540 -0.565984 0
M  V30 6 N 3.242209 -1.080652 -0.592311 0
M  V30 7 C 2.863276 0.270419 -0.528686 0
M  V30 8 C 3.679020 1.249361 -1.112568 0
M  V30 9 N 3.386394 2.552623 -1.059089 0
M  V30 10 C 2.283990 2.988109 -0.435009 0
M  V30 11 C 2.069887 4.417782 -0.442477 0
M  V30 12 N 1.906430 5.569735 -0.450704 0
M  V30 13 C 1.383586 2.112865 0.191210 0
M  V30 14 N 0.258206 2.625025 0.846126 0
M  V30 15 C -0.800248 2.008876 1.576729 0 CFG=1
M  V30 16 C -1.578356 1.090222 0.707817 0
M  V30 17 C -2.166584 -0.100169 1.393523 0
M  V30 18 C -2.472044 0.260859 2.822782 0 CFG=2
M  V30 19 N -3.362165 1.361785 2.992754 0
M  V30 20 C -1.139145 0.418460 3.515598 0
M  V30 21 C -0.239820 1.399327 2.836886 0
M  V30 22 C 1.750358 0.786968 0.093850 0
M  V30 23 N 3.155822 -3.444661 -0.459536 0
M  V30 24 C 2.548800 -4.633979 -0.421883 0
M  V30 25 C 1.195770 -4.726411 -0.493134 0
M  V30 26 C 0.535368 -6.055996 -0.450261 0
M  V30 27 F -0.192899 -6.251604 -1.619854 0
M  V30 28 F 1.487273 -7.049626 -0.329628 0
M  V30 29 F -0.348418 -6.162747 0.604824 0
M  V30 30 H -2.598889 -2.650262 0.090177 0
M  V30 31 H -1.553336 -1.636819 -0.945670 0
M  V30 32 H -2.610834 -2.872038 -1.723716 0
M  V30 33 H -1.401494 -4.546158 -0.669157 0
M  V30 34 H 4.302506 -1.197651 -0.673689 0
M  V30 35 H 4.577426 0.940289 -1.625298 0
M  V30 36 H 0.161200 3.687733 0.796240 0
M  V30 37 H -1.535761 2.785021 1.946679 0
M  V30 38 H -2.464293 1.636278 0.251880 0
M  V30 39 H -1.030961 0.738206 -0.206072 0
M  V30 40 H -3.074499 -0.436248 0.860114 0
M  V30 41 H -1.454640 -0.959688 1.443260 0
M  V30 42 H -2.981799 -0.626882 3.303397 0
M  V30 43 H -3.960812 1.607093 2.203500 0
M  V30 44 H -3.080008 2.097443 3.642335 0
M  V30 45 H -1.343173 0.643219 4.582615 0
M  V30 46 H -0.677473 -0.612962 3.517120 0
M  V30 47 H 0.753916 0.953538 2.735372 0
M  V30 48 H -0.099988 2.246193 3.560880 0
M  V30 49 H 1.106612 0.050945 0.554100 0
M  V30 50 H 3.133087 -5.546792 -0.333198 0
M  V30 END ATOM
M  V30 BEGIN BOND
M  V30 1 1 1 2
M  V30 2 1 2 3
M  V30 3 2 3 4
M  V30 4 1 4 5
M  V30 5 1 5 6
M  V30 6 1 6 7
M  V30 7 2 7 8
M  V30 8 1 8 9
M  V30 9 2 9 10
M  V30 10 1 10 11
M  V30 11 3 11 12
M  V30 12 1 10 13
M  V30 13 1 13 14
M  V30 14 1 14 15
M  V30 15 1 15 16
M  V30 16 1 16 17
M  V30 17 1 17 18
M  V30 18 1 18 19
M  V30 19 1 18 20
M  V30 20 1 20 21
M  V30 21 2 13 22
M  V30 22 2 5 23
M  V30 23 1 23 24
M  V30 24 2 24 25
M  V30 25 1 25 26
M  V30 26 1 26 27
M  V30 27 1 26 28
M  V30 28 1 26 29
M  V30 29 1 25 3
M  V30 30 1 22 7
M  V30 31 1 21 15
M  V30 32 1 1 30
M  V30 33 1 1 31
M  V30 34 1 1 32
M  V30 35 1 2 33
M  V30 36 1 6 34
M  V30 37 1 8 35
M  V30 38 1 14 36
M  V30 39 1 15 37 CFG=1
M  V30 40 1 16 38
M  V30 41 1 16 39
M  V30 42 1 17 40
M  V30 43 1 17 41
M  V30 44 1 18 42 CFG=1
M  V30 45 1 19 43
M  V30 46 1 19 44
M  V30 47 1 20 45
M  V30 48 1 20 46
M  V30 49 1 21 47
M  V30 50 1 21 48
M  V30 51 1 22 49
M  V30 52 1 24 50
M  V30 END BOND
M  V30 END CTAB
M  END
>  <Dataset>  (677) 
ChEMBL_Kinases

>  <Ligand_Instance>  (677) 
nan

>  <PDB_ID>  (677) 
nan

>  <Standardized_SMILES>  (677) 
CNc1nc(Nc2cnc(C#N)c(N[C@H]3CC[C@H](N)CC3)c2)ncc1C(F)(F)F

>  <Name>  (677) 
nan

>  <Pocket>  (677) 
nan

>  <ATP_Site>  (677) 
nan

>  <Peripheral>  (677) 
nan

>  <Num_H_Atoms_ProtBoundConf>  (677) 
nan

>  <Num_Resolved_Atoms>  (677) 
nan

>  <Num_Not_Resolved_Atoms>  (677) 
nan

$$$$
CHEMBL399645
     RDKit          3D

  0  0  0  0  0  0  0  0  0  0999 V3000
M  V30 BEGIN CTAB
M  V30 COUNTS 56 59 0 0 0
M  V30 BEGIN ATOM
M  V30 1 C 0.264093 -2.009124 4.695399 0
M  V30 2 O 1.320260 -2.798563 4.304814 0
M  V30 3 C 2.168365 -2.175486 3.399670 0
M  V30 4 C 2.783563 -0.918980 3.945728 0
M  V30 5 N 3.663431 -0.292317 2.979435 0
M  V30 6 C 3.232573 0.169953 1.722107 0
M  V30 7 N 4.098095 0.746067 0.847988 0
M  V30 8 C 3.693720 1.186118 -0.341475 0
M  V30 9 C 2.391733 1.097926 -0.780335 0
M  V30 10 C 1.539503 0.508789 0.129774 0
M  V30 11 C 0.120762 0.308064 -0.111594 0
M  V30 12 C -0.873626 1.241291 -0.320572 0
M  V30 13 C -0.672595 2.686323 -0.340486 0
M  V30 14 C -0.212559 3.190729 0.863438 0
M  V30 15 C 0.015058 4.563771 0.960274 0
M  V30 16 C -0.216390 5.407482 -0.132650 0
M  V30 17 F -0.001202 6.747296 -0.061317 0
M  V30 18 C -0.676847 4.882216 -1.328499 0
M  V30 19 C -0.902667 3.517703 -1.423691 0
M  V30 20 N -2.033565 0.541244 -0.497087 0
M  V30 21 C -1.750961 -0.784637 -0.397944 0
M  V30 22 C -2.609286 -1.862419 -0.507776 0
M  V30 23 C -2.114740 -3.155205 -0.372903 0
M  V30 24 C -3.056376 -4.314592 -0.493937 0
M  V30 25 N -3.171338 -4.780422 -1.841081 0
M  V30 26 C -1.951531 -5.231534 -2.433693 0
M  V30 27 C -3.803509 -3.802431 -2.708502 0
M  V30 28 C -0.765045 -3.306176 -0.131175 0
M  V30 29 C 0.054432 -2.200116 -0.029177 0
M  V30 30 N -0.419007 -0.943235 -0.159034 0
M  V30 31 N 1.971256 0.071942 1.325400 0
M  V30 32 H -0.350523 -2.601043 5.417878 0
M  V30 33 H 0.527405 -1.086687 5.231840 0
M  V30 34 H -0.387305 -1.838557 3.813691 0
M  V30 35 H 2.942369 -2.896009 3.080906 0
M  V30 36 H 1.548218 -1.934628 2.513573 0
M  V30 37 H 3.349180 -1.211566 4.851829 0
M  V30 38 H 2.051284 -0.158735 4.235208 0
M  V30 39 H 4.671591 -0.177427 3.229264 0
M  V30 40 H 4.429983 1.644092 -1.012690 0
M  V30 41 H 2.018823 1.432353 -1.716380 0
M  V30 42 H -0.004878 2.627947 1.757622 0
M  V30 43 H 0.375599 5.049587 1.862880 0
M  V30 44 H -0.878090 5.469328 -2.211976 0
M  V30 45 H -1.261762 2.983161 -2.301695 0
M  V30 46 H -3.674684 -1.742375 -0.698656 0
M  V30 47 H -4.051628 -4.009021 -0.149856 0
M  V30 48 H -2.688376 -5.136025 0.137182 0
M  V30 49 H -1.259952 -4.383266 -2.687003 0
M  V30 50 H -2.211731 -5.742725 -3.390564 0
M  V30 51 H -1.464734 -5.994994 -1.809580 0
M  V30 52 H -4.003771 -4.296726 -3.681352 0
M  V30 53 H -4.782957 -3.465559 -2.327801 0
M  V30 54 H -3.094609 -2.966590 -2.919000 0
M  V30 55 H -0.364992 -4.316933 -0.023375 0
M  V30 56 H 1.103442 -2.345140 0.159802 0
M  V30 END ATOM
M  V30 BEGIN BOND
M  V30 1 1 1 2
M  V30 2 1 2 3
M  V30 3 1 3 4
M  V30 4 1 4 5
M  V30 5 1 5 6
M  V30 6 2 6 7
M  V30 7 1 7 8
M  V30 8 2 8 9
M  V30 9 1 9 10
M  V30 10 1 10 11
M  V30 11 2 11 12
M  V30 12 1 12 13
M  V30 13 2 13 14
M  V30 14 1 14 15
M  V30 15 2 15 16
M  V30 16 1 16 17
M  V30 17 1 16 18
M  V30 18 2 18 19
M  V30 19 1 12 20
M  V30 20 2 20 21
M  V30 21 1 21 22
M  V30 22 2 22 23
M  V30 23 1 23 24
M  V30 24 1 24 25
M  V30 25 1 25 26
M  V30 26 1 25 27
M  V30 27 1 23 28
M  V30 28 2 28 29
M  V30 29 1 29 30
M  V30 30 2 10 31
M  V30 31 1 31 6
M  V30 32 1 30 11
M  V30 33 1 19 13
M  V30 34 1 30 21
M  V30 35 1 1 32
M  V30 36 1 1 33
M  V30 37 1 1 34
M  V30 38 1 3 35
M  V30 39 1 3 36
M  V30 40 1 4 37
M  V30 41 1 4 38
M  V30 42 1 5 39
M  V30 43 1 8 40
M  V30 44 1 9 41
M  V30 45 1 14 42
M  V30 46 1 15 43
M  V30 47 1 18 44
M  V30 48 1 19 45
M  V30 49 1 22 46
M  V30 50 1 24 47
M  V30 51 1 24 48
M  V30 52 1 26 49
M  V30 53 1 26 50
M  V30 54 1 26 51
M  V30 55 1 27 52
M  V30 56 1 27 53
M  V30 57 1 27 54
M  V30 58 1 28 55
M  V30 59 1 29 56
M  V30 END BOND
M  V30 END CTAB
M  END
>  <Dataset>  (678) 
ChEMBL_Kinases

>  <Ligand_Instance>  (678) 
nan

>  <PDB_ID>  (678) 
nan

>  <Standardized_SMILES>  (678) 
COCCNc1nccc(-c2c(-c3ccc(F)cc3)nc3cc(CN(C)C)ccn23)n1

>  <Name>  (678) 
nan

>  <Pocket>  (678) 
nan

>  <ATP_Site>  (678) 
nan

>  <Peripheral>  (678) 
nan

>  <Num_H_Atoms_ProtBoundConf>  (678) 
nan

>  <Num_Resolved_Atoms>  (678) 
nan

>  <Num_Not_Resolved_Atoms>  (678) 
nan

$$$$
CHEMBL400896
     RDKit          3D

  0  0  0  0  0  0  0  0  0  0999 V3000
M  V30 BEGIN CTAB
M  V30 COUNTS 64 67 0 0 0
M  V30 BEGIN ATOM
M  V30 1 C 1.274752 -2.926139 5.188584 0
M  V30 2 C 0.358800 -2.045383 5.998896 0
M  V30 3 C -0.890541 -1.661109 5.220756 0
M  V30 4 C -0.538647 -0.911685 3.966080 0
M  V30 5 C -1.713106 -0.491316 3.151353 0
M  V30 6 C -2.493172 -1.711501 2.727854 0
M  V30 7 N -3.659450 -1.326155 1.915023 0
M  V30 8 C -3.540783 -0.639758 0.676765 0
M  V30 9 N -4.657909 -0.309042 -0.007926 0
M  V30 10 C -4.618566 0.338430 -1.185683 0
M  V30 11 C -3.419072 0.702153 -1.761244 0
M  V30 12 C -2.280193 0.362654 -1.059065 0
M  V30 13 C -0.900048 0.649891 -1.482787 0
M  V30 14 C -0.190022 1.821202 -1.707063 0
M  V30 15 C -0.830029 3.119805 -1.518955 0
M  V30 16 C -1.284182 3.467141 -0.267018 0
M  V30 17 C -1.881370 4.711729 -0.153096 0
M  V30 18 C -2.018204 5.564033 -1.230065 0
M  V30 19 F -2.618943 6.753024 -0.992377 0
M  V30 20 C -1.548177 5.185051 -2.487891 0
M  V30 21 C -0.944939 3.943677 -2.633753 0
M  V30 22 N 1.060943 1.498656 -2.088200 0
M  V30 23 C 1.177093 0.148739 -2.115823 0
M  V30 24 C 2.240956 -0.681467 -2.436807 0
M  V30 25 C 2.113735 -2.055136 -2.389898 0
M  V30 26 C 3.192144 -3.029965 -2.714643 0
M  V30 27 N 3.937394 -3.334909 -1.516053 0
M  V30 28 C 4.998234 -4.270009 -1.724056 0
M  V30 29 C 3.099071 -3.820166 -0.447409 0
M  V30 30 C 0.890656 -2.572171 -2.012336 0
M  V30 31 C -0.136843 -1.702503 -1.702714 0
M  V30 32 N -0.017843 -0.342898 -1.747060 0
M  V30 33 N -2.382053 -0.294504 0.131818 0
M  V30 34 H 1.997802 -2.311972 4.588417 0
M  V30 35 H 0.698058 -3.556176 4.472585 0
M  V30 36 H 1.889975 -3.598152 5.810389 0
M  V30 37 H -0.000779 -2.655145 6.864424 0
M  V30 38 H 0.868687 -1.165513 6.390154 0
M  V30 39 H -1.532925 -1.048193 5.851352 0
M  V30 40 H -1.387906 -2.634577 4.989944 0
M  V30 41 H 0.051778 -0.022720 4.274853 0
M  V30 42 H 0.182964 -1.538506 3.373042 0
M  V30 43 H -2.333040 0.212941 3.750189 0
M  V30 44 H -1.326524 0.006139 2.230448 0
M  V30 45 H -1.778948 -2.340977 2.141785 0
M  V30 46 H -2.791811 -2.302559 3.590743 0
M  V30 47 H -4.596007 -1.578152 2.284430 0
M  V30 48 H -5.523363 0.595203 -1.719832 0
M  V30 49 H -3.281210 1.213863 -2.684217 0
M  V30 50 H -1.156560 2.767582 0.551966 0
M  V30 51 H -2.245470 4.991410 0.848115 0
M  V30 52 H -1.665917 5.870841 -3.321414 0
M  V30 53 H -0.572942 3.628999 -3.600483 0
M  V30 54 H 3.194445 -0.288360 -2.731150 0
M  V30 55 H 2.741483 -3.981277 -3.053725 0
M  V30 56 H 3.852040 -2.599569 -3.465475 0
M  V30 57 H 4.521411 -5.275648 -1.893686 0
M  V30 58 H 5.715624 -4.019553 -2.508683 0
M  V30 59 H 5.525246 -4.380154 -0.744533 0
M  V30 60 H 2.382543 -3.062477 -0.080220 0
M  V30 61 H 3.766343 -4.064909 0.406191 0
M  V30 62 H 2.590510 -4.780356 -0.710446 0
M  V30 63 H 0.733754 -3.635612 -1.958137 0
M  V30 64 H -1.088482 -2.172173 -1.408513 0
M  V30 END ATOM
M  V30 BEGIN BOND
M  V30 1 1 1 2
M  V30 2 1 2 3
M  V30 3 1 3 4
M  V30 4 1 4 5
M  V30 5 1 5 6
M  V30 6 1 6 7
M  V30 7 1 7 8
M  V30 8 2 8 9
M  V30 9 1 9 10
M  V30 10 2 10 11
M  V30 11 1 11 12
M  V30 12 1 12 13
M  V30 13 2 13 14
M  V30 14 1 14 15
M  V30 15 2 15 16
M  V30 16 1 16 17
M  V30 17 2 17 18
M  V30 18 1 18 19
M  V30 19 1 18 20
M  V30 20 2 20 21
M  V30 21 1 14 22
M  V30 22 2 22 23
M  V30 23 1 23 24
M  V30 24 2 24 25
M  V30 25 1 25 26
M  V30 26 1 26 27
M  V30 27 1 27 28
M  V30 28 1 27 29
M  V30 29 1 25 30
M  V30 30 2 30 31
M  V30 31 1 31 32
M  V30 32 2 12 33
M  V30 33 1 33 8
M  V30 34 1 32 13
M  V30 35 1 21 15
M  V30 36 1 32 23
M  V30 37 1 1 34
M  V30 38 1 1 35
M  V30 39 1 1 36
M  V30 40 1 2 37
M  V30 41 1 2 38
M  V30 42 1 3 39
M  V30 43 1 3 40
M  V30 44 1 4 41
M  V30 45 1 4 42
M  V30 46 1 5 43
M  V30 47 1 5 44
M  V30 48 1 6 45
M  V30 49 1 6 46
M  V30 50 1 7 47
M  V30 51 1 10 48
M  V30 52 1 11 49
M  V30 53 1 16 50
M  V30 54 1 17 51
M  V30 55 1 20 52
M  V30 56 1 21 53
M  V30 57 1 24 54
M  V30 58 1 26 55
M  V30 59 1 26 56
M  V30 60 1 28 57
M  V30 61 1 28 58
M  V30 62 1 28 59
M  V30 63 1 29 60
M  V30 64 1 29 61
M  V30 65 1 29 62
M  V30 66 1 30 63
M  V30 67 1 31 64
M  V30 END BOND
M  V30 END CTAB
M  END
>  <Dataset>  (679) 
ChEMBL_Kinases

>  <Ligand_Instance>  (679) 
nan

>  <PDB_ID>  (679) 
nan

>  <Standardized_SMILES>  (679) 
CCCCCCNc1nccc(-c2c(-c3ccc(F)cc3)nc3cc(CN(C)C)ccn23)n1

>  <Name>  (679) 
nan

>  <Pocket>  (679) 
nan

>  <ATP_Site>  (679) 
nan

>  <Peripheral>  (679) 
nan

>  <Num_H_Atoms_ProtBoundConf>  (679) 
nan

>  <Num_Resolved_Atoms>  (679) 
nan

>  <Num_Not_Resolved_Atoms>  (679) 
nan

$$$$
CHEMBL400838
     RDKit          3D

  0  0  0  0  0  0  0  0  0  0999 V3000
M  V30 BEGIN CTAB
M  V30 COUNTS 35 37 0 0 0
M  V30 BEGIN ATOM
M  V30 1 N -0.923861 -1.720684 -2.750547 0
M  V30 2 C -0.020667 -1.285647 -1.770196 0
M  V30 3 O 0.534454 -1.454409 -2.916214 0
M  V30 4 C 0.895365 -0.836695 -0.744712 0
M  V30 5 C 0.503979 -0.597263 0.483863 0
M  V30 6 C 1.301961 -0.157543 1.604529 0
M  V30 7 O 2.526206 0.006434 1.486197 0
M  V30 8 N 0.530465 0.044351 2.788817 0
M  V30 9 C -0.805260 -0.290182 2.369369 0
M  V30 10 C -1.939529 -0.250913 3.165194 0
M  V30 11 C -3.153199 -0.600098 2.599160 0
M  V30 12 C -3.227077 -0.983761 1.252447 0
M  V30 13 S -4.784553 -1.423412 0.551428 0
M  V30 14 N -5.470473 0.019542 -0.113596 0
M  V30 15 O -5.636916 -1.920005 1.709263 0
M  V30 16 O -4.670653 -2.427208 -0.531362 0
M  V30 17 C -2.059976 -1.000592 0.520447 0
M  V30 18 C -0.838569 -0.662224 1.043729 0
M  V30 19 C 2.294554 -0.592931 -1.162787 0
M  V30 20 C 2.985472 -1.623432 -1.796037 0
M  V30 21 C 4.252622 -1.158774 -2.130937 0
M  V30 22 C 4.291571 0.141321 -1.690228 0
M  V30 23 N 3.120329 0.465021 -1.117159 0
M  V30 24 H -1.729622 -2.375060 -2.554717 0
M  V30 25 H -1.712801 -2.385616 -2.460154 0
M  V30 26 H 0.884011 0.359659 3.716710 0
M  V30 27 H -1.894288 0.043597 4.204587 0
M  V30 28 H -4.059604 -0.581914 3.187380 0
M  V30 29 H -5.142917 0.880382 0.381282 0
M  V30 30 H -5.169426 0.072290 -1.103308 0
M  V30 31 H -2.177548 -1.287189 -0.473633 0
M  V30 32 H 2.665039 -2.635384 -2.024680 0
M  V30 33 H 5.018121 -1.745084 -2.637205 0
M  V30 34 H 5.136313 0.811506 -1.785677 0
M  V30 35 H 2.864084 1.389050 -0.712040 0
M  V30 END ATOM
M  V30 BEGIN BOND
M  V30 1 1 1 2
M  V30 2 2 2 3
M  V30 3 1 2 4
M  V30 4 2 4 5
M  V30 5 1 5 6
M  V30 6 2 6 7
M  V30 7 1 6 8
M  V30 8 1 8 9
M  V30 9 2 9 10
M  V30 10 1 10 11
M  V30 11 2 11 12
M  V30 12 1 12 13
M  V30 13 1 13 14
M  V30 14 2 13 15
M  V30 15 2 13 16
M  V30 16 1 12 17
M  V30 17 2 17 18
M  V30 18 1 4 19
M  V30 19 2 19 20
M  V30 20 1 20 21
M  V30 21 2 21 22
M  V30 22 1 22 23
M  V30 23 1 18 5
M  V30 24 1 23 19
M  V30 25 1 18 9
M  V30 26 1 1 24
M  V30 27 1 1 25
M  V30 28 1 8 26
M  V30 29 1 10 27
M  V30 30 1 11 28
M  V30 31 1 14 29
M  V30 32 1 14 30
M  V30 33 1 17 31
M  V30 34 1 20 32
M  V30 35 1 21 33
M  V30 36 1 22 34
M  V30 37 1 23 35
M  V30 END BOND
M  V30 END CTAB
M  END
>  <Dataset>  (680) 
ChEMBL_Kinases

>  <Ligand_Instance>  (680) 
nan

>  <PDB_ID>  (680) 
nan

>  <Standardized_SMILES>  (680) 
NC(=O)/C(=C1/C(=O)Nc2ccc(S(N)(=O)=O)cc21)c1ccc[nH]1

>  <Name>  (680) 
nan

>  <Pocket>  (680) 
nan

>  <ATP_Site>  (680) 
nan

>  <Peripheral>  (680) 
nan

>  <Num_H_Atoms_ProtBoundConf>  (680) 
nan

>  <Num_Resolved_Atoms>  (680) 
nan

>  <Num_Not_Resolved_Atoms>  (680) 
nan

$$$$
CHEMBL400837
     RDKit          3D

  0  0  0  0  0  0  0  0  0  0999 V3000
M  V30 BEGIN CTAB
M  V30 COUNTS 40 42 0 0 0
M  V30 BEGIN ATOM
M  V30 1 C -2.713582 -2.298186 3.280516 0
M  V30 2 C -1.970155 -2.596340 1.962135 0
M  V30 3 O -0.847940 -1.956041 1.783431 0
M  V30 4 C 0.262059 -1.363487 1.665059 0
M  V30 5 O -0.415194 -2.157106 2.355024 0
M  V30 6 C 1.511079 -0.684913 1.515278 0
M  V30 7 C 1.764076 0.118169 0.523264 0
M  V30 8 C 3.022793 0.812591 0.366266 0
M  V30 9 O 3.998588 0.757411 1.138252 0
M  V30 10 N 2.922132 1.565873 -0.833325 0
M  V30 11 C 1.635933 1.358062 -1.422651 0
M  V30 12 C 1.091913 1.873988 -2.576132 0
M  V30 13 C -0.198486 1.488313 -2.901106 0
M  V30 14 C -0.926324 0.607435 -2.090177 0
M  V30 15 S -2.568716 0.171210 -2.583832 0
M  V30 16 N -3.709098 1.277525 -1.918790 0
M  V30 17 O -2.588146 0.255161 -4.093800 0
M  V30 18 O -2.918179 -1.218077 -2.190669 0
M  V30 19 C -0.325646 0.121046 -0.941542 0
M  V30 20 C 0.952531 0.498076 -0.612844 0
M  V30 21 C 2.374744 -1.100810 2.591602 0
M  V30 22 C 3.653851 -1.587306 2.556409 0
M  V30 23 C 4.157533 -1.844804 3.824297 0
M  V30 24 C 3.139184 -1.502236 4.698149 0
M  V30 25 N 2.121648 -1.074513 3.934097 0
M  V30 26 H -2.580193 -1.240897 3.563763 0
M  V30 27 H -3.779416 -2.579375 3.180607 0
M  V30 28 H -2.224481 -2.943837 4.038532 0
M  V30 29 H -1.965068 -3.719263 1.927222 0
M  V30 30 H -2.732499 -2.345085 1.150746 0
M  V30 31 H 3.701027 2.170470 -1.194157 0
M  V30 32 H 1.691795 2.548871 -3.166280 0
M  V30 33 H -0.637815 1.889440 -3.808917 0
M  V30 34 H -4.036094 2.001847 -2.591251 0
M  V30 35 H -3.407716 1.694482 -1.012100 0
M  V30 36 H -0.964138 -0.528200 -0.414992 0
M  V30 37 H 4.296611 -1.804828 1.727565 0
M  V30 38 H 5.096333 -2.220616 4.184445 0
M  V30 39 H 3.122752 -1.550776 5.760594 0
M  V30 40 H 1.195782 -0.741717 4.331141 0
M  V30 END ATOM
M  V30 BEGIN BOND
M  V30 1 1 1 2
M  V30 2 1 2 3
M  V30 3 1 3 4
M  V30 4 2 4 5
M  V30 5 1 4 6
M  V30 6 2 6 7
M  V30 7 1 7 8
M  V30 8 2 8 9
M  V30 9 1 8 10
M  V30 10 1 10 11
M  V30 11 2 11 12
M  V30 12 1 12 13
M  V30 13 2 13 14
M  V30 14 1 14 15
M  V30 15 1 15 16
M  V30 16 2 15 17
M  V30 17 2 15 18
M  V30 18 1 14 19
M  V30 19 2 19 20
M  V30 20 1 6 21
M  V30 21 2 21 22
M  V30 22 1 22 23
M  V30 23 2 23 24
M  V30 24 1 24 25
M  V30 25 1 20 7
M  V30 26 1 25 21
M  V30 27 1 20 11
M  V30 28 1 1 26
M  V30 29 1 1 27
M  V30 30 1 1 28
M  V30 31 1 2 29
M  V30 32 1 2 30
M  V30 33 1 10 31
M  V30 34 1 12 32
M  V30 35 1 13 33
M  V30 36 1 16 34
M  V30 37 1 16 35
M  V30 38 1 19 36
M  V30 39 1 22 37
M  V30 40 1 23 38
M  V30 41 1 24 39
M  V30 42 1 25 40
M  V30 END BOND
M  V30 END CTAB
M  END
>  <Dataset>  (681) 
ChEMBL_Kinases

>  <Ligand_Instance>  (681) 
nan

>  <PDB_ID>  (681) 
nan

>  <Standardized_SMILES>  (681) 
CCOC(=O)/C(=C1/C(=O)Nc2ccc(S(N)(=O)=O)cc21)c1ccc[nH]1

>  <Name>  (681) 
nan

>  <Pocket>  (681) 
nan

>  <ATP_Site>  (681) 
nan

>  <Peripheral>  (681) 
nan

>  <Num_H_Atoms_ProtBoundConf>  (681) 
nan

>  <Num_Resolved_Atoms>  (681) 
nan

>  <Num_Not_Resolved_Atoms>  (681) 
nan

$$$$
CHEMBL400755
     RDKit          3D

  0  0  0  0  0  0  0  0  0  0999 V3000
M  V30 BEGIN CTAB
M  V30 COUNTS 53 56 0 0 0
M  V30 BEGIN ATOM
M  V30 1 C 2.190628 -5.054792 2.278157 0
M  V30 2 C 3.527029 -4.385740 2.326081 0
M  V30 3 O 4.263052 -4.122562 3.311004 0
M  V30 4 N 4.133240 -3.947033 1.116595 0
M  V30 5 C 5.440414 -3.296393 1.197330 0
M  V30 6 C 5.412812 -1.943193 0.528709 0
M  V30 7 C 4.017001 -1.665574 -0.032520 0
M  V30 8 C 3.999254 -0.334183 -0.703207 0
M  V30 9 O 2.808107 0.061868 -1.264512 0
M  V30 10 C 1.578858 0.293052 -0.712604 0
M  V30 11 C 1.034917 0.243778 0.552149 0
M  V30 12 C -0.287637 0.543345 0.789857 0
M  V30 13 C -1.121911 0.908045 -0.246938 0
M  V30 14 C -2.523505 1.221952 0.028931 0
M  V30 15 N -3.116604 1.195690 1.236049 0
M  V30 16 C -4.419893 1.542527 1.118150 0
M  V30 17 C -5.413858 1.654951 2.068937 0
M  V30 18 C -6.667552 2.041653 1.590642 0
M  V30 19 C -7.822799 2.201734 2.496657 0
M  V30 20 N -7.606466 1.948044 3.879090 0
M  V30 21 O -8.965544 2.542464 2.127586 0
M  V30 22 C -6.909528 2.297526 0.256931 0
M  V30 23 C -5.886460 2.174396 -0.670867 0
M  V30 24 C -4.625086 1.790781 -0.226976 0
M  V30 25 N -3.448254 1.589928 -0.889572 0
M  V30 26 C -0.630713 0.974540 -1.535354 0
M  V30 27 C 0.718816 0.665902 -1.758965 0
M  V30 28 C 3.750815 -2.801543 -1.017399 0
M  V30 29 C 3.599435 -4.069231 -0.222579 0
M  V30 30 H 1.364983 -4.319622 2.222718 0
M  V30 31 H 2.200600 -5.708780 1.388533 0
M  V30 32 H 2.015511 -5.699169 3.167478 0
M  V30 33 H 5.792495 -3.237640 2.247184 0
M  V30 34 H 6.129521 -3.983485 0.667461 0
M  V30 35 H 5.684881 -1.190159 1.296671 0
M  V30 36 H 6.137730 -1.965315 -0.307745 0
M  V30 37 H 3.346816 -1.722490 0.834832 0
M  V30 38 H 4.829591 -0.220021 -1.446008 0
M  V30 39 H 4.257811 0.431098 0.090847 0
M  V30 40 H 1.777129 -0.043523 1.271496 0
M  V30 41 H -0.597871 0.470773 1.810664 0
M  V30 42 H -5.271642 1.464868 3.125055 0
M  V30 43 H -7.767988 1.284178 4.646100 0
M  V30 44 H -7.897620 1.131070 4.460751 0
M  V30 45 H -7.885015 2.593814 -0.084062 0
M  V30 46 H -6.013129 2.360793 -1.728612 0
M  V30 47 H -3.315334 1.704999 -1.907958 0
M  V30 48 H -1.342027 1.266538 -2.289543 0
M  V30 49 H 0.929617 0.772229 -2.836647 0
M  V30 50 H 2.839596 -2.651290 -1.600475 0
M  V30 51 H 4.647349 -2.833911 -1.662492 0
M  V30 52 H 4.160267 -4.854532 -0.783923 0
M  V30 53 H 2.534226 -4.336337 -0.136087 0
M  V30 END ATOM
M  V30 BEGIN BOND
M  V30 1 1 1 2
M  V30 2 2 2 3
M  V30 3 1 2 4
M  V30 4 1 4 5
M  V30 5 1 5 6
M  V30 6 1 6 7
M  V30 7 1 7 8
M  V30 8 1 8 9
M  V30 9 1 9 10
M  V30 10 2 10 11
M  V30 11 1 11 12
M  V30 12 2 12 13
M  V30 13 1 13 14
M  V30 14 2 14 15
M  V30 15 1 15 16
M  V30 16 2 16 17
M  V30 17 1 17 18
M  V30 18 1 18 19
M  V30 19 1 19 20
M  V30 20 2 19 21
M  V30 21 2 18 22
M  V30 22 1 22 23
M  V30 23 2 23 24
M  V30 24 1 24 25
M  V30 25 1 13 26
M  V30 26 2 26 27
M  V30 27 1 7 28
M  V30 28 1 28 29
M  V30 29 1 29 4
M  V30 30 1 27 10
M  V30 31 1 25 14
M  V30 32 1 24 16
M  V30 33 1 1 30
M  V30 34 1 1 31
M  V30 35 1 1 32
M  V30 36 1 5 33
M  V30 37 1 5 34
M  V30 38 1 6 35
M  V30 39 1 6 36
M  V30 40 1 7 37
M  V30 41 1 8 38
M  V30 42 1 8 39
M  V30 43 1 11 40
M  V30 44 1 12 41
M  V30 45 1 17 42
M  V30 46 1 20 43
M  V30 47 1 20 44
M  V30 48 1 22 45
M  V30 49 1 23 46
M  V30 50 1 25 47
M  V30 51 1 26 48
M  V30 52 1 27 49
M  V30 53 1 28 50
M  V30 54 1 28 51
M  V30 55 1 29 52
M  V30 56 1 29 53
M  V30 END BOND
M  V30 END CTAB
M  END
>  <Dataset>  (682) 
ChEMBL_Kinases

>  <Ligand_Instance>  (682) 
nan

>  <PDB_ID>  (682) 
nan

>  <Standardized_SMILES>  (682) 
CC(=O)N1CCC(COc2ccc(-c3nc4cc(C(N)=O)ccc4[nH]3)cc2)CC1

>  <Name>  (682) 
nan

>  <Pocket>  (682) 
nan

>  <ATP_Site>  (682) 
nan

>  <Peripheral>  (682) 
nan

>  <Num_H_Atoms_ProtBoundConf>  (682) 
nan

>  <Num_Resolved_Atoms>  (682) 
nan

>  <Num_Not_Resolved_Atoms>  (682) 
nan

$$$$
CHEMBL400717
     RDKit          3D

  0  0  0  0  0  0  0  0  0  0999 V3000
M  V30 BEGIN CTAB
M  V30 COUNTS 100 108 0 0 0
M  V30 BEGIN ATOM
M  V30 1 O -5.570276 3.195074 1.560537 0
M  V30 2 C -4.548667 2.626364 1.868904 0
M  V30 3 C -3.753735 3.369257 2.906388 0
M  V30 4 C -2.295434 2.988453 2.737659 0
M  V30 5 C -1.853186 3.203036 1.290497 0
M  V30 6 N -1.255795 2.024738 0.797513 0
M  V30 7 C -2.095099 1.053088 0.211112 0 CFG=1
M  V30 8 C -3.497345 1.490433 -0.093048 0
M  V30 9 C -4.354055 1.358507 1.147559 0
M  V30 10 C -1.449247 0.651516 -1.084104 0
M  V30 11 C 0.042238 0.922391 -0.794481 0 CFG=2
M  V30 12 C 0.650233 1.154468 -2.139194 0
M  V30 13 N 2.082438 0.936509 -2.245804 0
M  V30 14 C 2.391549 1.042417 -3.633117 0
M  V30 15 C 3.393057 1.994758 -4.120680 0
M  V30 16 C 4.814274 1.843975 -3.774848 0
M  V30 17 C 5.196427 2.061040 -2.351375 0
M  V30 18 C 4.989952 3.385960 -1.800925 0
M  V30 19 C 4.317035 3.931227 -0.797448 0
M  V30 20 C 3.535325 2.992465 0.037899 0
M  V30 21 C 2.081979 3.411485 -0.003980 0
M  V30 22 C 1.184585 2.487764 0.770997 0 CFG=2
M  V30 23 O 0.902460 3.088412 1.993893 0
M  V30 24 C 1.862244 1.187597 1.134825 0
M  V30 25 C 1.453791 -0.087742 1.025360 0
M  V30 26 C 2.084104 -0.859939 2.092723 0
M  V30 27 N 2.957088 -0.333591 2.948561 0
M  V30 28 C 3.566814 -0.982109 3.926667 0
M  V30 29 C 3.309639 -2.311392 4.114351 0
M  V30 30 C 2.423568 -2.952356 3.286770 0
M  V30 31 C 1.835563 -2.199138 2.296395 0
M  V30 32 N 1.037824 -3.066888 1.662737 0
M  V30 33 C 1.113587 -4.285806 2.207556 0
M  V30 34 C 0.549605 -5.517609 1.963257 0
M  V30 35 O -0.359100 -5.739108 0.945463 0
M  V30 36 S -2.016822 -5.612218 1.278098 0
M  V30 37 O -2.260509 -5.230289 2.722894 0
M  V30 38 O -2.687367 -6.971841 1.117451 0
M  V30 39 C -2.863900 -4.491382 0.272734 0
M  V30 40 C -3.344066 -4.925191 -0.946091 0
M  V30 41 C -4.035530 -4.089570 -1.781652 0
M  V30 42 C -4.243069 -2.774296 -1.361657 0
M  V30 43 Cl -5.113220 -1.608925 -2.342573 0
M  V30 44 C -3.758006 -2.348880 -0.138263 0
M  V30 45 C -3.060040 -3.183777 0.709637 0
M  V30 46 C 0.863632 -6.620471 2.728566 0
M  V30 47 C 1.764529 -6.548239 3.786656 0
M  V30 48 C 2.357788 -5.338010 4.074147 0
M  V30 49 C 1.998149 -4.261901 3.262255 0
M  V30 50 C 0.554767 -0.311170 -0.093689 0
M  V30 51 C 1.238992 -1.098199 -1.230300 0
M  V30 52 C 2.463262 -0.355407 -1.708209 0
M  V30 53 C -0.072312 2.151866 0.029489 0 CFG=2
M  V30 54 H -4.103273 3.006081 3.892788 0
M  V30 55 H -3.920521 4.456569 2.856574 0
M  V30 56 H -1.719022 3.575371 3.461191 0
M  V30 57 H -2.190478 1.916748 3.015253 0
M  V30 58 H -2.674818 3.643448 0.688094 0
M  V30 59 H -1.092980 4.012130 1.323782 0
M  V30 60 H -2.194114 0.216898 0.941665 0
M  V30 61 H -3.906584 0.732712 -0.828218 0
M  V30 62 H -3.604603 2.442146 -0.616917 0
M  V30 63 H -3.912406 0.570185 1.826197 0
M  V30 64 H -5.379619 0.944109 0.920941 0
M  V30 65 H -1.579994 -0.420613 -1.319395 0
M  V30 66 H -1.791397 1.344609 -1.870665 0
M  V30 67 H 0.479289 2.236187 -2.410443 0
M  V30 68 H 0.122784 0.615716 -2.978214 0
M  V30 69 H 1.452780 1.194380 -4.261450 0
M  V30 70 H 2.723979 0.011737 -4.006455 0
M  V30 71 H 3.321447 1.990219 -5.265022 0
M  V30 72 H 3.124762 3.070688 -3.900839 0
M  V30 73 H 5.093927 0.772612 -4.056985 0
M  V30 74 H 5.486542 2.445345 -4.472288 0
M  V30 75 H 4.825883 1.224227 -1.743935 0
M  V30 76 H 6.331870 1.895710 -2.331948 0
M  V30 77 H 5.538967 4.124533 -2.378767 0
M  V30 78 H 4.330799 4.984594 -0.593982 0
M  V30 79 H 3.714436 1.937732 -0.189148 0
M  V30 80 H 3.882961 3.167601 1.076977 0
M  V30 81 H 2.087269 4.435740 0.493882 0
M  V30 82 H 1.740237 3.640625 -1.025421 0
M  V30 83 H 0.601670 2.384989 2.609530 0
M  V30 84 H 2.830885 1.509943 1.549214 0
M  V30 85 H 4.242613 -0.374981 4.514464 0
M  V30 86 H 3.819460 -2.801889 4.912231 0
M  V30 87 H 0.414262 -2.940934 0.878571 0
M  V30 88 H -3.175079 -5.964223 -1.267077 0
M  V30 89 H -4.426785 -4.381473 -2.736052 0
M  V30 90 H -3.869221 -1.357264 0.278005 0
M  V30 91 H -2.655162 -2.911526 1.678180 0
M  V30 92 H 0.421366 -7.585956 2.536241 0
M  V30 93 H 2.032620 -7.389611 4.405139 0
M  V30 94 H 3.062897 -5.202293 4.874580 0
M  V30 95 H -0.286801 -0.959074 0.227466 0
M  V30 96 H 0.507232 -1.106662 -2.060071 0
M  V30 97 H 1.437478 -2.135857 -0.989472 0
M  V30 98 H 3.242406 -0.298252 -0.917189 0
M  V30 99 H 2.894719 -0.942104 -2.541964 0
M  V30 100 H -0.238057 3.001567 -0.692291 0
M  V30 END ATOM
M  V30 BEGIN BOND
M  V30 1 2 1 2
M  V30 2 1 2 3
M  V30 3 1 3 4
M  V30 4 1 4 5
M  V30 5 1 5 6
M  V30 6 1 6 7
M  V30 7 1 7 8
M  V30 8 1 8 9
M  V30 9 1 7 10
M  V30 10 1 11 10 CFG=3
M  V30 11 1 11 12
M  V30 12 1 12 13
M  V30 13 1 13 14
M  V30 14 1 14 15
M  V30 15 1 15 16
M  V30 16 1 16 17
M  V30 17 1 17 18
M  V30 18 2 18 19
M  V30 19 1 19 20
M  V30 20 1 20 21
M  V30 21 1 21 22
M  V30 22 1 22 23 CFG=1
M  V30 23 1 22 24
M  V30 24 2 24 25
M  V30 25 1 25 26
M  V30 26 2 26 27
M  V30 27 1 27 28
M  V30 28 2 28 29
M  V30 29 1 29 30
M  V30 30 2 30 31
M  V30 31 1 31 32
M  V30 32 1 32 33
M  V30 33 2 33 34
M  V30 34 1 34 35
M  V30 35 1 35 36
M  V30 36 2 36 37
M  V30 37 2 36 38
M  V30 38 1 36 39
M  V30 39 2 39 40
M  V30 40 1 40 41
M  V30 41 2 41 42
M  V30 42 1 42 43
M  V30 43 1 42 44
M  V30 44 2 44 45
M  V30 45 1 34 46
M  V30 46 2 46 47
M  V30 47 1 47 48
M  V30 48 2 48 49
M  V30 49 1 25 50
M  V30 50 1 50 51
M  V30 51 1 51 52
M  V30 52 1 22 53
M  V30 53 1 9 2
M  V30 54 1 50 11
M  V30 55 1 53 6
M  V30 56 1 53 11
M  V30 57 1 52 13
M  V30 58 1 31 26
M  V30 59 1 49 33
M  V30 60 1 49 30
M  V30 61 1 45 39
M  V30 62 1 3 54
M  V30 63 1 3 55
M  V30 64 1 4 56
M  V30 65 1 4 57
M  V30 66 1 5 58
M  V30 67 1 5 59
M  V30 68 1 7 60 CFG=1
M  V30 69 1 8 61
M  V30 70 1 8 62
M  V30 71 1 9 63
M  V30 72 1 9 64
M  V30 73 1 10 65
M  V30 74 1 10 66
M  V30 75 1 12 67
M  V30 76 1 12 68
M  V30 77 1 14 69
M  V30 78 1 14 70
M  V30 79 1 15 71
M  V30 80 1 15 72
M  V30 81 1 16 73
M  V30 82 1 16 74
M  V30 83 1 17 75
M  V30 84 1 17 76
M  V30 85 1 18 77
M  V30 86 1 19 78
M  V30 87 1 20 79
M  V30 88 1 20 80
M  V30 89 1 21 81
M  V30 90 1 21 82
M  V30 91 1 23 83
M  V30 92 1 24 84
M  V30 93 1 28 85
M  V30 94 1 29 86
M  V30 95 1 32 87
M  V30 96 1 40 88
M  V30 97 1 41 89
M  V30 98 1 44 90
M  V30 99 1 45 91
M  V30 100 1 46 92
M  V30 101 1 47 93
M  V30 102 1 48 94
M  V30 103 1 50 95
M  V30 104 1 51 96
M  V30 105 1 51 97
M  V30 106 1 52 98
M  V30 107 1 52 99
M  V30 108 1 53 100 CFG=3
M  V30 END BOND
M  V30 END CTAB
M  END
>  <Dataset>  (683) 
ChEMBL_Kinases

>  <Ligand_Instance>  (683) 
nan

>  <PDB_ID>  (683) 
nan

>  <Standardized_SMILES>  (683) 
O=C1CCCN2[C@@H](CC1)C[C@]13CN4CCCC/C=C\CC[C@](O)(C=C(c5nccc6c5[nH]c5c(OS(=O)(=O)c7ccc(Cl)cc7)cccc56)C1CC4)[C@H]23

>  <Name>  (683) 
nan

>  <Pocket>  (683) 
nan

>  <ATP_Site>  (683) 
nan

>  <Peripheral>  (683) 
nan

>  <Num_H_Atoms_ProtBoundConf>  (683) 
nan

>  <Num_Resolved_Atoms>  (683) 
nan

>  <Num_Not_Resolved_Atoms>  (683) 
nan

$$$$
CHEMBL96091
     RDKit          3D

  0  0  0  0  0  0  0  0  0  0999 V3000
M  V30 BEGIN CTAB
M  V30 COUNTS 43 46 0 0 0
M  V30 BEGIN ATOM
M  V30 1 C -3.137557 -0.411627 2.970845 0
M  V30 2 O -1.996079 0.391994 3.129565 0
M  V30 3 C -0.894956 0.205900 2.305126 0
M  V30 4 C 0.251791 0.966400 2.416956 0
M  V30 5 C 1.329729 0.754292 1.579437 0
M  V30 6 C 2.468893 1.638724 1.821668 0
M  V30 7 C 3.442868 1.244467 2.717847 0
M  V30 8 C 4.537910 2.082526 2.957968 0
M  V30 9 C 4.550368 3.285634 2.245804 0
M  V30 10 F 5.611433 4.107344 2.472695 0
M  V30 11 C 3.575201 3.678024 1.349936 0
M  V30 12 C 2.519440 2.838930 1.137056 0
M  V30 13 F 1.563721 3.228774 0.255893 0
M  V30 14 C 1.310490 -0.230624 0.588978 0
M  V30 15 C 0.157411 -0.984639 0.487395 0
M  V30 16 C -0.917591 -0.769187 1.326620 0
M  V30 17 N 0.150623 -1.984516 -0.525419 0
M  V30 18 C -1.055695 -2.754415 -0.612482 0
M  V30 19 C -1.207390 -3.916694 0.113803 0
M  V30 20 Cl 0.116334 -4.435590 1.152924 0
M  V30 21 C -2.386041 -4.659752 0.022400 0
M  V30 22 C -3.406924 -4.213171 -0.811099 0
M  V30 23 C -3.217597 -3.029731 -1.532692 0
M  V30 24 C -2.047108 -2.282675 -1.448249 0
M  V30 25 Cl -1.869929 -0.804348 -2.380125 0
M  V30 26 C 1.261097 -2.202914 -1.388052 0
M  V30 27 O 1.208737 -3.097358 -2.267371 0
M  V30 28 N 2.404145 -1.375891 -1.206427 0
M  V30 29 C 2.532087 -0.326596 -0.213347 0
M  V30 30 H -2.872623 -1.428809 3.383354 0
M  V30 31 H -3.475143 -0.501897 1.916431 0
M  V30 32 H -3.997693 0.016731 3.530015 0
M  V30 33 H 0.244667 1.720455 3.187861 0
M  V30 34 H 3.425668 0.316771 3.261833 0
M  V30 35 H 5.349304 1.858613 3.641945 0
M  V30 36 H 3.643387 4.618866 0.832619 0
M  V30 37 H -1.788521 -1.396917 1.190696 0
M  V30 38 H -2.506027 -5.579137 0.596909 0
M  V30 39 H -4.338375 -4.770819 -0.903794 0
M  V30 40 H -4.002097 -2.645792 -2.201406 0
M  V30 41 H 3.212505 -1.546052 -1.845662 0
M  V30 42 H 2.787440 0.603848 -0.751168 0
M  V30 43 H 3.437065 -0.588524 0.381505 0
M  V30 END ATOM
M  V30 BEGIN BOND
M  V30 1 1 1 2
M  V30 2 1 2 3
M  V30 3 2 3 4
M  V30 4 1 4 5
M  V30 5 1 5 6
M  V30 6 2 6 7
M  V30 7 1 7 8
M  V30 8 2 8 9
M  V30 9 1 9 10
M  V30 10 1 9 11
M  V30 11 2 11 12
M  V30 12 1 12 13
M  V30 13 2 5 14
M  V30 14 1 14 15
M  V30 15 2 15 16
M  V30 16 1 15 17
M  V30 17 1 17 18
M  V30 18 2 18 19
M  V30 19 1 19 20
M  V30 20 1 19 21
M  V30 21 2 21 22
M  V30 22 1 22 23
M  V30 23 2 23 24
M  V30 24 1 24 25
M  V30 25 1 17 26
M  V30 26 2 26 27
M  V30 27 1 26 28
M  V30 28 1 28 29
M  V30 29 1 16 3
M  V30 30 1 24 18
M  V30 31 1 12 6
M  V30 32 1 29 14
M  V30 33 1 1 30
M  V30 34 1 1 31
M  V30 35 1 1 32
M  V30 36 1 4 33
M  V30 37 1 7 34
M  V30 38 1 8 35
M  V30 39 1 11 36
M  V30 40 1 16 37
M  V30 41 1 21 38
M  V30 42 1 22 39
M  V30 43 1 23 40
M  V30 44 1 28 41
M  V30 45 1 29 42
M  V30 46 1 29 43
M  V30 END BOND
M  V30 END CTAB
M  END
>  <Dataset>  (684) 
ChEMBL_Kinases

>  <Ligand_Instance>  (684) 
nan

>  <PDB_ID>  (684) 
nan

>  <Standardized_SMILES>  (684) 
COc1cc(-c2ccc(F)cc2F)c2c(c1)N(c1c(Cl)cccc1Cl)C(=O)NC2

>  <Name>  (684) 
nan

>  <Pocket>  (684) 
nan

>  <ATP_Site>  (684) 
nan

>  <Peripheral>  (684) 
nan

>  <Num_H_Atoms_ProtBoundConf>  (684) 
nan

>  <Num_Resolved_Atoms>  (684) 
nan

>  <Num_Not_Resolved_Atoms>  (684) 
nan

$$$$
CHEMBL400661
     RDKit          3D

  0  0  0  0  0  0  0  0  0  0999 V3000
M  V30 BEGIN CTAB
M  V30 COUNTS 28 30 0 0 0
M  V30 BEGIN ATOM
M  V30 1 O 1.337298 -0.744590 4.007011 0
M  V30 2 C 0.589869 -1.355121 3.222205 0
M  V30 3 N 0.021994 -2.405410 3.839183 0
M  V30 4 C -0.829775 -3.178696 3.105218 0
M  V30 5 C -1.155681 -2.963800 1.767651 0
M  V30 6 C -0.545858 -1.871413 1.178519 0
M  V30 7 C -0.848539 -1.640272 -0.129003 0
M  V30 8 C -0.270949 -0.565917 -0.769141 0
M  V30 9 C -0.585944 -0.293346 -2.196082 0
M  V30 10 O -1.483644 -1.238147 -2.699821 0
M  V30 11 C 0.601431 0.224357 -0.013854 0
M  V30 12 C 1.148711 1.288802 -0.716610 0
M  V30 13 C 2.010947 2.083765 0.001114 0
M  V30 14 C 2.346999 1.879647 1.344179 0
M  V30 15 Br 3.568833 3.106633 2.153386 0
M  V30 16 C 1.753355 0.795956 1.959717 0
M  V30 17 C 0.892794 -0.026447 1.303347 0
M  V30 18 C 0.312223 -1.093668 1.920555 0
M  V30 19 H 0.156440 -2.714032 4.846039 0
M  V30 20 H -1.307470 -4.037574 3.573262 0
M  V30 21 H -1.830222 -3.615903 1.268529 0
M  V30 22 H -1.530105 -2.278589 -0.675838 0
M  V30 23 H -0.942822 0.733832 -2.369821 0
M  V30 24 H 0.350059 -0.383880 -2.802871 0
M  V30 25 H -1.012934 -2.118599 -2.703285 0
M  V30 26 H 0.922095 1.488788 -1.751243 0
M  V30 27 H 2.452816 2.926386 -0.531511 0
M  V30 28 H 2.083682 0.744254 2.971775 0
M  V30 END ATOM
M  V30 BEGIN BOND
M  V30 1 2 1 2
M  V30 2 1 2 3
M  V30 3 1 3 4
M  V30 4 2 4 5
M  V30 5 1 5 6
M  V30 6 2 6 7
M  V30 7 1 7 8
M  V30 8 1 8 9
M  V30 9 1 9 10
M  V30 10 2 8 11
M  V30 11 1 11 12
M  V30 12 2 12 13
M  V30 13 1 13 14
M  V30 14 1 14 15
M  V30 15 2 14 16
M  V30 16 1 16 17
M  V30 17 2 17 18
M  V30 18 1 18 2
M  V30 19 1 18 6
M  V30 20 1 17 11
M  V30 21 1 3 19
M  V30 22 1 4 20
M  V30 23 1 5 21
M  V30 24 1 7 22
M  V30 25 1 9 23
M  V30 26 1 9 24
M  V30 27 1 10 25
M  V30 28 1 12 26
M  V30 29 1 13 27
M  V30 30 1 16 28
M  V30 END BOND
M  V30 END CTAB
M  END
>  <Dataset>  (685) 
ChEMBL_Kinases

>  <Ligand_Instance>  (685) 
nan

>  <PDB_ID>  (685) 
nan

>  <Standardized_SMILES>  (685) 
O=c1[nH]ccc2cc(CO)c3ccc(Br)cc3c12

>  <Name>  (685) 
nan

>  <Pocket>  (685) 
nan

>  <ATP_Site>  (685) 
nan

>  <Peripheral>  (685) 
nan

>  <Num_H_Atoms_ProtBoundConf>  (685) 
nan

>  <Num_Resolved_Atoms>  (685) 
nan

>  <Num_Not_Resolved_Atoms>  (685) 
nan

$$$$
CHEMBL400596
     RDKit          3D

  0  0  0  0  0  0  0  0  0  0999 V3000
M  V30 BEGIN CTAB
M  V30 COUNTS 40 43 0 0 0
M  V30 BEGIN ATOM
M  V30 1 O 0.987988 -2.745906 3.198473 0
M  V30 2 C -0.045639 -3.259446 2.695952 0
M  V30 3 N -0.165839 -3.216353 1.294682 0
M  V30 4 C 0.801238 -2.633139 0.423052 0
M  V30 5 N 1.853564 -3.296864 -0.127860 0
M  V30 6 C 2.710681 -2.644717 -0.941803 0
M  V30 7 C 2.551486 -1.295736 -1.240781 0
M  V30 8 C 1.479153 -0.637496 -0.673853 0
M  V30 9 C 1.265134 0.789418 -0.957416 0
M  V30 10 C 0.221128 1.533863 -0.437192 0
M  V30 11 C 0.356080 2.820112 -0.927775 0
M  V30 12 C 1.491328 2.827484 -1.743607 0
M  V30 13 N 2.013648 1.570946 -1.733154 0
M  V30 14 C 1.925730 4.054053 -2.430530 0
M  V30 15 C 1.430970 5.298645 -1.767159 0
M  V30 16 N 0.028630 5.258126 -1.439665 0
M  V30 17 C -0.410458 4.071908 -0.761755 0
M  V30 18 O -1.418682 3.970481 -0.008152 0
M  V30 19 N 0.670021 -1.326784 0.117075 0
M  V30 20 C -1.032768 -3.854929 3.588030 0
M  V30 21 C -0.767834 -3.817327 4.945344 0
M  V30 22 C -1.708055 -4.385889 5.812919 0
M  V30 23 C -2.856547 -4.960441 5.305567 0
M  V30 24 C -3.130944 -5.003331 3.951303 0
M  V30 25 C -2.184974 -4.434604 3.121683 0
M  V30 26 H -1.007829 -3.631237 0.840329 0
M  V30 27 H 3.528854 -3.229196 -1.349173 0
M  V30 28 H 3.253848 -0.798348 -1.896426 0
M  V30 29 H -0.568811 1.185789 0.235503 0
M  V30 30 H 2.866601 1.277979 -2.254711 0
M  V30 31 H 3.033812 4.101187 -2.469552 0
M  V30 32 H 1.604589 3.994799 -3.494268 0
M  V30 33 H 2.058853 5.545846 -0.886255 0
M  V30 34 H 1.535519 6.132440 -2.518552 0
M  V30 35 H -0.751807 5.955653 -1.610451 0
M  V30 36 H 0.124144 -3.373489 5.370583 0
M  V30 37 H -1.498109 -4.355694 6.883317 0
M  V30 38 H -3.601714 -5.409991 5.979317 0
M  V30 39 H -4.032406 -5.454010 3.549207 0
M  V30 40 H -2.407102 -4.472249 2.063581 0
M  V30 END ATOM
M  V30 BEGIN BOND
M  V30 1 2 1 2
M  V30 2 1 2 3
M  V30 3 1 3 4
M  V30 4 2 4 5
M  V30 5 1 5 6
M  V30 6 2 6 7
M  V30 7 1 7 8
M  V30 8 1 8 9
M  V30 9 2 9 10
M  V30 10 1 10 11
M  V30 11 2 11 12
M  V30 12 1 12 13
M  V30 13 1 12 14
M  V30 14 1 14 15
M  V30 15 1 15 16
M  V30 16 1 16 17
M  V30 17 2 17 18
M  V30 18 2 8 19
M  V30 19 1 2 20
M  V30 20 2 20 21
M  V30 21 1 21 22
M  V30 22 2 22 23
M  V30 23 1 23 24
M  V30 24 2 24 25
M  V30 25 1 19 4
M  V30 26 1 25 20
M  V30 27 1 13 9
M  V30 28 1 17 11
M  V30 29 1 3 26
M  V30 30 1 6 27
M  V30 31 1 7 28
M  V30 32 1 10 29
M  V30 33 1 13 30
M  V30 34 1 14 31
M  V30 35 1 14 32
M  V30 36 1 15 33
M  V30 37 1 15 34
M  V30 38 1 16 35
M  V30 39 1 21 36
M  V30 40 1 22 37
M  V30 41 1 23 38
M  V30 42 1 24 39
M  V30 43 1 25 40
M  V30 END BOND
M  V30 END CTAB
M  END
>  <Dataset>  (686) 
ChEMBL_Kinases

>  <Ligand_Instance>  (686) 
nan

>  <PDB_ID>  (686) 
nan

>  <Standardized_SMILES>  (686) 
O=C(Nc1nccc(-c2cc3c([nH]2)CCNC3=O)n1)c1ccccc1

>  <Name>  (686) 
nan

>  <Pocket>  (686) 
nan

>  <ATP_Site>  (686) 
nan

>  <Peripheral>  (686) 
nan

>  <Num_H_Atoms_ProtBoundConf>  (686) 
nan

>  <Num_Resolved_Atoms>  (686) 
nan

>  <Num_Not_Resolved_Atoms>  (686) 
nan

$$$$
CHEMBL400519
     RDKit          3D

  0  0  0  0  0  0  0  0  0  0999 V3000
M  V30 BEGIN CTAB
M  V30 COUNTS 57 61 0 0 0
M  V30 BEGIN ATOM
M  V30 1 C 4.924127 -2.119385 2.463364 0
M  V30 2 N 5.555727 -2.406172 1.187907 0
M  V30 3 C 6.932617 -2.735497 1.421808 0
M  V30 4 C 5.444905 -1.216191 0.335039 0
M  V30 5 C 4.053122 -0.840434 0.095523 0
M  V30 6 C 3.359661 0.042196 0.932753 0
M  V30 7 C 2.035297 0.422164 0.734677 0
M  V30 8 N 1.405861 -0.105965 -0.334809 0
M  V30 9 C 0.134593 0.105974 -0.735547 0
M  V30 10 C -0.926462 0.937550 -0.167136 0
M  V30 11 C -1.585977 2.010661 -0.718193 0
M  V30 12 C -2.565334 2.627282 0.059240 0
M  V30 13 N -2.836102 2.172293 1.295987 0
M  V30 14 C -2.185977 1.117291 1.834544 0
M  V30 15 S -2.603837 0.596070 3.452388 0
M  V30 16 O -1.401259 -0.145051 4.020782 0
M  V30 17 O -2.990162 1.752257 4.303570 0
M  V30 18 C -3.881705 -0.591728 3.308734 0
M  V30 19 C -3.575951 -1.948108 3.175459 0
M  V30 20 C -4.490410 -2.974230 3.055294 0
M  V30 21 C -5.807772 -2.605920 3.070641 0
M  V30 22 C -6.183221 -1.292675 3.198280 0
M  V30 23 C -5.228567 -0.280797 3.317672 0
M  V30 24 N -1.237573 0.516441 1.087579 0
M  V30 25 C -0.085047 -0.636627 -1.877448 0
M  V30 26 C -1.225839 -0.829673 -2.766958 0
M  V30 27 C -2.470069 -1.369611 -2.513174 0
M  V30 28 C -3.398313 -1.447898 -3.528876 0
M  V30 29 C -3.141666 -1.005779 -4.809422 0
M  V30 30 F -4.086419 -1.103146 -5.777179 0
M  V30 31 C -1.888034 -0.457803 -5.079792 0
M  V30 32 C -0.958714 -0.379241 -4.063596 0
M  V30 33 N 1.074365 -1.281569 -2.133568 0
M  V30 34 C 2.000352 -0.959201 -1.185386 0
M  V30 35 C 3.321683 -1.325764 -0.970533 0
M  V30 36 H 3.823644 -2.039284 2.369856 0
M  V30 37 H 5.304991 -1.154976 2.853712 0
M  V30 38 H 5.188371 -2.941936 3.170908 0
M  V30 39 H 7.630899 -1.881872 1.399546 0
M  V30 40 H 7.295511 -3.435248 0.628044 0
M  V30 41 H 6.999863 -3.296400 2.398099 0
M  V30 42 H 5.984899 -0.409335 0.887792 0
M  V30 43 H 5.977715 -1.383513 -0.618717 0
M  V30 44 H 3.870398 0.456705 1.781412 0
M  V30 45 H 1.564162 1.109602 1.424215 0
M  V30 46 H -1.255278 2.245301 -1.704499 0
M  V30 47 H -3.050791 3.464902 -0.424342 0
M  V30 48 H -2.521324 -2.186740 3.168857 0
M  V30 49 H -4.106822 -3.985313 2.958488 0
M  V30 50 H -6.552594 -3.399170 2.977328 0
M  V30 51 H -7.239078 -1.040370 3.206208 0
M  V30 52 H -5.487154 0.760182 3.419541 0
M  V30 53 H -2.577947 -1.686186 -1.489643 0
M  V30 54 H -4.353470 -1.879516 -3.270338 0
M  V30 55 H -1.708093 -0.117551 -6.089800 0
M  V30 56 H -0.024210 0.062588 -4.388923 0
M  V30 57 H 3.810420 -2.017335 -1.656279 0
M  V30 END ATOM
M  V30 BEGIN BOND
M  V30 1 1 1 2
M  V30 2 1 2 3
M  V30 3 1 2 4
M  V30 4 1 4 5
M  V30 5 1 5 6
M  V30 6 2 6 7
M  V30 7 1 7 8
M  V30 8 1 8 9
M  V30 9 1 9 10
M  V30 10 2 10 11
M  V30 11 1 11 12
M  V30 12 2 12 13
M  V30 13 1 13 14
M  V30 14 1 14 15
M  V30 15 2 15 16
M  V30 16 2 15 17
M  V30 17 1 15 18
M  V30 18 2 18 19
M  V30 19 1 19 20
M  V30 20 2 20 21
M  V30 21 1 21 22
M  V30 22 2 22 23
M  V30 23 2 14 24
M  V30 24 2 9 25
M  V30 25 1 25 26
M  V30 26 2 26 27
M  V30 27 1 27 28
M  V30 28 2 28 29
M  V30 29 1 29 30
M  V30 30 1 29 31
M  V30 31 2 31 32
M  V30 32 1 25 33
M  V30 33 2 33 34
M  V30 34 1 34 35
M  V30 35 2 35 5
M  V30 36 1 34 8
M  V30 37 1 24 10
M  V30 38 1 32 26
M  V30 39 1 23 18
M  V30 40 1 1 36
M  V30 41 1 1 37
M  V30 42 1 1 38
M  V30 43 1 3 39
M  V30 44 1 3 40
M  V30 45 1 3 41
M  V30 46 1 4 42
M  V30 47 1 4 43
M  V30 48 1 6 44
M  V30 49 1 7 45
M  V30 50 1 11 46
M  V30 51 1 12 47
M  V30 52 1 19 48
M  V30 53 1 20 49
M  V30 54 1 21 50
M  V30 55 1 22 51
M  V30 56 1 23 52
M  V30 57 1 27 53
M  V30 58 1 28 54
M  V30 59 1 31 55
M  V30 60 1 32 56
M  V30 61 1 35 57
M  V30 END BOND
M  V30 END CTAB
M  END
>  <Dataset>  (687) 
ChEMBL_Kinases

>  <Ligand_Instance>  (687) 
nan

>  <PDB_ID>  (687) 
nan

>  <Standardized_SMILES>  (687) 
CN(C)Cc1ccn2c(-c3ccnc(S(=O)(=O)c4ccccc4)n3)c(-c3ccc(F)cc3)nc2c1

>  <Name>  (687) 
nan

>  <Pocket>  (687) 
nan

>  <ATP_Site>  (687) 
nan

>  <Peripheral>  (687) 
nan

>  <Num_H_Atoms_ProtBoundConf>  (687) 
nan

>  <Num_Resolved_Atoms>  (687) 
nan

>  <Num_Not_Resolved_Atoms>  (687) 
nan

$$$$
CHEMBL400518
     RDKit          3D

  0  0  0  0  0  0  0  0  0  0999 V3000
M  V30 BEGIN CTAB
M  V30 COUNTS 50 53 0 0 0
M  V30 BEGIN ATOM
M  V30 1 C 1.290397 0.841734 5.723742 0
M  V30 2 N 1.713787 -0.496264 5.934688 0
M  V30 3 C 0.680186 -1.373798 6.407428 0
M  V30 4 C 2.526116 -1.082524 4.925846 0
M  V30 5 C 1.939503 -1.139185 3.576259 0
M  V30 6 C 2.184414 -0.026272 2.773306 0
M  V30 7 C 1.689579 0.015846 1.488318 0
M  V30 8 N 0.954909 -0.978320 0.922339 0
M  V30 9 C 0.369015 -1.197737 -0.271111 0
M  V30 10 C 0.489717 -0.160777 -1.290070 0
M  V30 11 C 1.142865 -0.268296 -2.495130 0
M  V30 12 C 1.245793 0.725466 -3.436132 0
M  V30 13 N 0.654195 1.896248 -3.141568 0
M  V30 14 C -0.009689 2.065158 -1.960968 0
M  V30 15 S -0.724217 3.642891 -1.712706 0
M  V30 16 C -2.373504 3.753362 -2.337554 0
M  V30 17 O 0.181637 4.662355 -2.314150 0
M  V30 18 O -0.686258 3.875600 -0.214150 0
M  V30 19 N -0.078120 1.049184 -1.072233 0
M  V30 20 C -0.247797 -2.429821 -0.249909 0
M  V30 21 C -0.981434 -3.012372 -1.363702 0
M  V30 22 C -2.355718 -3.149610 -1.135428 0
M  V30 23 C -3.157582 -3.692862 -2.105628 0
M  V30 24 C -2.684742 -4.130045 -3.338277 0
M  V30 25 F -3.406821 -4.666652 -4.326700 0
M  V30 26 C -1.331855 -3.987641 -3.545557 0
M  V30 27 C -0.514738 -3.446203 -2.585268 0
M  V30 28 N -0.011506 -2.934532 0.989433 0
M  V30 29 C 0.725300 -2.047626 1.710036 0
M  V30 30 C 1.188649 -2.165968 3.012718 0
M  V30 31 H 0.507461 0.876167 4.930421 0
M  V30 32 H 0.778323 1.252264 6.639944 0
M  V30 33 H 2.089035 1.527344 5.400193 0
M  V30 34 H -0.158078 -1.535777 5.705615 0
M  V30 35 H 1.164084 -2.370822 6.587167 0
M  V30 36 H 0.306439 -1.061709 7.426807 0
M  V30 37 H 2.763043 -2.146005 5.198533 0
M  V30 38 H 3.497052 -0.543238 4.883509 0
M  V30 39 H 2.769598 0.830141 3.143571 0
M  V30 40 H 1.902788 0.900434 0.895299 0
M  V30 41 H 1.615312 -1.207412 -2.720864 0
M  V30 42 H 1.780492 0.561267 -4.364900 0
M  V30 43 H -2.377765 4.583397 -3.084535 0
M  V30 44 H -2.676831 2.793577 -2.793044 0
M  V30 45 H -3.023243 4.080344 -1.502217 0
M  V30 46 H -2.908593 -2.864702 -0.229559 0
M  V30 47 H -4.239938 -3.825528 -1.984019 0
M  V30 48 H -0.863218 -4.299462 -4.480093 0
M  V30 49 H 0.544987 -3.325506 -2.713088 0
M  V30 50 H 1.018493 -3.007554 3.662652 0
M  V30 END ATOM
M  V30 BEGIN BOND
M  V30 1 1 1 2
M  V30 2 1 2 3
M  V30 3 1 2 4
M  V30 4 1 4 5
M  V30 5 1 5 6
M  V30 6 2 6 7
M  V30 7 1 7 8
M  V30 8 1 8 9
M  V30 9 1 9 10
M  V30 10 2 10 11
M  V30 11 1 11 12
M  V30 12 2 12 13
M  V30 13 1 13 14
M  V30 14 1 14 15
M  V30 15 1 15 16
M  V30 16 2 15 17
M  V30 17 2 15 18
M  V30 18 2 14 19
M  V30 19 2 9 20
M  V30 20 1 20 21
M  V30 21 2 21 22
M  V30 22 1 22 23
M  V30 23 2 23 24
M  V30 24 1 24 25
M  V30 25 1 24 26
M  V30 26 2 26 27
M  V30 27 1 20 28
M  V30 28 2 28 29
M  V30 29 1 29 30
M  V30 30 2 30 5
M  V30 31 1 29 8
M  V30 32 1 19 10
M  V30 33 1 27 21
M  V30 34 1 1 31
M  V30 35 1 1 32
M  V30 36 1 1 33
M  V30 37 1 3 34
M  V30 38 1 3 35
M  V30 39 1 3 36
M  V30 40 1 4 37
M  V30 41 1 4 38
M  V30 42 1 6 39
M  V30 43 1 7 40
M  V30 44 1 11 41
M  V30 45 1 12 42
M  V30 46 1 16 43
M  V30 47 1 16 44
M  V30 48 1 16 45
M  V30 49 1 22 46
M  V30 50 1 23 47
M  V30 51 1 26 48
M  V30 52 1 27 49
M  V30 53 1 30 50
M  V30 END BOND
M  V30 END CTAB
M  END
>  <Dataset>  (688) 
ChEMBL_Kinases

>  <Ligand_Instance>  (688) 
nan

>  <PDB_ID>  (688) 
nan

>  <Standardized_SMILES>  (688) 
CN(C)Cc1ccn2c(-c3ccnc(S(C)(=O)=O)n3)c(-c3ccc(F)cc3)nc2c1

>  <Name>  (688) 
nan

>  <Pocket>  (688) 
nan

>  <ATP_Site>  (688) 
nan

>  <Peripheral>  (688) 
nan

>  <Num_H_Atoms_ProtBoundConf>  (688) 
nan

>  <Num_Resolved_Atoms>  (688) 
nan

>  <Num_Not_Resolved_Atoms>  (688) 
nan

$$$$
CHEMBL400475
     RDKit          3D

  0  0  0  0  0  0  0  0  0  0999 V3000
M  V30 BEGIN CTAB
M  V30 COUNTS 46 49 0 0 0
M  V30 BEGIN ATOM
M  V30 1 C -1.188709 -4.788389 -0.848100 0
M  V30 2 N -0.428499 -3.543938 -0.719256 0
M  V30 3 C 0.021345 -3.523581 0.683751 0
M  V30 4 C 0.970763 -2.346439 0.783335 0
M  V30 5 C 0.414358 -1.068057 0.346913 0
M  V30 6 N 0.530424 0.046359 1.262622 0
M  V30 7 C 0.749689 1.363682 0.948833 0
M  V30 8 C 0.913563 1.936893 -0.378828 0
M  V30 9 C 1.128038 3.311380 -0.470729 0
M  V30 10 C 1.301199 4.006849 -1.629592 0
M  V30 11 N 1.263524 3.313717 -2.793922 0
M  V30 12 C 1.056579 1.967821 -2.755961 0
M  V30 13 N 0.998195 1.139751 -3.921549 0
M  V30 14 N 0.894137 1.350072 -1.579396 0
M  V30 15 C 0.780630 2.035348 2.146829 0
M  V30 16 C 0.580624 1.114717 3.143770 0
M  V30 17 C 0.422445 -0.142026 2.590335 0
M  V30 18 C 0.202270 -1.249283 3.509581 0
M  V30 19 C -0.544961 -0.731199 4.743008 0
M  V30 20 N 0.287891 0.244726 5.452976 0
M  V30 21 C 0.524448 1.385188 4.598069 0
M  V30 22 O 0.679338 2.568836 5.053747 0
M  V30 23 C -1.008308 -1.193642 -0.179772 0
M  V30 24 C -1.350732 -2.456673 -0.849392 0
M  V30 25 H -2.050787 -4.833787 -0.144976 0
M  V30 26 H -1.605560 -4.926465 -1.867488 0
M  V30 27 H -0.558671 -5.677541 -0.626738 0
M  V30 28 H 0.605449 -4.442766 0.831070 0
M  V30 29 H -0.887835 -3.441681 1.263944 0
M  V30 30 H 1.546201 -2.293335 1.713911 0
M  V30 31 H 1.761784 -2.678595 0.049364 0
M  V30 32 H 0.979244 -0.743775 -0.556557 0
M  V30 33 H 1.171999 3.937735 0.411292 0
M  V30 34 H 1.465432 5.066462 -1.683462 0
M  V30 35 H 1.850458 0.535676 -3.901209 0
M  V30 36 H 1.844420 0.538581 -3.903195 0
M  V30 37 H 0.936201 3.093880 2.244557 0
M  V30 38 H 1.171900 -1.619714 3.965244 0
M  V30 39 H -0.331139 -2.120428 3.191559 0
M  V30 40 H -1.541994 -0.358721 4.525181 0
M  V30 41 H -0.638924 -1.593026 5.451566 0
M  V30 42 H 0.735682 0.294938 6.417839 0
M  V30 43 H -1.651475 -1.113542 0.746143 0
M  V30 44 H -1.299921 -0.334044 -0.803135 0
M  V30 45 H -2.396193 -2.820552 -0.612351 0
M  V30 46 H -1.416225 -2.257883 -1.961935 0
M  V30 END ATOM
M  V30 BEGIN BOND
M  V30 1 1 1 2
M  V30 2 1 2 3
M  V30 3 1 3 4
M  V30 4 1 4 5
M  V30 5 1 5 6
M  V30 6 1 6 7
M  V30 7 1 7 8
M  V30 8 2 8 9
M  V30 9 1 9 10
M  V30 10 2 10 11
M  V30 11 1 11 12
M  V30 12 1 12 13
M  V30 13 2 12 14
M  V30 14 2 7 15
M  V30 15 1 15 16
M  V30 16 2 16 17
M  V30 17 1 17 18
M  V30 18 1 18 19
M  V30 19 1 19 20
M  V30 20 1 20 21
M  V30 21 2 21 22
M  V30 22 1 5 23
M  V30 23 1 23 24
M  V30 24 1 24 2
M  V30 25 1 17 6
M  V30 26 1 14 8
M  V30 27 1 21 16
M  V30 28 1 1 25
M  V30 29 1 1 26
M  V30 30 1 1 27
M  V30 31 1 3 28
M  V30 32 1 3 29
M  V30 33 1 4 30
M  V30 34 1 4 31
M  V30 35 1 5 32
M  V30 36 1 9 33
M  V30 37 1 10 34
M  V30 38 1 13 35
M  V30 39 1 13 36
M  V30 40 1 15 37
M  V30 41 1 18 38
M  V30 42 1 18 39
M  V30 43 1 19 40
M  V30 44 1 19 41
M  V30 45 1 20 42
M  V30 46 1 23 43
M  V30 47 1 23 44
M  V30 48 1 24 45
M  V30 49 1 24 46
M  V30 END BOND
M  V30 END CTAB
M  END
>  <Dataset>  (689) 
ChEMBL_Kinases

>  <Ligand_Instance>  (689) 
nan

>  <PDB_ID>  (689) 
nan

>  <Standardized_SMILES>  (689) 
CN1CCC(n2c(-c3ccnc(N)n3)cc3c2CCNC3=O)CC1

>  <Name>  (689) 
nan

>  <Pocket>  (689) 
nan

>  <ATP_Site>  (689) 
nan

>  <Peripheral>  (689) 
nan

>  <Num_H_Atoms_ProtBoundConf>  (689) 
nan

>  <Num_Resolved_Atoms>  (689) 
nan

>  <Num_Not_Resolved_Atoms>  (689) 
nan

$$$$
CHEMBL400078
     RDKit          3D

  0  0  0  0  0  0  0  0  0  0999 V3000
M  V30 BEGIN CTAB
M  V30 COUNTS 44 47 0 0 0
M  V30 BEGIN ATOM
M  V30 1 C 2.000008 -5.560328 2.908583 0
M  V30 2 N 0.616537 -5.308992 3.256393 0
M  V30 3 C -0.071158 -4.142039 2.753818 0
M  V30 4 N 0.596654 -3.295248 1.959154 0
M  V30 5 C -0.033596 -2.189195 1.475788 0
M  V30 6 C 0.623855 -1.309356 0.661170 0
M  V30 7 C -0.132735 -0.243910 0.248677 0
M  V30 8 C 0.069712 0.965487 -0.615296 0
M  V30 9 C -0.953687 1.830317 -0.805719 0
M  V30 10 C -0.684214 2.928975 -1.626964 0
M  V30 11 C 0.597369 3.046604 -2.177234 0
M  V30 12 C 1.598859 2.126840 -1.942115 0
M  V30 13 C 2.963065 2.250585 -2.518790 0
M  V30 14 N 3.851468 2.975348 -1.624140 0
M  V30 15 C 3.831990 4.370351 -1.467010 0
M  V30 16 N 4.684842 5.127486 -0.598935 0
M  V30 17 O 3.073099 5.173295 -2.054669 0
M  V30 18 C 1.333063 1.022835 -1.118910 0
M  V30 19 S -1.819369 -0.532690 1.059999 0
M  V30 20 C -1.320834 -2.014206 1.837766 0
M  V30 21 N -1.960938 -2.887844 2.639727 0
M  V30 22 C -3.244562 -2.790556 3.050456 0
M  V30 23 C -4.305352 -1.781681 2.789177 0
M  V30 24 C -3.461446 -3.913700 3.857567 0
M  V30 25 N -2.310400 -4.618108 3.888703 0
M  V30 26 C -1.384257 -3.991950 3.141438 0
M  V30 27 H 2.145414 -6.636478 2.681238 0
M  V30 28 H 2.297463 -4.992669 2.012311 0
M  V30 29 H 2.700353 -5.233553 3.719299 0
M  V30 30 H 0.163419 -5.989779 3.864875 0
M  V30 31 H 1.626102 -1.280446 0.271947 0
M  V30 32 H -1.932457 1.705273 -0.361238 0
M  V30 33 H -1.464800 3.653286 -1.815288 0
M  V30 34 H 0.776733 3.911209 -2.815868 0
M  V30 35 H 2.854871 2.777604 -3.487694 0
M  V30 36 H 3.384216 1.237873 -2.627768 0
M  V30 37 H 4.567518 2.486864 -1.036165 0
M  V30 38 H 4.402920 5.550223 0.291740 0
M  V30 39 H 5.660612 5.488708 -0.489836 0
M  V30 40 H 2.101854 0.302017 -0.929437 0
M  V30 41 H -3.842718 -0.783158 2.697200 0
M  V30 42 H -4.866811 -2.094840 1.896024 0
M  V30 43 H -5.006103 -1.752742 3.626760 0
M  V30 44 H -4.328677 -4.258534 4.400854 0
M  V30 END ATOM
M  V30 BEGIN BOND
M  V30 1 1 1 2
M  V30 2 1 2 3
M  V30 3 2 3 4
M  V30 4 1 4 5
M  V30 5 1 5 6
M  V30 6 2 6 7
M  V30 7 1 7 8
M  V30 8 2 8 9
M  V30 9 1 9 10
M  V30 10 2 10 11
M  V30 11 1 11 12
M  V30 12 1 12 13
M  V30 13 1 13 14
M  V30 14 1 14 15
M  V30 15 1 15 16
M  V30 16 2 15 17
M  V30 17 2 12 18
M  V30 18 1 7 19
M  V30 19 1 19 20
M  V30 20 1 20 21
M  V30 21 1 21 22
M  V30 22 1 22 23
M  V30 23 2 22 24
M  V30 24 1 24 25
M  V30 25 2 25 26
M  V30 26 1 26 3
M  V30 27 2 20 5
M  V30 28 1 26 21
M  V30 29 1 18 8
M  V30 30 1 1 27
M  V30 31 1 1 28
M  V30 32 1 1 29
M  V30 33 1 2 30
M  V30 34 1 6 31
M  V30 35 1 9 32
M  V30 36 1 10 33
M  V30 37 1 11 34
M  V30 38 1 13 35
M  V30 39 1 13 36
M  V30 40 1 14 37
M  V30 41 1 16 38
M  V30 42 1 16 39
M  V30 43 1 18 40
M  V30 44 1 23 41
M  V30 45 1 23 42
M  V30 46 1 23 43
M  V30 47 1 24 44
M  V30 END BOND
M  V30 END CTAB
M  END
>  <Dataset>  (690) 
ChEMBL_Kinases

>  <Ligand_Instance>  (690) 
nan

>  <PDB_ID>  (690) 
nan

>  <Standardized_SMILES>  (690) 
CNc1nc2cc(-c3cccc(CNC(N)=O)c3)sc2n2c(C)cnc12

>  <Name>  (690) 
nan

>  <Pocket>  (690) 
nan

>  <ATP_Site>  (690) 
nan

>  <Peripheral>  (690) 
nan

>  <Num_H_Atoms_ProtBoundConf>  (690) 
nan

>  <Num_Resolved_Atoms>  (690) 
nan

>  <Num_Not_Resolved_Atoms>  (690) 
nan

$$$$
CHEMBL4866341
     RDKit          3D

  0  0  0  0  0  0  0  0  0  0999 V3000
M  V30 BEGIN CTAB
M  V30 COUNTS 71 74 0 0 0
M  V30 BEGIN ATOM
M  V30 1 C 6.487611 1.230298 1.422519 0
M  V30 2 C 5.396673 2.138485 0.980337 0
M  V30 3 N 5.345411 3.456184 1.214619 0
M  V30 4 C 4.205732 3.887669 0.650220 0
M  V30 5 C 3.705532 5.185866 0.625297 0
M  V30 6 C 2.486983 5.358612 -0.034273 0
M  V30 7 C 1.853135 4.278804 -0.611934 0
M  V30 8 C 0.600840 4.620057 -1.253279 0
M  V30 9 N -0.385873 3.754123 -0.968665 0
M  V30 10 C -1.643399 3.831330 -1.425164 0
M  V30 11 N -2.688137 2.919617 -1.129673 0
M  V30 12 C -2.634696 1.751673 -0.330213 0
M  V30 13 C -1.516361 1.245008 0.293049 0
M  V30 14 C -1.453936 0.110521 1.073873 0
M  V30 15 C -2.631707 -0.588675 1.248789 0
M  V30 16 N -2.573770 -1.781793 2.063174 0
M  V30 17 C -2.288964 -2.941767 1.252216 0
M  V30 18 O -2.189558 -2.480729 0.085163 0
M  V30 19 C -2.217550 -4.217249 2.047261 0
M  V30 20 C -1.960790 -5.347980 1.105927 0
M  V30 21 C -3.065947 -5.455404 0.109201 0
M  V30 22 C -4.410473 -5.699177 0.750173 0
M  V30 23 C -4.437610 -6.984531 1.552659 0
M  V30 24 C -4.145322 -8.153356 0.694999 0
M  V30 25 O -3.882845 -8.329253 -0.542591 0
M  V30 26 N -4.134415 -9.431307 1.323049 0
M  V30 27 O -3.862039 -10.495161 0.505766 0
M  V30 28 C -3.791946 -0.137950 0.653108 0
M  V30 29 C -3.772439 1.004840 -0.112642 0
M  V30 30 N -1.909565 4.870842 -2.231827 0
M  V30 31 C -0.985457 5.784071 -2.569358 0
M  V30 32 C 0.299090 5.677692 -2.083648 0
M  V30 33 F 1.349123 6.507529 -2.322466 0
M  V30 34 C 2.370950 2.993477 -0.574762 0
M  V30 35 C 3.572352 2.806766 0.072539 0
M  V30 36 N 4.313812 1.701390 0.274925 0
M  V30 37 C 4.001620 0.360158 -0.169373 0
M  V30 38 C 2.647075 -0.096240 0.328394 0
M  V30 39 C 4.184565 0.160911 -1.653047 0
M  V30 40 H 7.146964 1.751734 2.151204 0
M  V30 41 H 7.096928 1.001988 0.519255 0
M  V30 42 H 6.126502 0.264640 1.820068 0
M  V30 43 H 4.215426 6.003345 1.079722 0
M  V30 44 H 2.110065 6.373230 -0.044575 0
M  V30 45 H -3.637513 3.124797 -1.555867 0
M  V30 46 H -0.575137 1.757822 0.183784 0
M  V30 47 H -0.534186 -0.224410 1.530948 0
M  V30 48 H -2.735475 -1.707056 3.113772 0
M  V30 49 H -3.148823 -4.341873 2.634818 0
M  V30 50 H -1.370665 -4.173226 2.763252 0
M  V30 51 H -1.711214 -6.291218 1.605530 0
M  V30 52 H -1.029866 -5.075869 0.527902 0
M  V30 53 H -2.858054 -6.235048 -0.672382 0
M  V30 54 H -3.155211 -4.511415 -0.460469 0
M  V30 55 H -4.698915 -4.850630 1.370747 0
M  V30 56 H -5.148147 -5.777940 -0.069692 0
M  V30 57 H -5.469105 -7.085105 1.958983 0
M  V30 58 H -3.731462 -6.961938 2.394107 0
M  V30 59 H -4.313840 -9.641083 2.349086 0
M  V30 60 H -4.671476 -10.703178 0.003722 0
M  V30 61 H -4.705533 -0.694885 0.798844 0
M  V30 62 H -4.715789 1.295663 -0.546238 0
M  V30 63 H -1.167369 6.619109 -3.208155 0
M  V30 64 H 1.813363 2.223491 -1.047331 0
M  V30 65 H 4.743588 -0.303625 0.340725 0
M  V30 66 H 2.095483 -0.593823 -0.489868 0
M  V30 67 H 2.719801 -0.865107 1.142752 0
M  V30 68 H 2.063735 0.733487 0.810102 0
M  V30 69 H 3.292932 -0.387292 -2.053587 0
M  V30 70 H 4.305067 1.158270 -2.122442 0
M  V30 71 H 5.047496 -0.507638 -1.873458 0
M  V30 END ATOM
M  V30 BEGIN BOND
M  V30 1 1 1 2
M  V30 2 2 2 3
M  V30 3 1 3 4
M  V30 4 2 4 5
M  V30 5 1 5 6
M  V30 6 2 6 7
M  V30 7 1 7 8
M  V30 8 2 8 9
M  V30 9 1 9 10
M  V30 10 1 10 11
M  V30 11 1 11 12
M  V30 12 2 12 13
M  V30 13 1 13 14
M  V30 14 2 14 15
M  V30 15 1 15 16
M  V30 16 1 16 17
M  V30 17 2 17 18
M  V30 18 1 17 19
M  V30 19 1 19 20
M  V30 20 1 20 21
M  V30 21 1 21 22
M  V30 22 1 22 23
M  V30 23 1 23 24
M  V30 24 2 24 25
M  V30 25 1 24 26
M  V30 26 1 26 27
M  V30 27 1 15 28
M  V30 28 2 28 29
M  V30 29 2 10 30
M  V30 30 1 30 31
M  V30 31 2 31 32
M  V30 32 1 32 33
M  V30 33 1 7 34
M  V30 34 2 34 35
M  V30 35 1 35 36
M  V30 36 1 36 37
M  V30 37 1 37 38
M  V30 38 1 37 39
M  V30 39 1 36 2
M  V30 40 1 35 4
M  V30 41 1 32 8
M  V30 42 1 29 12
M  V30 43 1 1 40
M  V30 44 1 1 41
M  V30 45 1 1 42
M  V30 46 1 5 43
M  V30 47 1 6 44
M  V30 48 1 11 45
M  V30 49 1 13 46
M  V30 50 1 14 47
M  V30 51 1 16 48
M  V30 52 1 19 49
M  V30 53 1 19 50
M  V30 54 1 20 51
M  V30 55 1 20 52
M  V30 56 1 21 53
M  V30 57 1 21 54
M  V30 58 1 22 55
M  V30 59 1 22 56
M  V30 60 1 23 57
M  V30 61 1 23 58
M  V30 62 1 26 59
M  V30 63 1 27 60
M  V30 64 1 28 61
M  V30 65 1 29 62
M  V30 66 1 31 63
M  V30 67 1 34 64
M  V30 68 1 37 65
M  V30 69 1 38 66
M  V30 70 1 38 67
M  V30 71 1 38 68
M  V30 72 1 39 69
M  V30 73 1 39 70
M  V30 74 1 39 71
M  V30 END BOND
M  V30 END CTAB
M  END
>  <Dataset>  (691) 
ChEMBL_Kinases

>  <Ligand_Instance>  (691) 
nan

>  <PDB_ID>  (691) 
nan

>  <Standardized_SMILES>  (691) 
Cc1nc2ccc(-c3nc(Nc4ccc(NC(=O)CCCCCC(=O)NO)cc4)ncc3F)cc2n1C(C)C

>  <Name>  (691) 
nan

>  <Pocket>  (691) 
nan

>  <ATP_Site>  (691) 
nan

>  <Peripheral>  (691) 
nan

>  <Num_H_Atoms_ProtBoundConf>  (691) 
nan

>  <Num_Resolved_Atoms>  (691) 
nan

>  <Num_Not_Resolved_Atoms>  (691) 
nan

$$$$
CHEMBL400350
     RDKit          3D

  0  0  0  0  0  0  0  0  0  0999 V3000
M  V30 BEGIN CTAB
M  V30 COUNTS 43 46 0 0 0
M  V30 BEGIN ATOM
M  V30 1 N -1.440818 -5.739263 -0.914134 0
M  V30 2 C -0.196290 -5.258319 -0.326584 0
M  V30 3 C -0.039494 -3.771097 -0.505294 0
M  V30 4 C 1.284203 -3.344914 0.126457 0
M  V30 5 C 1.479741 -1.878364 -0.010983 0
M  V30 6 C 2.287718 -1.331784 -0.983508 0
M  V30 7 C 2.454574 0.028874 -1.129538 0
M  V30 8 C 3.281033 0.472561 -2.133236 0
M  V30 9 C 3.403333 1.838342 -2.227706 0
M  V30 10 N 2.775990 2.735093 -1.414242 0
M  V30 11 C 1.984111 2.227998 -0.456146 0
M  V30 12 O 1.480695 3.157973 0.204520 0
M  V30 13 C 1.796512 0.884763 -0.280534 0
M  V30 14 C 0.980985 0.419327 0.705414 0
M  V30 15 C 0.324122 1.259070 1.562742 0
M  V30 16 C -0.495196 0.792519 2.566553 0
M  V30 17 C -1.219166 1.641049 3.508598 0
M  V30 18 C -2.051382 1.190191 4.508291 0
M  V30 19 C -2.517995 2.319640 5.144737 0
M  V30 20 C -1.983205 3.464096 4.549144 0
M  V30 21 N -1.195177 2.984017 3.552409 0
M  V30 22 C -0.612877 -0.595844 2.653333 0
M  V30 23 C 0.039665 -1.465362 1.799381 0
M  V30 24 C 0.860889 -0.945963 0.794375 0
M  V30 25 H -2.111306 -6.114145 -0.232667 0
M  V30 26 H -1.828634 -5.066323 -1.609640 0
M  V30 27 H 0.628793 -5.785957 -0.808219 0
M  V30 28 H -0.269828 -5.434758 0.764939 0
M  V30 29 H -0.868974 -3.174368 -0.136666 0
M  V30 30 H 0.048202 -3.573117 -1.616929 0
M  V30 31 H 2.107181 -3.849693 -0.397551 0
M  V30 32 H 1.339695 -3.619549 1.192225 0
M  V30 33 H 2.797920 -2.044475 -1.644873 0
M  V30 34 H 3.809424 -0.179892 -2.813968 0
M  V30 35 H 4.062323 2.202176 -3.025940 0
M  V30 36 H 2.979897 3.754154 -1.621969 0
M  V30 37 H 0.360908 2.324919 1.564795 0
M  V30 38 H -2.314589 0.177125 4.776997 0
M  V30 39 H -3.208222 2.285031 5.992431 0
M  V30 40 H -2.171873 4.484538 4.839430 0
M  V30 41 H -0.646438 3.628714 2.912817 0
M  V30 42 H -1.267352 -0.977637 3.454099 0
M  V30 43 H -0.154132 -2.500727 2.005432 0
M  V30 END ATOM
M  V30 BEGIN BOND
M  V30 1 1 1 2
M  V30 2 1 2 3
M  V30 3 1 3 4
M  V30 4 1 4 5
M  V30 5 2 5 6
M  V30 6 1 6 7
M  V30 7 1 7 8
M  V30 8 2 8 9
M  V30 9 1 9 10
M  V30 10 1 10 11
M  V30 11 2 11 12
M  V30 12 1 11 13
M  V30 13 1 13 14
M  V30 14 2 14 15
M  V30 15 1 15 16
M  V30 16 1 16 17
M  V30 17 2 17 18
M  V30 18 1 18 19
M  V30 19 2 19 20
M  V30 20 1 20 21
M  V30 21 2 16 22
M  V30 22 1 22 23
M  V30 23 2 23 24
M  V30 24 1 24 5
M  V30 25 2 13 7
M  V30 26 1 24 14
M  V30 27 1 21 17
M  V30 28 1 1 25
M  V30 29 1 1 26
M  V30 30 1 2 27
M  V30 31 1 2 28
M  V30 32 1 3 29
M  V30 33 1 3 30
M  V30 34 1 4 31
M  V30 35 1 4 32
M  V30 36 1 6 33
M  V30 37 1 8 34
M  V30 38 1 9 35
M  V30 39 1 10 36
M  V30 40 1 15 37
M  V30 41 1 18 38
M  V30 42 1 19 39
M  V30 43 1 20 40
M  V30 44 1 21 41
M  V30 45 1 22 42
M  V30 46 1 23 43
M  V30 END BOND
M  V30 END CTAB
M  END
>  <Dataset>  (692) 
ChEMBL_Kinases

>  <Ligand_Instance>  (692) 
nan

>  <PDB_ID>  (692) 
nan

>  <Standardized_SMILES>  (692) 
NCCCc1cc2cc[nH]c(=O)c2c2cc(-c3ccc[nH]3)ccc12

>  <Name>  (692) 
nan

>  <Pocket>  (692) 
nan

>  <ATP_Site>  (692) 
nan

>  <Peripheral>  (692) 
nan

>  <Num_H_Atoms_ProtBoundConf>  (692) 
nan

>  <Num_Resolved_Atoms>  (692) 
nan

>  <Num_Not_Resolved_Atoms>  (692) 
nan

$$$$
CHEMBL400323
     RDKit          3D

  0  0  0  0  0  0  0  0  0  0999 V3000
M  V30 BEGIN CTAB
M  V30 COUNTS 42 45 0 0 0
M  V30 BEGIN ATOM
M  V30 1 N -2.662837 -4.969905 -1.166605 0
M  V30 2 C -1.275539 -4.740981 -0.906946 0
M  V30 3 C -0.953310 -3.263752 -0.830224 0
M  V30 4 C 0.530355 -3.121518 -0.554612 0
M  V30 5 C 0.945384 -1.699089 -0.452025 0
M  V30 6 C 1.541810 -1.144295 -1.568916 0
M  V30 7 C 1.908819 0.181577 -1.495894 0
M  V30 8 C 2.503060 0.711531 -2.629202 0
M  V30 9 C 2.873854 2.037491 -2.567317 0
M  V30 10 N 2.684084 2.823655 -1.467797 0
M  V30 11 C 2.102967 2.262363 -0.393100 0
M  V30 12 O 2.003410 3.106534 0.516561 0
M  V30 13 C 1.707765 0.950929 -0.379859 0
M  V30 14 C 1.121553 0.424045 0.733477 0
M  V30 15 C 0.915125 1.164520 1.860638 0
M  V30 16 C 0.326637 0.589385 2.965581 0
M  V30 17 C 0.074369 1.316547 4.204350 0
M  V30 18 C -0.509097 0.804248 5.343194 0
M  V30 19 C -0.582591 1.801900 6.321749 0
M  V30 20 N -0.032489 2.898844 5.730907 0
M  V30 21 N 0.341709 2.592257 4.501228 0
M  V30 22 C -0.030831 -0.737213 2.870070 0
M  V30 23 C 0.164287 -1.516791 1.741308 0
M  V30 24 C 0.758036 -0.900047 0.653105 0
M  V30 25 H -3.002146 -5.733024 -0.544468 0
M  V30 26 H -3.269411 -4.131458 -0.988465 0
M  V30 27 H -0.683349 -5.153084 -1.752064 0
M  V30 28 H -0.967666 -5.276389 -0.008053 0
M  V30 29 H -1.208274 -2.843578 -1.838105 0
M  V30 30 H -1.550297 -2.733051 -0.079133 0
M  V30 31 H 1.111115 -3.635653 -1.353686 0
M  V30 32 H 0.804213 -3.669577 0.380449 0
M  V30 33 H 1.708853 -1.733547 -2.458645 0
M  V30 34 H 2.674544 0.121065 -3.530146 0
M  V30 35 H 3.336451 2.438978 -3.457977 0
M  V30 36 H 3.021693 3.809061 -1.583564 0
M  V30 37 H 1.159958 2.188964 2.017527 0
M  V30 38 H -0.874996 -0.195062 5.524127 0
M  V30 39 H -1.000651 1.676895 7.327036 0
M  V30 40 H 0.797161 3.226006 3.797016 0
M  V30 41 H -0.497203 -1.190116 3.749628 0
M  V30 42 H -0.151631 -2.531209 1.800564 0
M  V30 END ATOM
M  V30 BEGIN BOND
M  V30 1 1 1 2
M  V30 2 1 2 3
M  V30 3 1 3 4
M  V30 4 1 4 5
M  V30 5 2 5 6
M  V30 6 1 6 7
M  V30 7 1 7 8
M  V30 8 2 8 9
M  V30 9 1 9 10
M  V30 10 1 10 11
M  V30 11 2 11 12
M  V30 12 1 11 13
M  V30 13 1 13 14
M  V30 14 2 14 15
M  V30 15 1 15 16
M  V30 16 1 16 17
M  V30 17 2 17 18
M  V30 18 1 18 19
M  V30 19 2 19 20
M  V30 20 1 20 21
M  V30 21 2 16 22
M  V30 22 1 22 23
M  V30 23 2 23 24
M  V30 24 1 24 5
M  V30 25 2 13 7
M  V30 26 1 24 14
M  V30 27 1 21 17
M  V30 28 1 1 25
M  V30 29 1 1 26
M  V30 30 1 2 27
M  V30 31 1 2 28
M  V30 32 1 3 29
M  V30 33 1 3 30
M  V30 34 1 4 31
M  V30 35 1 4 32
M  V30 36 1 6 33
M  V30 37 1 8 34
M  V30 38 1 9 35
M  V30 39 1 10 36
M  V30 40 1 15 37
M  V30 41 1 18 38
M  V30 42 1 19 39
M  V30 43 1 21 40
M  V30 44 1 22 41
M  V30 45 1 23 42
M  V30 END BOND
M  V30 END CTAB
M  END
>  <Dataset>  (693) 
ChEMBL_Kinases

>  <Ligand_Instance>  (693) 
nan

>  <PDB_ID>  (693) 
nan

>  <Standardized_SMILES>  (693) 
NCCCc1cc2cc[nH]c(=O)c2c2cc(-c3ccn[nH]3)ccc12

>  <Name>  (693) 
nan

>  <Pocket>  (693) 
nan

>  <ATP_Site>  (693) 
nan

>  <Peripheral>  (693) 
nan

>  <Num_H_Atoms_ProtBoundConf>  (693) 
nan

>  <Num_Resolved_Atoms>  (693) 
nan

>  <Num_Not_Resolved_Atoms>  (693) 
nan

$$$$
CHEMBL400287
     RDKit          3D

  0  0  0  0  0  0  0  0  0  0999 V3000
M  V30 BEGIN CTAB
M  V30 COUNTS 45 48 0 0 0
M  V30 BEGIN ATOM
M  V30 1 N -3.288926 -7.594616 -1.492681 0
M  V30 2 C -2.684220 -7.055828 -2.655069 0
M  V30 3 O -2.756973 -7.662719 -3.757291 0
M  V30 4 C -1.969559 -5.806035 -2.624113 0
M  V30 5 C -1.390443 -5.306680 -3.774717 0
M  V30 6 C -0.704650 -4.097157 -3.721870 0
M  V30 7 C -0.585618 -3.370685 -2.530021 0
M  V30 8 N 0.022645 -2.192997 -2.242746 0
M  V30 9 C -0.187260 -1.982826 -0.929909 0
M  V30 10 C 0.294298 -0.822496 -0.179934 0
M  V30 11 C 1.025089 0.171563 -0.798830 0
M  V30 12 C 1.478987 1.276392 -0.065293 0
M  V30 13 C 1.205008 1.399771 1.304524 0
M  V30 14 O 1.757046 2.558727 1.773029 0
M  V30 15 C 1.674280 2.988622 3.088388 0
M  V30 16 C 0.976019 4.326064 3.212213 0
M  V30 17 C 1.475146 5.030353 4.447547 0
M  V30 18 C 1.781457 4.084224 5.584600 0
M  V30 19 N 2.776533 3.100299 5.203721 0
M  V30 20 C 3.023415 3.149062 3.754997 0
M  V30 21 C 0.472545 0.390721 1.895636 0
M  V30 22 C 0.028928 -0.693489 1.168587 0
M  V30 23 N -0.903973 -2.993974 -0.406219 0
M  V30 24 C -1.183650 -3.905237 -1.385069 0
M  V30 25 C -1.868376 -5.103669 -1.416744 0
M  V30 26 H -2.616811 -7.588669 -0.687970 0
M  V30 27 H -4.285329 -7.933280 -1.519207 0
M  V30 28 H -1.472798 -5.859390 -4.713997 0
M  V30 29 H -0.251397 -3.707126 -4.624212 0
M  V30 30 H 0.530018 -1.625142 -2.952246 0
M  V30 31 H 1.210114 0.031588 -1.853919 0
M  V30 32 H 2.037271 1.963643 -0.703534 0
M  V30 33 H 1.107928 2.277130 3.702098 0
M  V30 34 H -0.109825 4.128925 3.267743 0
M  V30 35 H 1.236083 4.990958 2.344381 0
M  V30 36 H 0.657795 5.706269 4.814694 0
M  V30 37 H 2.326567 5.714052 4.246800 0
M  V30 38 H 0.820353 3.632207 5.907704 0
M  V30 39 H 2.189870 4.701795 6.400423 0
M  V30 40 H 2.360422 2.152974 5.429859 0
M  V30 41 H 3.724397 2.347234 3.507406 0
M  V30 42 H 3.440930 4.155229 3.544982 0
M  V30 43 H 0.317686 0.580795 2.945892 0
M  V30 44 H -0.538465 -1.436100 1.716069 0
M  V30 45 H -2.323722 -5.493484 -0.505560 0
M  V30 END ATOM
M  V30 BEGIN BOND
M  V30 1 1 1 2
M  V30 2 2 2 3
M  V30 3 1 2 4
M  V30 4 2 4 5
M  V30 5 1 5 6
M  V30 6 2 6 7
M  V30 7 1 7 8
M  V30 8 1 8 9
M  V30 9 1 9 10
M  V30 10 2 10 11
M  V30 11 1 11 12
M  V30 12 2 12 13
M  V30 13 1 13 14
M  V30 14 1 14 15
M  V30 15 1 15 16
M  V30 16 1 16 17
M  V30 17 1 17 18
M  V30 18 1 18 19
M  V30 19 1 19 20
M  V30 20 1 13 21
M  V30 21 2 21 22
M  V30 22 2 9 23
M  V30 23 1 23 24
M  V30 24 2 24 25
M  V30 25 1 25 4
M  V30 26 1 24 7
M  V30 27 1 22 10
M  V30 28 1 20 15
M  V30 29 1 1 26
M  V30 30 1 1 27
M  V30 31 1 5 28
M  V30 32 1 6 29
M  V30 33 1 8 30
M  V30 34 1 11 31
M  V30 35 1 12 32
M  V30 36 1 15 33
M  V30 37 1 16 34
M  V30 38 1 16 35
M  V30 39 1 17 36
M  V30 40 1 17 37
M  V30 41 1 18 38
M  V30 42 1 18 39
M  V30 43 1 19 40
M  V30 44 1 20 41
M  V30 45 1 20 42
M  V30 46 1 21 43
M  V30 47 1 22 44
M  V30 48 1 25 45
M  V30 END BOND
M  V30 END CTAB
M  END
>  <Dataset>  (694) 
ChEMBL_Kinases

>  <Ligand_Instance>  (694) 
nan

>  <PDB_ID>  (694) 
nan

>  <Standardized_SMILES>  (694) 
NC(=O)c1ccc2[nH]c(-c3ccc(OC4CCCNC4)cc3)nc2c1

>  <Name>  (694) 
nan

>  <Pocket>  (694) 
nan

>  <ATP_Site>  (694) 
nan

>  <Peripheral>  (694) 
nan

>  <Num_H_Atoms_ProtBoundConf>  (694) 
nan

>  <Num_Resolved_Atoms>  (694) 
nan

>  <Num_Not_Resolved_Atoms>  (694) 
nan

$$$$
CHEMBL400271
     RDKit          3D

  0  0  0  0  0  0  0  0  0  0999 V3000
M  V30 BEGIN CTAB
M  V30 COUNTS 40 42 0 0 0
M  V30 BEGIN ATOM
M  V30 1 N 3.025851 -3.068215 -2.397835 0
M  V30 2 C 3.021574 -2.770795 -1.006016 0
M  V30 3 N 4.079695 -3.149363 -0.266536 0
M  V30 4 C 4.091025 -2.872386 1.066084 0
M  V30 5 C 2.994794 -2.212833 1.560186 0
M  V30 6 C 1.894140 -1.810027 0.833517 0
M  V30 7 C 0.809332 -1.116208 1.517271 0
M  V30 8 C 0.751188 -0.802373 2.853062 0
M  V30 9 C -0.440358 -0.159873 3.088789 0
M  V30 10 C -1.085885 -0.097792 1.873514 0
M  V30 11 N -0.331086 -0.682264 0.891770 0
M  V30 12 C -0.819008 -0.813654 -0.405869 0
M  V30 13 C -0.832552 0.211769 -1.431873 0
M  V30 14 C 0.360512 0.893263 -1.950228 0
M  V30 15 C 1.084446 1.805710 -1.033896 0
M  V30 16 F 1.582295 1.245796 0.068830 0
M  V30 17 F 2.091555 2.514279 -1.724315 0
M  V30 18 F 0.179933 2.846895 -0.689181 0
M  V30 19 C -2.415438 0.567741 1.865409 0
M  V30 20 C -3.098934 0.461170 3.209220 0
M  V30 21 N -2.252737 0.979010 4.276979 0
M  V30 22 C -0.969302 0.363055 4.341677 0
M  V30 23 O -0.309885 0.269083 5.431473 0
M  V30 24 N 1.995726 -2.136063 -0.461015 0
M  V30 25 H 2.259813 -2.678287 -3.020319 0
M  V30 26 H 2.281279 -2.696825 -3.038853 0
M  V30 27 H 4.925094 -3.162253 1.689339 0
M  V30 28 H 3.045396 -2.010521 2.634520 0
M  V30 29 H 1.520280 -1.028240 3.586178 0
M  V30 30 H -0.286901 -1.734963 -0.888348 0
M  V30 31 H -1.912198 -1.209455 -0.315364 0
M  V30 32 H -1.597890 1.011424 -1.060133 0
M  V30 33 H -1.446829 -0.217791 -2.327948 0
M  V30 34 H 0.111928 1.460493 -2.917256 0
M  V30 35 H 1.102902 0.119934 -2.368225 0
M  V30 36 H -3.118325 0.080376 1.137068 0
M  V30 37 H -2.297616 1.623631 1.545068 0
M  V30 38 H -4.060259 1.013779 3.159617 0
M  V30 39 H -3.259860 -0.622344 3.387358 0
M  V30 40 H -2.470217 1.736671 4.992105 0
M  V30 END ATOM
M  V30 BEGIN BOND
M  V30 1 1 1 2
M  V30 2 2 2 3
M  V30 3 1 3 4
M  V30 4 2 4 5
M  V30 5 1 5 6
M  V30 6 1 6 7
M  V30 7 2 7 8
M  V30 8 1 8 9
M  V30 9 2 9 10
M  V30 10 1 10 11
M  V30 11 1 11 12
M  V30 12 1 12 13
M  V30 13 1 13 14
M  V30 14 1 14 15
M  V30 15 1 15 16
M  V30 16 1 15 17
M  V30 17 1 15 18
M  V30 18 1 10 19
M  V30 19 1 19 20
M  V30 20 1 20 21
M  V30 21 1 21 22
M  V30 22 2 22 23
M  V30 23 2 6 24
M  V30 24 1 24 2
M  V30 25 1 11 7
M  V30 26 1 22 9
M  V30 27 1 1 25
M  V30 28 1 1 26
M  V30 29 1 4 27
M  V30 30 1 5 28
M  V30 31 1 8 29
M  V30 32 1 12 30
M  V30 33 1 12 31
M  V30 34 1 13 32
M  V30 35 1 13 33
M  V30 36 1 14 34
M  V30 37 1 14 35
M  V30 38 1 19 36
M  V30 39 1 19 37
M  V30 40 1 20 38
M  V30 41 1 20 39
M  V30 42 1 21 40
M  V30 END BOND
M  V30 END CTAB
M  END
>  <Dataset>  (695) 
ChEMBL_Kinases

>  <Ligand_Instance>  (695) 
nan

>  <PDB_ID>  (695) 
nan

>  <Standardized_SMILES>  (695) 
Nc1nccc(-c2cc3c(n2CCCC(F)(F)F)CCNC3=O)n1

>  <Name>  (695) 
nan

>  <Pocket>  (695) 
nan

>  <ATP_Site>  (695) 
nan

>  <Peripheral>  (695) 
nan

>  <Num_H_Atoms_ProtBoundConf>  (695) 
nan

>  <Num_Resolved_Atoms>  (695) 
nan

>  <Num_Not_Resolved_Atoms>  (695) 
nan

$$$$
CHEMBL95692
     RDKit          3D

  0  0  0  0  0  0  0  0  0  0999 V3000
M  V30 BEGIN CTAB
M  V30 COUNTS 46 49 0 0 0
M  V30 BEGIN ATOM
M  V30 1 C 2.561778 -2.455973 4.124773 0
M  V30 2 O 3.192653 -2.934307 2.945776 0
M  V30 3 C 2.721548 -2.553937 1.700752 0
M  V30 4 N 3.381618 -3.056044 0.633806 0
M  V30 5 C 2.940382 -2.699523 -0.585678 0
M  V30 6 C 1.856911 -1.854988 -0.737721 0
M  V30 7 C 1.184883 -1.343973 0.358941 0
M  V30 8 C 0.060641 -0.465190 0.135739 0
M  V30 9 C 0.267279 0.756948 -0.502911 0
M  V30 10 C 1.429733 1.455693 -1.061845 0
M  V30 11 C 1.349642 1.729674 -2.418858 0
M  V30 12 C 2.328238 2.376951 -3.146620 0
M  V30 13 C 3.457064 2.764265 -2.429232 0
M  V30 14 F 4.461814 3.408003 -3.087485 0
M  V30 15 C 3.567177 2.507128 -1.081488 0
M  V30 16 C 2.572571 1.857519 -0.377808 0
M  V30 17 N -0.937938 1.365025 -0.578882 0
M  V30 18 C -1.842452 0.549254 -0.010986 0
M  V30 19 N -1.247602 -0.577623 0.432731 0
M  V30 20 C -1.832089 -1.706344 1.093919 0
M  V30 21 C -1.669357 -1.746099 2.577419 0
M  V30 22 C -2.094269 -0.468939 3.265933 0
M  V30 23 N -3.314859 0.019276 2.705938 0
M  V30 24 C -4.067127 -0.946464 1.960637 0
M  V30 25 C -3.334808 -1.620469 0.850559 0
M  V30 26 N 1.684154 -1.745071 1.544596 0
M  V30 27 H 2.626384 -1.365631 4.180019 0
M  V30 28 H 3.000372 -2.892517 5.026301 0
M  V30 29 H 1.481407 -2.745613 4.110760 0
M  V30 30 H 3.480486 -3.110435 -1.432223 0
M  V30 31 H 1.581578 -1.630131 -1.743515 0
M  V30 32 H 0.473493 1.438098 -3.012760 0
M  V30 33 H 2.222773 2.569481 -4.206338 0
M  V30 34 H 4.432546 2.801029 -0.517355 0
M  V30 35 H 2.569143 1.612502 0.676118 0
M  V30 36 H -2.891951 0.802296 0.057722 0
M  V30 37 H -1.475180 -2.678115 0.699061 0
M  V30 38 H -2.402854 -2.523551 2.942546 0
M  V30 39 H -0.703789 -2.060469 2.960520 0
M  V30 40 H -2.216051 -0.646070 4.353243 0
M  V30 41 H -1.294531 0.278176 3.157193 0
M  V30 42 H -3.925131 0.350188 3.485193 0
M  V30 43 H -4.532531 -1.640681 2.692676 0
M  V30 44 H -4.928061 -0.371481 1.509314 0
M  V30 45 H -3.730110 -2.670747 0.778825 0
M  V30 46 H -3.557282 -1.177589 -0.141399 0
M  V30 END ATOM
M  V30 BEGIN BOND
M  V30 1 1 1 2
M  V30 2 1 2 3
M  V30 3 2 3 4
M  V30 4 1 4 5
M  V30 5 2 5 6
M  V30 6 1 6 7
M  V30 7 1 7 8
M  V30 8 2 8 9
M  V30 9 1 9 10
M  V30 10 2 10 11
M  V30 11 1 11 12
M  V30 12 2 12 13
M  V30 13 1 13 14
M  V30 14 1 13 15
M  V30 15 2 15 16
M  V30 16 1 9 17
M  V30 17 2 17 18
M  V30 18 1 18 19
M  V30 19 1 19 20
M  V30 20 1 20 21
M  V30 21 1 21 22
M  V30 22 1 22 23
M  V30 23 1 23 24
M  V30 24 1 24 25
M  V30 25 2 7 26
M  V30 26 1 26 3
M  V30 27 1 19 8
M  V30 28 1 25 20
M  V30 29 1 16 10
M  V30 30 1 1 27
M  V30 31 1 1 28
M  V30 32 1 1 29
M  V30 33 1 5 30
M  V30 34 1 6 31
M  V30 35 1 11 32
M  V30 36 1 12 33
M  V30 37 1 15 34
M  V30 38 1 16 35
M  V30 39 1 18 36
M  V30 40 1 20 37
M  V30 41 1 21 38
M  V30 42 1 21 39
M  V30 43 1 22 40
M  V30 44 1 22 41
M  V30 45 1 23 42
M  V30 46 1 24 43
M  V30 47 1 24 44
M  V30 48 1 25 45
M  V30 49 1 25 46
M  V30 END BOND
M  V30 END CTAB
M  END
>  <Dataset>  (696) 
ChEMBL_Kinases

>  <Ligand_Instance>  (696) 
nan

>  <PDB_ID>  (696) 
nan

>  <Standardized_SMILES>  (696) 
COc1nccc(-c2c(-c3ccc(F)cc3)ncn2C2CCNCC2)n1

>  <Name>  (696) 
SB-242235

>  <Pocket>  (696) 
nan

>  <ATP_Site>  (696) 
nan

>  <Peripheral>  (696) 
nan

>  <Num_H_Atoms_ProtBoundConf>  (696) 
nan

>  <Num_Resolved_Atoms>  (696) 
nan

>  <Num_Not_Resolved_Atoms>  (696) 
nan

$$$$
CHEMBL400270
     RDKit          3D

  0  0  0  0  0  0  0  0  0  0999 V3000
M  V30 BEGIN CTAB
M  V30 COUNTS 40 42 0 0 0
M  V30 BEGIN ATOM
M  V30 1 C 0.207131 -3.093115 1.895000 0
M  V30 2 C 1.209462 -2.630753 0.886647 0
M  V30 3 C 2.451191 -3.512268 1.118264 0
M  V30 4 C 1.603526 -1.230499 1.140620 0
M  V30 5 N 0.587022 -0.239033 1.107718 0
M  V30 6 C 0.134226 0.391485 0.015556 0
M  V30 7 C 0.394901 0.337946 -1.403806 0
M  V30 8 C 1.248556 -0.488349 -2.066220 0
M  V30 9 C 1.474841 -0.536919 -3.419892 0
M  V30 10 N 0.752875 0.350275 -4.168130 0
M  V30 11 C -0.088269 1.164645 -3.522129 0
M  V30 12 N -0.836616 2.085945 -4.308422 0
M  V30 13 N -0.265798 1.167941 -2.217095 0
M  V30 14 C -0.795097 1.272414 0.531915 0
M  V30 15 C -0.895844 1.172165 1.884918 0
M  V30 16 C -0.001381 0.195084 2.257752 0
M  V30 17 C 0.140989 -0.123389 3.683737 0
M  V30 18 C -1.200002 0.087228 4.359264 0
M  V30 19 N -1.601001 1.495351 4.251707 0
M  V30 20 C -1.747471 1.879379 2.867016 0
M  V30 21 O -2.558630 2.778851 2.471478 0
M  V30 22 H -0.268410 -4.076947 1.651736 0
M  V30 23 H -0.638834 -2.367446 2.012609 0
M  V30 24 H 0.706459 -3.272815 2.891356 0
M  V30 25 H 0.925382 -2.883300 -0.155674 0
M  V30 26 H 2.071467 -4.556924 1.053145 0
M  V30 27 H 3.217919 -3.288915 0.362796 0
M  V30 28 H 2.784100 -3.309194 2.168931 0
M  V30 29 H 2.468053 -0.947287 0.520375 0
M  V30 30 H 2.081369 -1.264616 2.201636 0
M  V30 31 H 1.834138 -1.212757 -1.543746 0
M  V30 32 H 2.154284 -1.201394 -3.896351 0
M  V30 33 H -0.696255 2.192521 -5.335246 0
M  V30 34 H -1.585492 2.762486 -4.066750 0
M  V30 35 H -1.422612 2.001567 -0.011391 0
M  V30 36 H 0.803080 0.642403 4.206887 0
M  V30 37 H 0.435312 -1.136500 3.939740 0
M  V30 38 H -1.100256 -0.163133 5.442968 0
M  V30 39 H -1.984470 -0.544110 3.947780 0
M  V30 40 H -1.796368 2.253532 4.949127 0
M  V30 END ATOM
M  V30 BEGIN BOND
M  V30 1 1 1 2
M  V30 2 1 2 3
M  V30 3 1 2 4
M  V30 4 1 4 5
M  V30 5 1 5 6
M  V30 6 1 6 7
M  V30 7 2 7 8
M  V30 8 1 8 9
M  V30 9 2 9 10
M  V30 10 1 10 11
M  V30 11 1 11 12
M  V30 12 2 11 13
M  V30 13 2 6 14
M  V30 14 1 14 15
M  V30 15 2 15 16
M  V30 16 1 16 17
M  V30 17 1 17 18
M  V30 18 1 18 19
M  V30 19 1 19 20
M  V30 20 2 20 21
M  V30 21 1 16 5
M  V30 22 1 13 7
M  V30 23 1 20 15
M  V30 24 1 1 22
M  V30 25 1 1 23
M  V30 26 1 1 24
M  V30 27 1 2 25
M  V30 28 1 3 26
M  V30 29 1 3 27
M  V30 30 1 3 28
M  V30 31 1 4 29
M  V30 32 1 4 30
M  V30 33 1 8 31
M  V30 34 1 9 32
M  V30 35 1 12 33
M  V30 36 1 12 34
M  V30 37 1 14 35
M  V30 38 1 17 36
M  V30 39 1 17 37
M  V30 40 1 18 38
M  V30 41 1 18 39
M  V30 42 1 19 40
M  V30 END BOND
M  V30 END CTAB
M  END
>  <Dataset>  (697) 
ChEMBL_Kinases

>  <Ligand_Instance>  (697) 
nan

>  <PDB_ID>  (697) 
nan

>  <Standardized_SMILES>  (697) 
CC(C)Cn1c(-c2ccnc(N)n2)cc2c1CCNC2=O

>  <Name>  (697) 
nan

>  <Pocket>  (697) 
nan

>  <ATP_Site>  (697) 
nan

>  <Peripheral>  (697) 
nan

>  <Num_H_Atoms_ProtBoundConf>  (697) 
nan

>  <Num_Resolved_Atoms>  (697) 
nan

>  <Num_Not_Resolved_Atoms>  (697) 
nan

$$$$
CHEMBL400240
     RDKit          3D

  0  0  0  0  0  0  0  0  0  0999 V3000
M  V30 BEGIN CTAB
M  V30 COUNTS 42 45 0 0 0
M  V30 BEGIN ATOM
M  V30 1 C 2.166000 -5.702795 3.962762 0
M  V30 2 S 2.346548 -5.807825 2.198663 0
M  V30 3 O 3.649181 -6.497165 1.899167 0
M  V30 4 O 1.200439 -6.594374 1.643613 0
M  V30 5 C 2.436196 -4.230772 1.468218 0
M  V30 6 C 1.193220 -3.694875 1.130472 0
M  V30 7 C 1.062238 -2.452540 0.539838 0
M  V30 8 C 2.223169 -1.761305 0.297571 0
M  V30 9 N 2.160171 -0.476873 -0.309695 0
M  V30 10 C 0.956334 0.207547 -0.638073 0
M  V30 11 C 0.442897 1.125137 0.289707 0
M  V30 12 C -0.716344 1.833693 0.064340 0
M  V30 13 C -1.261968 2.790974 1.015900 0
M  V30 14 C -0.706810 3.110344 2.224162 0
M  V30 15 C -1.212120 4.013934 3.132709 0
M  V30 16 C -2.376008 4.656942 2.807168 0
M  V30 17 C -2.972949 4.371292 1.605108 0
M  V30 18 C -2.437351 3.448247 0.700032 0
M  V30 19 Cl -3.307116 3.178884 -0.804540 0
M  V30 20 N -1.331384 1.592140 -1.105877 0
M  V30 21 C -0.885394 0.724362 -2.031808 0
M  V30 22 C -1.294840 0.289464 -3.274715 0
M  V30 23 Br -2.870394 0.908201 -4.158873 0
M  V30 24 C -0.392518 -0.651384 -3.760876 0
M  V30 25 N 0.563487 -0.778255 -2.798887 0
M  V30 26 N 0.258930 0.038908 -1.786003 0
M  V30 27 C 3.476267 -2.243025 0.611209 0
M  V30 28 C 3.574712 -3.496423 1.204455 0
M  V30 29 H 2.624923 -4.782989 4.390139 0
M  V30 30 H 2.706590 -6.571908 4.399491 0
M  V30 31 H 1.079782 -5.754270 4.258453 0
M  V30 32 H 0.230382 -4.202019 1.299882 0
M  V30 33 H 0.108676 -2.008357 0.266296 0
M  V30 34 H 2.999319 0.079516 -0.568833 0
M  V30 35 H 1.000232 1.262955 1.213917 0
M  V30 36 H 0.224303 2.614847 2.515320 0
M  V30 37 H -0.711546 4.215652 4.078095 0
M  V30 38 H -2.842715 5.388281 3.471938 0
M  V30 39 H -3.907118 4.907326 1.374959 0
M  V30 40 H -0.505817 -1.136573 -4.723211 0
M  V30 41 H 4.415585 -1.723817 0.433270 0
M  V30 42 H 4.497703 -3.983647 1.496251 0
M  V30 END ATOM
M  V30 BEGIN BOND
M  V30 1 1 1 2
M  V30 2 2 2 3
M  V30 3 2 2 4
M  V30 4 1 2 5
M  V30 5 2 5 6
M  V30 6 1 6 7
M  V30 7 2 7 8
M  V30 8 1 8 9
M  V30 9 1 9 10
M  V30 10 2 10 11
M  V30 11 1 11 12
M  V30 12 1 12 13
M  V30 13 2 13 14
M  V30 14 1 14 15
M  V30 15 2 15 16
M  V30 16 1 16 17
M  V30 17 2 17 18
M  V30 18 1 18 19
M  V30 19 2 12 20
M  V30 20 1 20 21
M  V30 21 2 21 22
M  V30 22 1 22 23
M  V30 23 1 22 24
M  V30 24 2 24 25
M  V30 25 1 25 26
M  V30 26 1 8 27
M  V30 27 2 27 28
M  V30 28 1 28 5
M  V30 29 1 26 10
M  V30 30 1 18 13
M  V30 31 1 26 21
M  V30 32 1 1 29
M  V30 33 1 1 30
M  V30 34 1 1 31
M  V30 35 1 6 32
M  V30 36 1 7 33
M  V30 37 1 9 34
M  V30 38 1 11 35
M  V30 39 1 14 36
M  V30 40 1 15 37
M  V30 41 1 16 38
M  V30 42 1 17 39
M  V30 43 1 24 40
M  V30 44 1 27 41
M  V30 45 1 28 42
M  V30 END BOND
M  V30 END CTAB
M  END
>  <Dataset>  (698) 
ChEMBL_Kinases

>  <Ligand_Instance>  (698) 
nan

>  <PDB_ID>  (698) 
nan

>  <Standardized_SMILES>  (698) 
CS(=O)(=O)c1ccc(Nc2cc(-c3ccccc3Cl)nc3c(Br)cnn23)cc1

>  <Name>  (698) 
nan

>  <Pocket>  (698) 
nan

>  <ATP_Site>  (698) 
nan

>  <Peripheral>  (698) 
nan

>  <Num_H_Atoms_ProtBoundConf>  (698) 
nan

>  <Num_Resolved_Atoms>  (698) 
nan

>  <Num_Not_Resolved_Atoms>  (698) 
nan

$$$$
CHEMBL9514
     RDKit          3D

  0  0  0  0  0  0  0  0  0  0999 V3000
M  V30 BEGIN CTAB
M  V30 COUNTS 32 34 0 0 0
M  V30 BEGIN ATOM
M  V30 1 C -1.198991 -4.330575 5.551336 0
M  V30 2 O -2.318408 -3.776554 4.830768 0
M  V30 3 C -2.135316 -3.202831 3.608369 0
M  V30 4 O -0.891470 -3.390600 3.545901 0
M  V30 5 N -2.810128 -2.560515 2.550476 0
M  V30 6 C -2.062727 -2.144463 1.414769 0
M  V30 7 N -1.471369 -0.918789 1.443841 0
M  V30 8 C -0.817131 -0.720168 0.280992 0
M  V30 9 C -0.067124 0.333801 -0.188900 0
M  V30 10 C 0.511782 0.292101 -1.438100 0
M  V30 11 C 1.353803 1.268105 -2.100464 0
M  V30 12 O 1.474940 1.373316 -3.333117 0
M  V30 13 C 2.143745 2.223606 -1.250648 0
M  V30 14 C 2.866687 3.203598 -1.744787 0
M  V30 15 C 3.588791 4.054010 -0.994185 0
M  V30 16 C 3.499217 3.796740 0.380754 0
M  V30 17 S 2.339975 2.296758 0.464372 0
M  V30 18 C 0.295101 -0.871689 -2.193093 0
M  V30 19 C -0.460964 -1.903733 -1.686177 0
M  V30 20 C -1.046336 -1.873518 -0.434505 0
M  V30 21 N -1.802170 -2.750116 0.241402 0
M  V30 22 H -1.546474 -4.782394 6.472197 0
M  V30 23 H -0.796662 -5.151109 4.906946 0
M  V30 24 H -0.390067 -3.560042 5.674619 0
M  V30 25 H -3.763260 -2.587731 2.956126 0
M  V30 26 H 0.105381 1.235435 0.371913 0
M  V30 27 H 3.006494 3.500095 -2.797837 0
M  V30 28 H 4.243636 4.903929 -1.058981 0
M  V30 29 H 3.920823 4.225472 1.425720 0
M  V30 30 H 0.699817 -1.025793 -3.204051 0
M  V30 31 H -0.631128 -2.812710 -2.268207 0
M  V30 32 H -2.142582 -3.687935 -0.020074 0
M  V30 END ATOM
M  V30 BEGIN BOND
M  V30 1 1 1 2
M  V30 2 1 2 3
M  V30 3 2 3 4
M  V30 4 1 3 5
M  V30 5 1 5 6
M  V30 6 2 6 7
M  V30 7 1 7 8
M  V30 8 2 8 9
M  V30 9 1 9 10
M  V30 10 1 10 11
M  V30 11 2 11 12
M  V30 12 1 11 13
M  V30 13 2 13 14
M  V30 14 1 14 15
M  V30 15 2 15 16
M  V30 16 1 16 17
M  V30 17 2 10 18
M  V30 18 1 18 19
M  V30 19 2 19 20
M  V30 20 1 20 21
M  V30 21 1 21 6
M  V30 22 1 20 8
M  V30 23 1 17 13
M  V30 24 1 1 22
M  V30 25 1 1 23
M  V30 26 1 1 24
M  V30 27 1 5 25
M  V30 28 1 9 26
M  V30 29 1 14 27
M  V30 30 1 15 28
M  V30 31 1 16 29
M  V30 32 1 18 30
M  V30 33 1 19 31
M  V30 34 1 21 32
M  V30 END BOND
M  V30 END CTAB
M  END
>  <Dataset>  (699) 
ChEMBL_Kinases

>  <Ligand_Instance>  (699) 
nan

>  <PDB_ID>  (699) 
nan

>  <Standardized_SMILES>  (699) 
COC(=O)Nc1nc2cc(C(=O)c3cccs3)ccc2[nH]1

>  <Name>  (699) 
NOCODAZOLE

>  <Pocket>  (699) 
nan

>  <ATP_Site>  (699) 
nan

>  <Peripheral>  (699) 
nan

>  <Num_H_Atoms_ProtBoundConf>  (699) 
nan

>  <Num_Resolved_Atoms>  (699) 
nan

>  <Num_Not_Resolved_Atoms>  (699) 
nan

$$$$
CHEMBL400127
     RDKit          3D

  0  0  0  0  0  0  0  0  0  0999 V3000
M  V30 BEGIN CTAB
M  V30 COUNTS 39 42 0 0 0
M  V30 BEGIN ATOM
M  V30 1 N 2.082775 -4.238710 3.824755 0
M  V30 2 C 1.760990 -3.392003 2.704410 0
M  V30 3 C 2.340456 -1.996934 2.824230 0
M  V30 4 C 1.931762 -1.235537 1.616750 0
M  V30 5 C 2.861135 -1.100825 0.605785 0
M  V30 6 C 2.508868 -0.418841 -0.539195 0
M  V30 7 C 3.481090 -0.317403 -1.515953 0
M  V30 8 C 3.115650 0.367267 -2.656963 0
M  V30 9 N 1.886812 0.928651 -2.861364 0
M  V30 10 C 0.986612 0.794068 -1.872279 0
M  V30 11 O -0.078778 1.350673 -2.195856 0
M  V30 12 C 1.261975 0.131364 -0.706309 0
M  V30 13 C 0.323228 0.013491 0.278088 0
M  V30 14 C -0.921087 0.560159 0.130808 0
M  V30 15 C -1.868223 0.449258 1.124430 0
M  V30 16 C -3.216919 0.997906 1.052090 0
M  V30 17 C -3.690616 1.694551 -0.042120 0
M  V30 18 C -5.002148 2.095859 0.165295 0
M  V30 19 N -5.300367 1.621760 1.410906 0
M  V30 20 N -4.252568 0.990780 1.903342 0
M  V30 21 C -1.469989 -0.249275 2.271055 0
M  V30 22 C -0.218454 -0.805936 2.432614 0
M  V30 23 C 0.694689 -0.668221 1.407968 0
M  V30 24 H 1.370828 -4.241510 4.569792 0
M  V30 25 H 2.347323 -5.206111 3.531626 0
M  V30 26 H 0.668434 -3.414778 2.559215 0
M  V30 27 H 2.173449 -3.892370 1.777744 0
M  V30 28 H 3.443982 -2.092065 2.863992 0
M  V30 29 H 2.051334 -1.505319 3.761831 0
M  V30 30 H 3.866588 -1.535825 0.722422 0
M  V30 31 H 4.470745 -0.736253 -1.419354 0
M  V30 32 H 3.881969 0.444674 -3.423882 0
M  V30 33 H 1.775137 1.411497 -3.779689 0
M  V30 34 H -1.306596 1.104533 -0.699587 0
M  V30 35 H -3.212473 1.955894 -0.981593 0
M  V30 36 H -5.745368 2.641385 -0.391773 0
M  V30 37 H -4.187612 0.520980 2.848443 0
M  V30 38 H -2.200700 -0.352744 3.077608 0
M  V30 39 H -0.026967 -1.314895 3.366834 0
M  V30 END ATOM
M  V30 BEGIN BOND
M  V30 1 1 1 2
M  V30 2 1 2 3
M  V30 3 1 3 4
M  V30 4 2 4 5
M  V30 5 1 5 6
M  V30 6 1 6 7
M  V30 7 2 7 8
M  V30 8 1 8 9
M  V30 9 1 9 10
M  V30 10 2 10 11
M  V30 11 1 10 12
M  V30 12 1 12 13
M  V30 13 2 13 14
M  V30 14 1 14 15
M  V30 15 1 15 16
M  V30 16 2 16 17
M  V30 17 1 17 18
M  V30 18 2 18 19
M  V30 19 1 19 20
M  V30 20 2 15 21
M  V30 21 1 21 22
M  V30 22 2 22 23
M  V30 23 1 23 4
M  V30 24 2 12 6
M  V30 25 1 23 13
M  V30 26 1 20 16
M  V30 27 1 1 24
M  V30 28 1 1 25
M  V30 29 1 2 26
M  V30 30 1 2 27
M  V30 31 1 3 28
M  V30 32 1 3 29
M  V30 33 1 5 30
M  V30 34 1 7 31
M  V30 35 1 8 32
M  V30 36 1 9 33
M  V30 37 1 14 34
M  V30 38 1 17 35
M  V30 39 1 18 36
M  V30 40 1 20 37
M  V30 41 1 21 38
M  V30 42 1 22 39
M  V30 END BOND
M  V30 END CTAB
M  END
>  <Dataset>  (700) 
ChEMBL_Kinases

>  <Ligand_Instance>  (700) 
nan

>  <PDB_ID>  (700) 
nan

>  <Standardized_SMILES>  (700) 
NCCc1cc2cc[nH]c(=O)c2c2cc(-c3ccn[nH]3)ccc12

>  <Name>  (700) 
nan

>  <Pocket>  (700) 
nan

>  <ATP_Site>  (700) 
nan

>  <Peripheral>  (700) 
nan

>  <Num_H_Atoms_ProtBoundConf>  (700) 
nan

>  <Num_Resolved_Atoms>  (700) 
nan

>  <Num_Not_Resolved_Atoms>  (700) 
nan

$$$$
CHEMBL99780
     RDKit          3D

  0  0  0  0  0  0  0  0  0  0999 V3000
M  V30 BEGIN CTAB
M  V30 COUNTS 32 34 0 0 0
M  V30 BEGIN ATOM
M  V30 1 C 0.043219 -2.534472 4.905698 0
M  V30 2 O 1.328884 -2.936049 4.406358 0
M  V30 3 C 1.725318 -2.517058 3.126473 0
M  V30 4 C 2.970474 -2.947121 2.727788 0
M  V30 5 C 3.377940 -2.547393 1.476388 0
M  V30 6 C 2.489839 -1.749984 0.743091 0
M  V30 7 S 2.711806 -1.041746 -0.957902 0
M  V30 8 C 1.160125 -0.257323 -0.976632 0
M  V30 9 C 0.570397 -0.544377 0.231410 0
M  V30 10 C 1.250503 -1.308132 1.111393 0
M  V30 11 C 0.884884 -1.734954 2.375568 0
M  V30 12 N -0.749466 -0.027874 0.533494 0
M  V30 13 C -1.430548 1.140952 -0.047201 0
M  V30 14 C -1.740521 0.912308 -1.513592 0 CFG=1
M  V30 15 C -2.930519 1.662885 -2.009937 0
M  V30 16 N -0.531639 1.269601 -2.272599 0
M  V30 17 C 0.704437 0.532249 -2.142729 0
M  V30 18 O 1.536128 0.515758 -3.091291 0
M  V30 19 H -0.660775 -2.936012 4.117938 0
M  V30 20 H -0.216587 -3.057088 5.822350 0
M  V30 21 H -0.088012 -1.447066 4.894376 0
M  V30 22 H 3.654095 -3.559684 3.289652 0
M  V30 23 H 4.327841 -2.808963 1.034267 0
M  V30 24 H -0.065476 -1.476462 2.824779 0
M  V30 25 H -1.283752 -0.575985 1.275002 0
M  V30 26 H -2.387835 1.244378 0.478339 0
M  V30 27 H -0.832925 2.038409 0.099917 0
M  V30 28 H -1.963864 -0.173772 -1.619071 0
M  V30 29 H -3.658291 1.792127 -1.184504 0
M  V30 30 H -2.641184 2.615687 -2.501444 0
M  V30 31 H -3.437159 1.063980 -2.793926 0
M  V30 32 H -0.419450 2.048883 -2.956077 0
M  V30 END ATOM
M  V30 BEGIN BOND
M  V30 1 1 1 2
M  V30 2 1 2 3
M  V30 3 2 3 4
M  V30 4 1 4 5
M  V30 5 2 5 6
M  V30 6 1 6 7
M  V30 7 1 7 8
M  V30 8 2 8 9
M  V30 9 1 9 10
M  V30 10 2 10 11
M  V30 11 1 9 12
M  V30 12 1 12 13
M  V30 13 1 13 14
M  V30 14 1 14 15
M  V30 15 1 14 16
M  V30 16 1 16 17
M  V30 17 2 17 18
M  V30 18 1 11 3
M  V30 19 1 10 6
M  V30 20 1 17 8
M  V30 21 1 1 19
M  V30 22 1 1 20
M  V30 23 1 1 21
M  V30 24 1 4 22
M  V30 25 1 5 23
M  V30 26 1 11 24
M  V30 27 1 12 25
M  V30 28 1 13 26
M  V30 29 1 13 27
M  V30 30 1 14 28 CFG=1
M  V30 31 1 15 29
M  V30 32 1 15 30
M  V30 33 1 15 31
M  V30 34 1 16 32
M  V30 END BOND
M  V30 END CTAB
M  END
>  <Dataset>  (701) 
ChEMBL_Kinases

>  <Ligand_Instance>  (701) 
nan

>  <PDB_ID>  (701) 
nan

>  <Standardized_SMILES>  (701) 
COc1ccc2sc3c(c2c1)NC[C@@H](C)NC3=O

>  <Name>  (701) 
nan

>  <Pocket>  (701) 
nan

>  <ATP_Site>  (701) 
nan

>  <Peripheral>  (701) 
nan

>  <Num_H_Atoms_ProtBoundConf>  (701) 
nan

>  <Num_Resolved_Atoms>  (701) 
nan

>  <Num_Not_Resolved_Atoms>  (701) 
nan

$$$$
CHEMBL95758
     RDKit          3D

  0  0  0  0  0  0  0  0  0  0999 V3000
M  V30 BEGIN CTAB
M  V30 COUNTS 42 43 0 0 0
M  V30 BEGIN ATOM
M  V30 1 N 2.753873 0.029467 5.447406 0
M  V30 2 C 2.573527 0.002986 4.310186 0
M  V30 3 C 2.329930 -0.014539 2.899733 0
M  V30 4 C 3.129312 -0.652497 2.093385 0
M  V30 5 N 4.283500 -1.374059 2.546676 0
M  V30 6 S 3.497268 -1.028793 0.425247 0
M  V30 7 C 2.401051 -0.303586 -0.745755 0
M  V30 8 C 1.275732 -0.844890 -1.364731 0
M  V30 9 C 0.532344 -0.105468 -2.255941 0
M  V30 10 C 0.913823 1.187989 -2.534523 0
M  V30 11 C 2.012237 1.765452 -1.952376 0
M  V30 12 C 2.758382 1.015082 -1.054065 0
M  V30 13 N 3.876821 1.726855 -0.515836 0
M  V30 14 C 1.210028 0.581824 2.207625 0
M  V30 15 C 1.289120 2.034585 2.123049 0
M  V30 16 N 1.335183 3.207894 2.044659 0
M  V30 17 C 0.116701 0.053300 1.630926 0
M  V30 18 N -0.885491 0.865832 0.984110 0
M  V30 19 S 0.066969 -1.737657 1.877387 0
M  V30 20 C -1.593860 -2.273277 1.504559 0
M  V30 21 C -2.354590 -2.208264 2.680839 0
M  V30 22 C -3.708113 -2.572571 2.693550 0
M  V30 23 C -4.327165 -3.007403 1.536956 0
M  V30 24 C -3.550774 -3.059632 0.397877 0
M  V30 25 C -2.220491 -2.706362 0.364962 0
M  V30 26 N -1.353764 -2.729960 -0.740013 0
M  V30 27 H 4.882442 -2.128564 2.946187 0
M  V30 28 H 5.336106 -1.333801 2.658242 0
M  V30 29 H 1.221954 -1.858131 -0.968941 0
M  V30 30 H -0.289655 -0.691376 -2.624751 0
M  V30 31 H 0.257385 1.683543 -3.252236 0
M  V30 32 H 2.224235 2.777665 -2.236430 0
M  V30 33 H 3.630615 2.543011 0.112363 0
M  V30 34 H 4.893647 1.495794 -0.700539 0
M  V30 35 H -1.849486 1.172778 1.298360 0
M  V30 36 H -0.708008 1.267309 0.022687 0
M  V30 37 H -2.069296 -1.898768 3.686663 0
M  V30 38 H -4.361199 -2.551274 3.553826 0
M  V30 39 H -5.364700 -3.306129 1.462163 0
M  V30 40 H -3.927352 -3.384174 -0.565844 0
M  V30 41 H -0.559459 -3.430076 -0.641419 0
M  V30 42 H -1.813887 -2.002659 -1.324508 0
M  V30 END ATOM
M  V30 BEGIN BOND
M  V30 1 3 1 2
M  V30 2 1 2 3
M  V30 3 2 3 4
M  V30 4 1 4 5
M  V30 5 1 4 6
M  V30 6 1 6 7
M  V30 7 2 7 8
M  V30 8 1 8 9
M  V30 9 2 9 10
M  V30 10 1 10 11
M  V30 11 2 11 12
M  V30 12 1 12 13
M  V30 13 1 3 14
M  V30 14 1 14 15
M  V30 15 3 15 16
M  V30 16 2 14 17
M  V30 17 1 17 18
M  V30 18 1 17 19
M  V30 19 1 19 20
M  V30 20 2 20 21
M  V30 21 1 21 22
M  V30 22 2 22 23
M  V30 23 1 23 24
M  V30 24 2 24 25
M  V30 25 1 25 26
M  V30 26 1 12 7
M  V30 27 1 25 20
M  V30 28 1 5 27
M  V30 29 1 5 28
M  V30 30 1 8 29
M  V30 31 1 9 30
M  V30 32 1 10 31
M  V30 33 1 11 32
M  V30 34 1 13 33
M  V30 35 1 13 34
M  V30 36 1 18 35
M  V30 37 1 18 36
M  V30 38 1 21 37
M  V30 39 1 22 38
M  V30 40 1 23 39
M  V30 41 1 24 40
M  V30 42 1 26 41
M  V30 43 1 26 42
M  V30 END BOND
M  V30 END CTAB
M  END
>  <Dataset>  (702) 
ChEMBL_Kinases

>  <Ligand_Instance>  (702) 
nan

>  <PDB_ID>  (702) 
nan

>  <Standardized_SMILES>  (702) 
N#CC(=C(\N)Sc1ccccc1N)/C(C#N)=C(/N)Sc1ccccc1N

>  <Name>  (702) 
nan

>  <Pocket>  (702) 
nan

>  <ATP_Site>  (702) 
nan

>  <Peripheral>  (702) 
nan

>  <Num_H_Atoms_ProtBoundConf>  (702) 
nan

>  <Num_Resolved_Atoms>  (702) 
nan

>  <Num_Not_Resolved_Atoms>  (702) 
nan

$$$$
CHEMBL399078
     RDKit          3D

  0  0  0  0  0  0  0  0  0  0999 V3000
M  V30 BEGIN CTAB
M  V30 COUNTS 33 35 0 0 0
M  V30 BEGIN ATOM
M  V30 1 C -1.110097 -2.509908 4.909819 0
M  V30 2 N -1.079740 -3.095575 3.566021 0
M  V30 3 C -0.698752 -2.056043 2.655951 0
M  V30 4 C 0.540143 -1.673651 2.180395 0
M  V30 5 C 0.585998 -0.609844 1.304240 0
M  V30 6 N 1.882507 -0.268985 0.854340 0
M  V30 7 C 2.512508 -0.696128 -0.397234 0
M  V30 8 C 1.709961 -0.192008 -1.562603 0
M  V30 9 C 0.697779 -0.852603 -2.231024 0
M  V30 10 C 0.057021 -0.210118 -3.278233 0
M  V30 11 C 0.434411 1.068036 -3.636582 0
M  V30 12 N 1.419296 1.723173 -2.993893 0
M  V30 13 C 2.033906 1.097712 -1.983145 0
M  V30 14 N -0.538850 0.028791 0.927716 0
M  V30 15 N -0.693728 1.055223 0.103663 0
M  V30 16 C -2.001428 1.351444 0.030251 0
M  V30 17 C -2.721240 0.490318 0.832454 0
M  V30 18 Br -4.597178 0.379462 1.166078 0
M  V30 19 C -1.750989 -0.346617 1.394368 0
M  V30 20 N -1.799209 -1.389032 2.253990 0
M  V30 21 H -0.119298 -2.091541 5.141375 0
M  V30 22 H -1.493135 -3.234316 5.658151 0
M  V30 23 H -1.818994 -1.630061 4.868855 0
M  V30 24 H -1.324416 -4.108717 3.481825 0
M  V30 25 H 1.325655 -2.288137 2.581080 0
M  V30 26 H 2.299294 0.348142 1.593479 0
M  V30 27 H 2.595719 -1.800508 -0.413486 0
M  V30 28 H 3.507957 -0.248433 -0.441164 0
M  V30 29 H 0.489078 -1.842600 -1.865590 0
M  V30 30 H -0.724416 -0.751765 -3.772935 0
M  V30 31 H -0.061506 1.574445 -4.452022 0
M  V30 32 H 2.828960 1.660557 -1.481898 0
M  V30 33 H -2.446238 2.137215 -0.559134 0
M  V30 END ATOM
M  V30 BEGIN BOND
M  V30 1 1 1 2
M  V30 2 1 2 3
M  V30 3 1 3 4
M  V30 4 2 4 5
M  V30 5 1 5 6
M  V30 6 1 6 7
M  V30 7 1 7 8
M  V30 8 2 8 9
M  V30 9 1 9 10
M  V30 10 2 10 11
M  V30 11 1 11 12
M  V30 12 2 12 13
M  V30 13 1 5 14
M  V30 14 1 14 15
M  V30 15 2 15 16
M  V30 16 1 16 17
M  V30 17 1 17 18
M  V30 18 2 17 19
M  V30 19 1 19 20
M  V30 20 2 20 3
M  V30 21 1 13 8
M  V30 22 1 19 14
M  V30 23 1 1 21
M  V30 24 1 1 22
M  V30 25 1 1 23
M  V30 26 1 2 24
M  V30 27 1 4 25
M  V30 28 1 6 26
M  V30 29 1 7 27
M  V30 30 1 7 28
M  V30 31 1 9 29
M  V30 32 1 10 30
M  V30 33 1 11 31
M  V30 34 1 13 32
M  V30 35 1 16 33
M  V30 END BOND
M  V30 END CTAB
M  END
>  <Dataset>  (703) 
ChEMBL_Kinases

>  <Ligand_Instance>  (703) 
nan

>  <PDB_ID>  (703) 
nan

>  <Standardized_SMILES>  (703) 
CNc1cc(NCc2cccnc2)n2ncc(Br)c2n1

>  <Name>  (703) 
nan

>  <Pocket>  (703) 
nan

>  <ATP_Site>  (703) 
nan

>  <Peripheral>  (703) 
nan

>  <Num_H_Atoms_ProtBoundConf>  (703) 
nan

>  <Num_Resolved_Atoms>  (703) 
nan

>  <Num_Not_Resolved_Atoms>  (703) 
nan

$$$$
CHEMBL3990606
     RDKit          3D

  0  0  0  0  0  0  0  0  0  0999 V3000
M  V30 BEGIN CTAB
M  V30 COUNTS 56 60 0 0 0
M  V30 BEGIN ATOM
M  V30 1 C 4.785163 -1.922091 1.620290 0
M  V30 2 N 3.927149 -0.756162 1.733052 0
M  V30 3 C 4.291021 0.029523 2.898578 0
M  V30 4 C 4.015361 0.071155 0.520635 0
M  V30 5 C 3.128854 1.256912 0.643266 0
M  V30 6 N 3.324449 2.503479 1.125909 0
M  V30 7 N 2.151309 3.136291 0.971028 0
M  V30 8 C 1.224880 2.338869 0.410362 0
M  V30 9 C -0.156458 2.697967 0.097889 0
M  V30 10 C -0.544927 4.003143 0.419435 0
M  V30 11 C -1.860314 4.296066 0.103848 0
M  V30 12 C -2.753263 3.420568 -0.475968 0
M  V30 13 N -4.040209 3.507821 -0.853475 0
M  V30 14 N -4.359881 2.328763 -1.356065 0
M  V30 15 C -3.315958 1.474065 -1.316776 0
M  V30 16 C -3.315299 0.096111 -1.789470 0
M  V30 17 C -3.885112 -0.177103 -3.035259 0
M  V30 18 C -3.882133 -1.494618 -3.483949 0
M  V30 19 C -3.328978 -2.526993 -2.722122 0
M  V30 20 C -2.761094 -2.266932 -1.484344 0
M  V30 21 C -2.197678 -3.365242 -0.727684 0
M  V30 22 O -2.249891 -4.495385 -1.277528 0
M  V30 23 N -1.606678 -3.279096 0.548271 0
M  V30 24 C -1.040242 -4.267981 1.351998 0
M  V30 25 C -0.908734 -5.602721 1.079459 0
M  V30 26 C -0.351994 -6.560191 1.881158 0
M  V30 27 C 0.140075 -6.140430 3.116947 0
M  V30 28 F 0.704015 -7.039116 3.958949 0
M  V30 29 C 0.038782 -4.808039 3.453057 0
M  V30 30 C -0.537876 -3.909944 2.583893 0
M  V30 31 C -2.790647 -0.970786 -1.096828 0
M  V30 32 C -2.246413 2.172043 -0.740625 0
M  V30 33 C -0.963497 1.741674 -0.482249 0
M  V30 34 N 1.860005 1.168952 0.214761 0
M  V30 35 H 4.629101 -2.460470 0.675463 0
M  V30 36 H 5.849442 -1.667934 1.806713 0
M  V30 37 H 4.483193 -2.613679 2.446050 0
M  V30 38 H 5.364736 0.343459 2.805487 0
M  V30 39 H 4.255962 -0.642803 3.773193 0
M  V30 40 H 3.603354 0.862748 3.036544 0
M  V30 41 H 3.818714 -0.510403 -0.380216 0
M  V30 42 H 5.061557 0.440258 0.500659 0
M  V30 43 H 2.055428 4.129999 1.276719 0
M  V30 44 H 0.135423 4.698037 0.870604 0
M  V30 45 H -2.198250 5.300187 0.339141 0
M  V30 46 H -4.593796 4.383152 -0.730537 0
M  V30 47 H -4.327051 0.571014 -3.670504 0
M  V30 48 H -4.323833 -1.703362 -4.448934 0
M  V30 49 H -3.386489 -3.510431 -3.177375 0
M  V30 50 H -1.630941 -2.285399 0.886064 0
M  V30 51 H -1.270788 -5.977678 0.141078 0
M  V30 52 H -0.278939 -7.598449 1.605461 0
M  V30 53 H 0.407736 -4.444037 4.399836 0
M  V30 54 H -0.591456 -2.863097 2.904064 0
M  V30 55 H -2.366825 -0.697767 -0.141839 0
M  V30 56 H -0.566559 0.780220 -0.685270 0
M  V30 END ATOM
M  V30 BEGIN BOND
M  V30 1 1 1 2
M  V30 2 1 2 3
M  V30 3 1 2 4
M  V30 4 1 4 5
M  V30 5 2 5 6
M  V30 6 1 6 7
M  V30 7 1 7 8
M  V30 8 1 8 9
M  V30 9 2 9 10
M  V30 10 1 10 11
M  V30 11 2 11 12
M  V30 12 1 12 13
M  V30 13 1 13 14
M  V30 14 2 14 15
M  V30 15 1 15 16
M  V30 16 2 16 17
M  V30 17 1 17 18
M  V30 18 2 18 19
M  V30 19 1 19 20
M  V30 20 1 20 21
M  V30 21 2 21 22
M  V30 22 1 21 23
M  V30 23 1 23 24
M  V30 24 2 24 25
M  V30 25 1 25 26
M  V30 26 2 26 27
M  V30 27 1 27 28
M  V30 28 1 27 29
M  V30 29 2 29 30
M  V30 30 2 20 31
M  V30 31 1 15 32
M  V30 32 2 32 33
M  V30 33 2 8 34
M  V30 34 1 34 5
M  V30 35 1 33 9
M  V30 36 1 32 12
M  V30 37 1 31 16
M  V30 38 1 30 24
M  V30 39 1 1 35
M  V30 40 1 1 36
M  V30 41 1 1 37
M  V30 42 1 3 38
M  V30 43 1 3 39
M  V30 44 1 3 40
M  V30 45 1 4 41
M  V30 46 1 4 42
M  V30 47 1 7 43
M  V30 48 1 10 44
M  V30 49 1 11 45
M  V30 50 1 13 46
M  V30 51 1 17 47
M  V30 52 1 18 48
M  V30 53 1 19 49
M  V30 54 1 23 50
M  V30 55 1 25 51
M  V30 56 1 26 52
M  V30 57 1 29 53
M  V30 58 1 30 54
M  V30 59 1 31 55
M  V30 60 1 33 56
M  V30 END BOND
M  V30 END CTAB
M  END
>  <Dataset>  (704) 
ChEMBL_Kinases

>  <Ligand_Instance>  (704) 
nan

>  <PDB_ID>  (704) 
nan

>  <Standardized_SMILES>  (704) 
CN(C)Cc1n[nH]c(-c2ccc3[nH]nc(-c4cccc(C(=O)Nc5ccc(F)cc5)c4)c3c2)n1

>  <Name>  (704) 
nan

>  <Pocket>  (704) 
nan

>  <ATP_Site>  (704) 
nan

>  <Peripheral>  (704) 
nan

>  <Num_H_Atoms_ProtBoundConf>  (704) 
nan

>  <Num_Resolved_Atoms>  (704) 
nan

>  <Num_Not_Resolved_Atoms>  (704) 
nan

$$$$
CHEMBL4866866
     RDKit          3D

  0  0  0  0  0  0  0  0  0  0999 V3000
M  V30 BEGIN CTAB
M  V30 COUNTS 38 41 0 0 0
M  V30 BEGIN ATOM
M  V30 1 O -2.512828 -1.079771 3.439353 0
M  V30 2 C -1.657822 -1.525596 2.632892 0
M  V30 3 N -1.325895 -2.828612 2.606187 0
M  V30 4 C -0.419672 -3.333191 1.759215 0
M  V30 5 C 0.243788 -2.542359 0.844875 0
M  V30 6 N 1.210390 -3.101468 -0.029751 0
M  V30 7 C 1.739783 -2.686477 -1.278502 0
M  V30 8 C 2.962904 -3.141422 -1.726883 0
M  V30 9 C 3.469092 -2.751061 -2.944588 0
M  V30 10 C 2.797830 -1.899207 -3.772762 0
M  V30 11 F 3.330093 -1.542005 -4.957674 0
M  V30 12 C 1.580718 -1.423350 -3.368528 0
M  V30 13 C 1.093881 -1.828598 -2.144632 0
M  V30 14 C -0.106412 -1.215231 0.885837 0
M  V30 15 C -1.036356 -0.667857 1.747192 0
M  V30 16 C -1.359170 0.762591 1.731791 0
M  V30 17 C -2.353758 1.336143 0.959365 0
M  V30 18 C -2.526905 2.698493 1.063565 0
M  V30 19 C -1.728356 3.465333 1.915769 0
M  V30 20 C -0.740310 2.878653 2.679921 0
M  V30 21 N 0.143186 3.412437 3.563314 0
M  V30 22 C 0.908624 2.411501 4.052009 0
M  V30 23 C 0.482132 1.250164 3.454729 0
M  V30 24 C -0.557749 1.502161 2.581383 0
M  V30 25 H -1.800624 -3.489776 3.284537 0
M  V30 26 H -0.205000 -4.402037 1.799345 0
M  V30 27 H 1.626380 -4.020016 0.317480 0
M  V30 28 H 3.516479 -3.822716 -1.081839 0
M  V30 29 H 4.437249 -3.133745 -3.259136 0
M  V30 30 H 1.046720 -0.749136 -4.021261 0
M  V30 31 H 0.125899 -1.417592 -1.907021 0
M  V30 32 H 0.354323 -0.503979 0.226826 0
M  V30 33 H -2.930797 0.680360 0.324335 0
M  V30 34 H -3.314665 3.167395 0.454526 0
M  V30 35 H -1.871142 4.542188 1.992883 0
M  V30 36 H 0.240731 4.416274 3.839480 0
M  V30 37 H 1.715153 2.484754 4.780172 0
M  V30 38 H 0.896828 0.275623 3.637777 0
M  V30 END ATOM
M  V30 BEGIN BOND
M  V30 1 2 1 2
M  V30 2 1 2 3
M  V30 3 1 3 4
M  V30 4 2 4 5
M  V30 5 1 5 6
M  V30 6 1 6 7
M  V30 7 2 7 8
M  V30 8 1 8 9
M  V30 9 2 9 10
M  V30 10 1 10 11
M  V30 11 1 10 12
M  V30 12 2 12 13
M  V30 13 1 5 14
M  V30 14 2 14 15
M  V30 15 1 15 16
M  V30 16 2 16 17
M  V30 17 1 17 18
M  V30 18 2 18 19
M  V30 19 1 19 20
M  V30 20 1 20 21
M  V30 21 1 21 22
M  V30 22 2 22 23
M  V30 23 1 23 24
M  V30 24 1 15 2
M  V30 25 1 24 16
M  V30 26 1 13 7
M  V30 27 2 24 20
M  V30 28 1 3 25
M  V30 29 1 4 26
M  V30 30 1 6 27
M  V30 31 1 8 28
M  V30 32 1 9 29
M  V30 33 1 12 30
M  V30 34 1 13 31
M  V30 35 1 14 32
M  V30 36 1 17 33
M  V30 37 1 18 34
M  V30 38 1 19 35
M  V30 39 1 21 36
M  V30 40 1 22 37
M  V30 41 1 23 38
M  V30 END BOND
M  V30 END CTAB
M  END
>  <Dataset>  (705) 
ChEMBL_Kinases

>  <Ligand_Instance>  (705) 
nan

>  <PDB_ID>  (705) 
nan

>  <Standardized_SMILES>  (705) 
O=c1[nH]cc(Nc2ccc(F)cc2)cc1-c1cccc2[nH]ccc12

>  <Name>  (705) 
nan

>  <Pocket>  (705) 
nan

>  <ATP_Site>  (705) 
nan

>  <Peripheral>  (705) 
nan

>  <Num_H_Atoms_ProtBoundConf>  (705) 
nan

>  <Num_Resolved_Atoms>  (705) 
nan

>  <Num_Not_Resolved_Atoms>  (705) 
nan

$$$$
CHEMBL399023
     RDKit          3D

  0  0  0  0  0  0  0  0  0  0999 V3000
M  V30 BEGIN CTAB
M  V30 COUNTS 30 32 0 0 0
M  V30 BEGIN ATOM
M  V30 1 C -0.494213 -3.101666 4.920605 0
M  V30 2 O -0.433389 -2.031889 4.002207 0
M  V30 3 C -0.028012 -2.204950 2.698086 0
M  V30 4 O 0.162489 -3.438739 2.843253 0
M  V30 5 C 0.173416 -1.455205 1.500593 0
M  V30 6 C 0.619840 -2.191728 0.423766 0
M  V30 7 C 0.841017 -1.547709 -0.773192 0
M  V30 8 C 1.294609 -2.319397 -1.851995 0
M  V30 9 C 1.501161 -1.629216 -3.028207 0
M  V30 10 N 1.288611 -0.286283 -3.168012 0
M  V30 11 C 0.850425 0.441943 -2.114508 0
M  V30 12 O 0.726674 1.586053 -2.434117 0
M  V30 13 C 0.628775 -0.196212 -0.919710 0
M  V30 14 C 0.185810 0.555827 0.134817 0
M  V30 15 C -0.032990 1.903092 0.014004 0
M  V30 16 C -0.480485 2.646996 1.089700 0
M  V30 17 Br -0.826516 4.519515 1.068385 0
M  V30 18 C -0.698351 1.970693 2.296301 0
M  V30 19 C -0.475409 0.614543 2.408476 0
M  V30 20 C -0.029279 -0.104887 1.321461 0
M  V30 21 H -0.606056 -2.624762 5.939077 0
M  V30 22 H 0.425679 -3.720653 4.954063 0
M  V30 23 H -1.399762 -3.718221 4.803665 0
M  V30 24 H 0.809295 -3.274400 0.473201 0
M  V30 25 H 1.462233 -3.367932 -1.748655 0
M  V30 26 H 1.850457 -2.253245 -3.839377 0
M  V30 27 H 1.508685 0.044663 -4.155291 0
M  V30 28 H 0.089216 2.505842 -0.809693 0
M  V30 29 H -1.048518 2.507663 3.167715 0
M  V30 30 H -0.662536 0.153123 3.366286 0
M  V30 END ATOM
M  V30 BEGIN BOND
M  V30 1 1 1 2
M  V30 2 1 2 3
M  V30 3 2 3 4
M  V30 4 1 3 5
M  V30 5 2 5 6
M  V30 6 1 6 7
M  V30 7 1 7 8
M  V30 8 2 8 9
M  V30 9 1 9 10
M  V30 10 1 10 11
M  V30 11 2 11 12
M  V30 12 1 11 13
M  V30 13 1 13 14
M  V30 14 2 14 15
M  V30 15 1 15 16
M  V30 16 1 16 17
M  V30 17 2 16 18
M  V30 18 1 18 19
M  V30 19 2 19 20
M  V30 20 1 20 5
M  V30 21 2 13 7
M  V30 22 1 20 14
M  V30 23 1 1 21
M  V30 24 1 1 22
M  V30 25 1 1 23
M  V30 26 1 6 24
M  V30 27 1 8 25
M  V30 28 1 9 26
M  V30 29 1 10 27
M  V30 30 1 15 28
M  V30 31 1 18 29
M  V30 32 1 19 30
M  V30 END BOND
M  V30 END CTAB
M  END
>  <Dataset>  (706) 
ChEMBL_Kinases

>  <Ligand_Instance>  (706) 
nan

>  <PDB_ID>  (706) 
nan

>  <Standardized_SMILES>  (706) 
COC(=O)c1cc2cc[nH]c(=O)c2c2cc(Br)ccc12

>  <Name>  (706) 
nan

>  <Pocket>  (706) 
nan

>  <ATP_Site>  (706) 
nan

>  <Peripheral>  (706) 
nan

>  <Num_H_Atoms_ProtBoundConf>  (706) 
nan

>  <Num_Resolved_Atoms>  (706) 
nan

>  <Num_Not_Resolved_Atoms>  (706) 
nan

$$$$
CHEMBL94678
     RDKit          3D

  0  0  0  0  0  0  0  0  0  0999 V3000
M  V30 BEGIN CTAB
M  V30 COUNTS 56 63 0 0 0
M  V30 BEGIN ATOM
M  V30 1 C 4.411354 1.207683 2.607354 0
M  V30 2 O 3.564675 0.088458 2.850194 0
M  V30 3 C 2.497921 -0.226575 2.017352 0
M  V30 4 O 2.481184 0.643507 1.094341 0
M  V30 5 C 1.653082 -1.394854 2.313211 0 CFG=2
M  V30 6 O 2.095915 -2.043244 3.469125 0
M  V30 7 C 1.673359 -2.448079 1.251114 0
M  V30 8 C 0.287484 -3.035746 1.430179 0 CFG=1
M  V30 9 O -0.398459 -2.303011 2.339315 0
M  V30 10 C 0.202413 -1.044848 2.532273 0 CFG=1
M  V30 11 C 0.118575 -0.673186 3.997047 0
M  V30 12 N -0.335511 -0.072282 1.625150 0
M  V30 13 C -0.589587 1.241693 1.680700 0
M  V30 14 C -0.328189 2.103421 2.718399 0
M  V30 15 C -0.659524 3.431438 2.581214 0
M  V30 16 C -1.245243 3.959867 1.451652 0
M  V30 17 C -1.500269 3.082176 0.419033 0
M  V30 18 C -1.172546 1.754630 0.548134 0
M  V30 19 C -1.293382 0.674860 -0.293173 0
M  V30 20 C -1.795059 0.537631 -1.571199 0
M  V30 21 C -1.801783 -0.676126 -2.220593 0
M  V30 22 C -1.302697 -1.738020 -1.577401 0
M  V30 23 C -1.155488 -3.038331 -1.947572 0
M  V30 24 C -1.410969 -3.851216 -3.009190 0
M  V30 25 C -1.137775 -5.194344 -3.103290 0
M  V30 26 C -0.532869 -5.821054 -2.007369 0
M  V30 27 C -0.249250 -5.037220 -0.894707 0
M  V30 28 C -0.560863 -3.696804 -0.893830 0
M  V30 29 N -0.342127 -2.833299 0.108483 0
M  V30 30 C -0.800985 -1.615774 -0.305846 0
M  V30 31 C -0.782709 -0.409384 0.374682 0
M  V30 32 C -2.382347 -0.482092 -3.510203 0
M  V30 33 O -2.632145 -1.198720 -4.482463 0
M  V30 34 N -2.742422 0.879371 -3.662494 0
M  V30 35 C -2.393076 1.598790 -2.455372 0
M  V30 36 H 5.415063 1.041721 3.050880 0
M  V30 37 H 4.606180 1.335575 1.510364 0
M  V30 38 H 4.015306 2.150907 3.005401 0
M  V30 39 H 1.478056 -2.826736 3.606733 0
M  V30 40 H 1.853607 -1.954931 0.299377 0
M  V30 41 H 2.474845 -3.196906 1.383447 0
M  V30 42 H 0.402455 -4.093164 1.664968 0
M  V30 43 H -0.859131 -0.230883 4.263218 0
M  V30 44 H 0.048409 -1.639652 4.624482 0
M  V30 45 H 1.012270 -0.231355 4.422080 0
M  V30 46 H 0.138228 1.741971 3.613820 0
M  V30 47 H -0.459060 4.118203 3.390867 0
M  V30 48 H -1.508681 5.000484 1.335594 0
M  V30 49 H -1.964670 3.408796 -0.522304 0
M  V30 50 H -1.869017 -3.454970 -3.882430 0
M  V30 51 H -1.360642 -5.799344 -3.971537 0
M  V30 52 H -0.281298 -6.852137 -1.979704 0
M  V30 53 H 0.215315 -5.513155 -0.050126 0
M  V30 54 H -3.179832 1.440426 -4.414953 0
M  V30 55 H -1.674923 2.383661 -2.689745 0
M  V30 56 H -3.319665 1.996312 -2.011837 0
M  V30 END ATOM
M  V30 BEGIN BOND
M  V30 1 1 1 2
M  V30 2 1 2 3
M  V30 3 2 3 4
M  V30 4 1 3 5
M  V30 5 1 5 6 CFG=1
M  V30 6 1 5 7
M  V30 7 1 7 8
M  V30 8 1 8 9
M  V30 9 1 9 10
M  V30 10 1 10 11 CFG=1
M  V30 11 1 10 12
M  V30 12 1 12 13
M  V30 13 2 13 14
M  V30 14 1 14 15
M  V30 15 2 15 16
M  V30 16 1 16 17
M  V30 17 2 17 18
M  V30 18 1 18 19
M  V30 19 2 19 20
M  V30 20 1 20 21
M  V30 21 2 21 22
M  V30 22 1 22 23
M  V30 23 2 23 24
M  V30 24 1 24 25
M  V30 25 2 25 26
M  V30 26 1 26 27
M  V30 27 2 27 28
M  V30 28 1 28 29
M  V30 29 1 29 30
M  V30 30 2 30 31
M  V30 31 1 21 32
M  V30 32 2 32 33
M  V30 33 1 32 34
M  V30 34 1 34 35
M  V30 35 1 10 5
M  V30 36 1 31 12
M  V30 37 1 29 8
M  V30 38 1 18 13
M  V30 39 1 31 19
M  V30 40 1 35 20
M  V30 41 1 30 22
M  V30 42 1 28 23
M  V30 43 1 1 36
M  V30 44 1 1 37
M  V30 45 1 1 38
M  V30 46 1 6 39
M  V30 47 1 7 40
M  V30 48 1 7 41
M  V30 49 1 8 42 CFG=1
M  V30 50 1 11 43
M  V30 51 1 11 44
M  V30 52 1 11 45
M  V30 53 1 14 46
M  V30 54 1 15 47
M  V30 55 1 16 48
M  V30 56 1 17 49
M  V30 57 1 24 50
M  V30 58 1 25 51
M  V30 59 1 26 52
M  V30 60 1 27 53
M  V30 61 1 34 54
M  V30 62 1 35 55
M  V30 63 1 35 56
M  V30 END BOND
M  V30 END CTAB
M  END
>  <Dataset>  (707) 
ChEMBL_Kinases

>  <Ligand_Instance>  (707) 
nan

>  <PDB_ID>  (707) 
nan

>  <Standardized_SMILES>  (707) 
COC(=O)[C@]1(O)C[C@H]2O[C@]1(C)n1c3ccccc3c3c4c(c5c6ccccc6n2c5c31)C(=O)NC4

>  <Name>  (707) 
nan

>  <Pocket>  (707) 
nan

>  <ATP_Site>  (707) 
nan

>  <Peripheral>  (707) 
nan

>  <Num_H_Atoms_ProtBoundConf>  (707) 
nan

>  <Num_Resolved_Atoms>  (707) 
nan

>  <Num_Not_Resolved_Atoms>  (707) 
nan

$$$$
CHEMBL399012
     RDKit          3D

  0  0  0  0  0  0  0  0  0  0999 V3000
M  V30 BEGIN CTAB
M  V30 COUNTS 41 45 0 0 0
M  V30 BEGIN ATOM
M  V30 1 O 4.010852 -4.265255 6.989289 0
M  V30 2 C 3.607262 -3.521235 5.888095 0
M  V30 3 C 4.488476 -2.719082 5.178350 0
M  V30 4 C 4.059822 -1.977628 4.071380 0
M  V30 5 C 2.762492 -2.026674 3.663763 0
M  V30 6 C 2.289785 -1.253718 2.499536 0
M  V30 7 C 3.142579 -1.002015 1.426155 0
M  V30 8 C 2.609608 -0.270313 0.384565 0
M  V30 9 C 1.304086 0.178417 0.421399 0
M  V30 10 C 0.626544 0.958210 -0.614895 0
M  V30 11 N 1.133064 2.031631 -1.276574 0
M  V30 12 N 0.245713 2.491096 -2.144932 0
M  V30 13 C -0.855297 1.720754 -2.060949 0
M  V30 14 C -0.668363 0.727870 -1.101561 0
M  V30 15 C -1.866551 -0.128471 -0.994755 0
M  V30 16 C -2.763996 0.501293 -2.014554 0
M  V30 17 C -4.034139 0.031515 -2.279310 0
M  V30 18 C -4.805157 0.680501 -3.249208 0
M  V30 19 C -4.245756 1.769091 -3.896374 0
M  V30 20 C -2.957001 2.223620 -3.608602 0
M  V30 21 C -2.191731 1.584546 -2.650306 0
M  V30 22 C 0.468094 -0.089047 1.513454 0
M  V30 23 C 0.980397 -0.820283 2.568282 0
M  V30 24 C 1.857606 -2.830387 4.366939 0
M  V30 25 C 2.293024 -3.567683 5.471046 0
M  V30 26 H 3.517555 -5.153073 7.136327 0
M  V30 27 H 5.524688 -2.665676 5.485909 0
M  V30 28 H 4.717757 -1.345538 3.498793 0
M  V30 29 H 4.145771 -1.353144 1.410191 0
M  V30 30 H 3.171793 -0.018276 -0.488445 0
M  V30 31 H 0.357208 3.306008 -2.792052 0
M  V30 32 H -2.309815 -0.162685 0.000506 0
M  V30 33 H -1.615808 -1.171756 -1.275902 0
M  V30 34 H -4.520704 -0.794576 -1.821150 0
M  V30 35 H -5.805274 0.352076 -3.493478 0
M  V30 36 H -4.801050 2.302066 -4.651437 0
M  V30 37 H -2.501610 3.069643 -4.100888 0
M  V30 38 H -0.560315 0.237944 1.593551 0
M  V30 39 H 0.354312 -1.038955 3.421153 0
M  V30 40 H 0.823436 -2.908572 4.091832 0
M  V30 41 H 1.563479 -4.178291 5.989936 0
M  V30 END ATOM
M  V30 BEGIN BOND
M  V30 1 1 1 2
M  V30 2 2 2 3
M  V30 3 1 3 4
M  V30 4 2 4 5
M  V30 5 1 5 6
M  V30 6 2 6 7
M  V30 7 1 7 8
M  V30 8 2 8 9
M  V30 9 1 9 10
M  V30 10 2 10 11
M  V30 11 1 11 12
M  V30 12 1 12 13
M  V30 13 2 13 14
M  V30 14 1 14 15
M  V30 15 1 15 16
M  V30 16 2 16 17
M  V30 17 1 17 18
M  V30 18 2 18 19
M  V30 19 1 19 20
M  V30 20 2 20 21
M  V30 21 1 9 22
M  V30 22 2 22 23
M  V30 23 1 5 24
M  V30 24 2 24 25
M  V30 25 1 25 2
M  V30 26 1 23 6
M  V30 27 1 14 10
M  V30 28 1 21 16
M  V30 29 1 21 13
M  V30 30 1 1 26
M  V30 31 1 3 27
M  V30 32 1 4 28
M  V30 33 1 7 29
M  V30 34 1 8 30
M  V30 35 1 12 31
M  V30 36 1 15 32
M  V30 37 1 15 33
M  V30 38 1 17 34
M  V30 39 1 18 35
M  V30 40 1 19 36
M  V30 41 1 20 37
M  V30 42 1 22 38
M  V30 43 1 23 39
M  V30 44 1 24 40
M  V30 45 1 25 41
M  V30 END BOND
M  V30 END CTAB
M  END
>  <Dataset>  (708) 
ChEMBL_Kinases

>  <Ligand_Instance>  (708) 
nan

>  <PDB_ID>  (708) 
nan

>  <Standardized_SMILES>  (708) 
Oc1ccc(-c2ccc(-c3n[nH]c4c3Cc3ccccc3-4)cc2)cc1

>  <Name>  (708) 
nan

>  <Pocket>  (708) 
nan

>  <ATP_Site>  (708) 
nan

>  <Peripheral>  (708) 
nan

>  <Num_H_Atoms_ProtBoundConf>  (708) 
nan

>  <Num_Resolved_Atoms>  (708) 
nan

>  <Num_Not_Resolved_Atoms>  (708) 
nan

$$$$
CHEMBL4866896
     RDKit          3D

  0  0  0  0  0  0  0  0  0  0999 V3000
M  V30 BEGIN CTAB
M  V30 COUNTS 57 62 0 0 0
M  V30 BEGIN ATOM
M  V30 1 C 0.605609 -3.785807 5.300435 0
M  V30 2 O 0.644926 -2.569211 4.571324 0
M  V30 3 C 1.301716 -2.545163 3.343465 0
M  V30 4 C 1.907445 -3.700820 2.840998 0
M  V30 5 C 2.547146 -3.604712 1.603904 0
M  V30 6 C 2.631307 -2.467105 0.837537 0
M  V30 7 C 2.030215 -1.337848 1.346891 0
M  V30 8 C 1.391668 -1.399264 2.562444 0
M  V30 9 C 0.729954 -0.268280 3.167274 0
M  V30 10 O -0.314379 -0.288925 3.864394 0
M  V30 11 N 0.744279 1.118689 3.357739 0
M  V30 12 C -0.086903 2.073846 4.054496 0
M  V30 13 C -1.447194 2.062343 3.533559 0
M  V30 14 C -2.770972 2.442589 3.872761 0
M  V30 15 C -3.788291 2.227453 3.024640 0
M  V30 16 C -3.479851 1.621300 1.813803 0
M  V30 17 S -1.647730 1.308399 1.810856 0
M  V30 18 C -4.177767 1.242013 0.715489 0
M  V30 19 N -5.482779 1.295286 0.510495 0
M  V30 20 C -6.063231 0.888781 -0.618293 0
M  V30 21 N -5.373004 0.379337 -1.670061 0
M  V30 22 C -4.025128 0.257594 -1.619324 0
M  V30 23 C -3.111087 -0.202690 -2.495426 0
M  V30 24 C -1.819618 -0.186168 -2.124422 0
M  V30 25 S -1.698974 0.447400 -0.563492 0
M  V30 26 C -3.567417 0.697505 -0.441494 0
M  V30 27 C -0.538665 -0.612512 -2.819032 0
M  V30 28 C -0.501632 -0.736695 -4.189492 0
M  V30 29 N 0.658725 -1.115434 -4.764297 0
M  V30 30 C 1.729406 -1.354440 -3.957657 0
M  V30 31 O 2.938712 -1.745791 -4.529094 0
M  V30 32 C 3.029779 -1.887913 -5.946408 0
M  V30 33 C 1.737167 -1.241082 -2.561888 0
M  V30 34 C 0.545480 -0.854536 -2.002195 0
M  V30 35 N 2.917038 -1.526232 -1.853142 0
M  V30 36 S 3.481945 -2.611299 -0.666515 0
M  V30 37 O 4.953405 -2.403525 -0.407152 0
M  V30 38 O 3.368174 -4.035645 -1.182064 0
M  V30 39 H 0.144240 -4.608371 4.696028 0
M  V30 40 H 0.050530 -3.666246 6.256299 0
M  V30 41 H 1.610618 -4.144741 5.599470 0
M  V30 42 H 1.873631 -4.628584 3.398362 0
M  V30 43 H 2.996327 -4.555238 1.280298 0
M  V30 44 H 2.025797 -0.381806 0.842904 0
M  V30 45 H 1.608570 1.257834 2.792084 0
M  V30 46 H -0.071284 1.748405 5.133032 0
M  V30 47 H 0.395883 3.067441 4.033576 0
M  V30 48 H -2.806457 2.898687 4.846695 0
M  V30 49 H -4.796289 2.505451 3.259379 0
M  V30 50 H -7.154791 0.933876 -0.789971 0
M  V30 51 H -3.395611 -0.577185 -3.470064 0
M  V30 52 H -1.415266 -0.521701 -4.746851 0
M  V30 53 H 2.047002 -2.322091 -6.295719 0
M  V30 54 H 3.791991 -2.635354 -6.221879 0
M  V30 55 H 3.124680 -0.920172 -6.466359 0
M  V30 56 H 0.444999 -0.734938 -0.936494 0
M  V30 57 H 3.587971 -0.810455 -2.240758 0
M  V30 END ATOM
M  V30 BEGIN BOND
M  V30 1 1 1 2
M  V30 2 1 2 3
M  V30 3 2 3 4
M  V30 4 1 4 5
M  V30 5 2 5 6
M  V30 6 1 6 7
M  V30 7 2 7 8
M  V30 8 1 8 9
M  V30 9 2 9 10
M  V30 10 1 9 11
M  V30 11 1 11 12
M  V30 12 1 12 13
M  V30 13 2 13 14
M  V30 14 1 14 15
M  V30 15 2 15 16
M  V30 16 1 16 17
M  V30 17 1 16 18
M  V30 18 2 18 19
M  V30 19 1 19 20
M  V30 20 2 20 21
M  V30 21 1 21 22
M  V30 22 1 22 23
M  V30 23 2 23 24
M  V30 24 1 24 25
M  V30 25 1 25 26
M  V30 26 1 24 27
M  V30 27 2 27 28
M  V30 28 1 28 29
M  V30 29 2 29 30
M  V30 30 1 30 31
M  V30 31 1 31 32
M  V30 32 1 30 33
M  V30 33 2 33 34
M  V30 34 1 33 35
M  V30 35 1 35 36
M  V30 36 2 36 37
M  V30 37 2 36 38
M  V30 38 1 8 3
M  V30 39 1 17 13
M  V30 40 1 26 18
M  V30 41 1 34 27
M  V30 42 1 36 6
M  V30 43 2 26 22
M  V30 44 1 1 39
M  V30 45 1 1 40
M  V30 46 1 1 41
M  V30 47 1 4 42
M  V30 48 1 5 43
M  V30 49 1 7 44
M  V30 50 1 11 45
M  V30 51 1 12 46
M  V30 52 1 12 47
M  V30 53 1 14 48
M  V30 54 1 15 49
M  V30 55 1 20 50
M  V30 56 1 23 51
M  V30 57 1 28 52
M  V30 58 1 32 53
M  V30 59 1 32 54
M  V30 60 1 32 55
M  V30 61 1 34 56
M  V30 62 1 35 57
M  V30 END BOND
M  V30 END CTAB
M  END
>  <Dataset>  (709) 
ChEMBL_Kinases

>  <Ligand_Instance>  (709) 
nan

>  <PDB_ID>  (709) 
nan

>  <Standardized_SMILES>  (709) 
COc1ccc2cc1C(=O)NCc1ccc(s1)-c1ncnc3cc(sc13)-c1cnc(OC)c(c1)NS2(=O)=O

>  <Name>  (709) 
nan

>  <Pocket>  (709) 
nan

>  <ATP_Site>  (709) 
nan

>  <Peripheral>  (709) 
nan

>  <Num_H_Atoms_ProtBoundConf>  (709) 
nan

>  <Num_Resolved_Atoms>  (709) 
nan

>  <Num_Not_Resolved_Atoms>  (709) 
nan

$$$$
CHEMBL4866921
     RDKit          3D

  0  0  0  0  0  0  0  0  0  0999 V3000
M  V30 BEGIN CTAB
M  V30 COUNTS 49 52 0 0 0
M  V30 BEGIN ATOM
M  V30 1 C 4.638222 1.240119 3.546492 0
M  V30 2 O 3.317975 1.026439 3.176302 0
M  V30 3 C 2.959448 1.347936 1.824528 0
M  V30 4 N 3.326928 1.807501 0.604099 0
M  V30 5 N 2.239928 1.765558 -0.155051 0
M  V30 6 C 2.475591 2.196243 -1.470759 0
M  V30 7 C 3.514266 1.653763 -2.221639 0
M  V30 8 N 3.637804 2.097744 -3.482614 0
M  V30 9 C 2.751042 3.028617 -3.931984 0
M  V30 10 C 1.715775 3.594176 -3.232813 0
M  V30 11 N 1.634449 3.124067 -1.989156 0
M  V30 12 C 1.304994 1.266050 0.731335 0
M  V30 13 C 1.763922 0.958765 2.132031 0
M  V30 14 C 0.402740 0.524080 2.457096 0
M  V30 15 O 0.808120 0.151314 3.634433 0
M  V30 16 N -0.913313 0.320396 2.203544 0
M  V30 17 C -2.220475 -0.070264 2.369861 0
M  V30 18 C -3.196733 0.603886 3.003837 0
M  V30 19 C -4.396604 -0.061221 2.934149 0
M  V30 20 C -4.552720 -1.264271 2.286545 0
M  V30 21 C -3.533675 -1.920416 1.647807 0
M  V30 22 C -3.601192 -3.185335 0.879738 0
M  V30 23 N -4.686164 -3.818280 0.414771 0
M  V30 24 N -4.267191 -4.888428 -0.244142 0
M  V30 25 C -2.954056 -4.893139 -0.172022 0
M  V30 26 N -2.463661 -3.829831 0.535325 0
M  V30 27 C -1.067810 -3.715151 0.694879 0 CFG=1
M  V30 28 C -0.505855 -5.099635 1.041009 0
M  V30 29 C -0.271627 -3.171548 -0.424228 0
M  V30 30 F -0.346814 -3.839806 -1.613538 0
M  V30 31 F 1.082052 -3.393880 -0.029432 0
M  V30 32 F -0.333784 -1.806583 -0.497070 0
M  V30 33 N -2.302492 -1.273502 1.704228 0
M  V30 34 H 4.757785 1.149092 4.660661 0
M  V30 35 H 4.971110 2.249933 3.197317 0
M  V30 36 H 5.278717 0.469903 3.039865 0
M  V30 37 H 4.121963 0.925392 -1.717509 0
M  V30 38 H 3.029133 3.244311 -4.973666 0
M  V30 39 H 1.128048 4.316668 -3.768868 0
M  V30 40 H 0.464928 1.299199 -0.051256 0
M  V30 41 H -0.983558 0.827995 1.275358 0
M  V30 42 H -3.003553 1.541475 3.490254 0
M  V30 43 H -5.280974 0.372718 3.415999 0
M  V30 44 H -5.499071 -1.761264 2.248283 0
M  V30 45 H -2.430747 -5.707010 -0.670043 0
M  V30 46 H -0.790168 -3.076599 1.586816 0
M  V30 47 H 0.067689 -5.494021 0.146545 0
M  V30 48 H 0.170874 -5.113896 1.889728 0
M  V30 49 H -1.368364 -5.826712 1.118557 0
M  V30 END ATOM
M  V30 BEGIN BOND
M  V30 1 1 1 2
M  V30 2 1 2 3
M  V30 3 2 3 4
M  V30 4 1 4 5
M  V30 5 1 5 6
M  V30 6 2 6 7
M  V30 7 1 7 8
M  V30 8 2 8 9
M  V30 9 1 9 10
M  V30 10 2 10 11
M  V30 11 1 5 12
M  V30 12 2 12 13
M  V30 13 1 13 14
M  V30 14 2 14 15
M  V30 15 1 14 16
M  V30 16 1 16 17
M  V30 17 2 17 18
M  V30 18 1 18 19
M  V30 19 2 19 20
M  V30 20 1 20 21
M  V30 21 1 21 22
M  V30 22 2 22 23
M  V30 23 1 23 24
M  V30 24 2 24 25
M  V30 25 1 25 26
M  V30 26 1 26 27
M  V30 27 1 27 28
M  V30 28 1 27 29
M  V30 29 1 29 30
M  V30 30 1 29 31
M  V30 31 1 29 32
M  V30 32 2 21 33
M  V30 33 1 13 3
M  V30 34 1 33 17
M  V30 35 1 11 6
M  V30 36 1 26 22
M  V30 37 1 1 34
M  V30 38 1 1 35
M  V30 39 1 1 36
M  V30 40 1 7 37
M  V30 41 1 9 38
M  V30 42 1 10 39
M  V30 43 1 12 40
M  V30 44 1 16 41
M  V30 45 1 18 42
M  V30 46 1 19 43
M  V30 47 1 20 44
M  V30 48 1 25 45
M  V30 49 1 27 46 CFG=1
M  V30 50 1 28 47
M  V30 51 1 28 48
M  V30 52 1 28 49
M  V30 END BOND
M  V30 END CTAB
M  END
>  <Dataset>  (710) 
ChEMBL_Kinases

>  <Ligand_Instance>  (710) 
nan

>  <PDB_ID>  (710) 
nan

>  <Standardized_SMILES>  (710) 
COc1nn(-c2cnccn2)cc1C(=O)Nc1cccc(-c2nncn2[C@@H](C)C(F)(F)F)n1

>  <Name>  (710) 
nan

>  <Pocket>  (710) 
nan

>  <ATP_Site>  (710) 
nan

>  <Peripheral>  (710) 
nan

>  <Num_H_Atoms_ProtBoundConf>  (710) 
nan

>  <Num_Resolved_Atoms>  (710) 
nan

>  <Num_Not_Resolved_Atoms>  (710) 
nan

$$$$
CHEMBL3989868
     RDKit          3D

  0  0  0  0  0  0  0  0  0  0999 V3000
M  V30 BEGIN CTAB
M  V30 COUNTS 60 65 0 0 0
M  V30 BEGIN ATOM
M  V30 1 C -0.540968 -3.879287 2.064906 0
M  V30 2 C 0.713470 -3.237801 1.663893 0
M  V30 3 C 1.058149 -2.139953 2.422532 0
M  V30 4 C 2.213481 -1.412226 2.188071 0
M  V30 5 N 2.672735 -0.282227 2.929061 0
M  V30 6 C 3.528729 0.637769 2.257648 0
M  V30 7 N 4.834232 0.530387 1.970477 0
M  V30 8 C 5.494149 1.524662 1.326178 0
M  V30 9 N 4.776797 2.605491 0.998237 0
M  V30 10 C 3.485335 2.798090 1.242092 0
M  V30 11 C 2.830019 3.973966 0.862826 0
M  V30 12 C 1.487713 4.133104 1.146149 0
M  V30 13 C 0.789782 3.151523 1.795310 0
M  V30 14 N -0.608468 3.196809 2.153511 0
M  V30 15 C -1.698265 2.683506 1.409346 0
M  V30 16 N -1.490115 1.706313 0.580284 0
M  V30 17 C -2.723614 1.333103 -0.073611 0
M  V30 18 C -3.239874 -0.001818 0.454773 0
M  V30 19 C -2.606680 1.230180 -1.569743 0
M  V30 20 C -3.707388 2.388582 0.355971 0
M  V30 21 O -3.029411 3.055001 1.401604 0
M  V30 22 C 1.465695 2.008981 2.152749 0
M  V30 23 C 2.794186 1.773959 1.908074 0
M  V30 24 C 2.987895 -1.890946 1.122862 0
M  V30 25 C 2.704667 -2.980545 0.324623 0
M  V30 26 C 1.538555 -3.652663 0.618223 0
M  V30 27 O 1.190511 -4.759424 -0.140439 0
M  V30 28 C 0.047405 -4.782943 -0.921194 0
M  V30 29 C -0.739172 -3.631816 -1.063413 0
M  V30 30 C -1.912285 -3.543436 -1.826611 0
M  V30 31 N -2.290350 -4.670049 -2.463104 0
M  V30 32 N -3.356334 -4.833319 -3.240631 0
M  V30 33 C -3.366581 -6.102500 -3.679239 0
M  V30 34 N -2.266180 -6.706234 -3.137739 0
M  V30 35 C -1.586439 -5.828568 -2.378901 0
M  V30 36 C -0.443457 -5.860411 -1.616990 0
M  V30 37 H -0.662142 -3.906504 3.186324 0
M  V30 38 H -0.670862 -4.902095 1.728751 0
M  V30 39 H -1.461240 -3.311886 1.723138 0
M  V30 40 H 0.470632 -1.741885 3.263035 0
M  V30 41 H 2.320640 -0.257979 3.906438 0
M  V30 42 H 6.547003 1.371724 1.127592 0
M  V30 43 H 3.355481 4.760463 0.351906 0
M  V30 44 H 0.936121 5.016110 0.878073 0
M  V30 45 H -0.830008 3.670604 3.082287 0
M  V30 46 H -2.799474 -0.203200 1.457849 0
M  V30 47 H -3.010477 -0.850089 -0.206846 0
M  V30 48 H -4.336620 0.063935 0.523760 0
M  V30 49 H -3.038341 0.256388 -1.937124 0
M  V30 50 H -3.148270 2.041260 -2.094781 0
M  V30 51 H -1.555127 1.247527 -1.941889 0
M  V30 52 H -3.902405 3.028026 -0.523486 0
M  V30 53 H -4.666213 1.931085 0.730554 0
M  V30 54 H 0.950741 1.221279 2.662917 0
M  V30 55 H 3.926167 -1.370960 0.866500 0
M  V30 56 H 3.354949 -3.275155 -0.470819 0
M  V30 57 H -0.440916 -2.703155 -0.553548 0
M  V30 58 H -2.434598 -2.594004 -1.860495 0
M  V30 59 H -4.085551 -6.582755 -4.329143 0
M  V30 60 H 0.129261 -6.788958 -1.543905 0
M  V30 END ATOM
M  V30 BEGIN BOND
M  V30 1 1 1 2
M  V30 2 2 2 3
M  V30 3 1 3 4
M  V30 4 1 4 5
M  V30 5 1 5 6
M  V30 6 2 6 7
M  V30 7 1 7 8
M  V30 8 2 8 9
M  V30 9 1 9 10
M  V30 10 2 10 11
M  V30 11 1 11 12
M  V30 12 2 12 13
M  V30 13 1 13 14
M  V30 14 1 14 15
M  V30 15 2 15 16
M  V30 16 1 16 17
M  V30 17 1 17 18
M  V30 18 1 17 19
M  V30 19 1 17 20
M  V30 20 1 20 21
M  V30 21 1 13 22
M  V30 22 2 22 23
M  V30 23 2 4 24
M  V30 24 1 24 25
M  V30 25 2 25 26
M  V30 26 1 26 27
M  V30 27 1 27 28
M  V30 28 1 28 29
M  V30 29 2 29 30
M  V30 30 1 30 31
M  V30 31 1 31 32
M  V30 32 2 32 33
M  V30 33 1 33 34
M  V30 34 2 34 35
M  V30 35 1 35 36
M  V30 36 1 26 2
M  V30 37 2 36 28
M  V30 38 1 23 6
M  V30 39 1 35 31
M  V30 40 1 23 10
M  V30 41 1 21 15
M  V30 42 1 1 37
M  V30 43 1 1 38
M  V30 44 1 1 39
M  V30 45 1 3 40
M  V30 46 1 5 41
M  V30 47 1 8 42
M  V30 48 1 11 43
M  V30 49 1 12 44
M  V30 50 1 14 45
M  V30 51 1 18 46
M  V30 52 1 18 47
M  V30 53 1 18 48
M  V30 54 1 19 49
M  V30 55 1 19 50
M  V30 56 1 19 51
M  V30 57 1 20 52
M  V30 58 1 20 53
M  V30 59 1 22 54
M  V30 60 1 24 55
M  V30 61 1 25 56
M  V30 62 1 29 57
M  V30 63 1 30 58
M  V30 64 1 33 59
M  V30 65 1 36 60
M  V30 END BOND
M  V30 END CTAB
M  END
>  <Dataset>  (711) 
ChEMBL_Kinases

>  <Ligand_Instance>  (711) 
nan

>  <PDB_ID>  (711) 
nan

>  <Standardized_SMILES>  (711) 
Cc1cc(Nc2ncnc3ccc(NC4=NC(C)(C)CO4)cc23)ccc1Oc1ccn2ncnc2c1

>  <Name>  (711) 
TUCATINIB

>  <Pocket>  (711) 
nan

>  <ATP_Site>  (711) 
nan

>  <Peripheral>  (711) 
nan

>  <Num_H_Atoms_ProtBoundConf>  (711) 
nan

>  <Num_Resolved_Atoms>  (711) 
nan

>  <Num_Not_Resolved_Atoms>  (711) 
nan

$$$$
CHEMBL398887
     RDKit          3D

  0  0  0  0  0  0  0  0  0  0999 V3000
M  V30 BEGIN CTAB
M  V30 COUNTS 62 66 0 0 0
M  V30 BEGIN ATOM
M  V30 1 C 0.987736 -0.203811 5.532594 0
M  V30 2 C 1.572278 0.390631 4.295435 0
M  V30 3 C 1.297480 -0.340995 3.139398 0
M  V30 4 C 1.792602 0.124393 1.942627 0
M  V30 5 C 2.540572 1.259808 1.794262 0
M  V30 6 C 3.101395 1.834700 0.553952 0
M  V30 7 N 2.204168 2.811966 -0.025633 0
M  V30 8 C 0.880943 2.606822 -0.487350 0
M  V30 9 N 0.173427 3.644808 -1.011237 0
M  V30 10 C -1.081452 3.479167 -1.456152 0
M  V30 11 C -1.713028 2.259455 -1.405753 0
M  V30 12 C -1.005529 1.201685 -0.877147 0
M  V30 13 C -1.409389 -0.187677 -0.695452 0
M  V30 14 C -2.477817 -0.470671 0.158215 0
M  V30 15 C -3.315405 0.457443 0.949183 0
M  V30 16 C -2.677309 1.213322 1.923708 0
M  V30 17 C -3.374563 2.109610 2.716707 0
M  V30 18 C -4.746194 2.230943 2.505717 0
M  V30 19 F -5.420609 3.110534 3.286520 0
M  V30 20 C -5.401623 1.491183 1.544319 0
M  V30 21 C -4.690235 0.603279 0.763803 0
M  V30 22 N -2.604930 -1.813874 0.119828 0
M  V30 23 C -1.680782 -2.352697 -0.702374 0
M  V30 24 C -1.416915 -3.658753 -1.059652 0
M  V30 25 C -0.362493 -3.871111 -1.954110 0
M  V30 26 C -0.057882 -5.256478 -2.352581 0
M  V30 27 N 0.905147 -5.884351 -1.470728 0
M  V30 28 C 2.162847 -5.186687 -1.447526 0
M  V30 29 C 1.028894 -7.292756 -1.706108 0
M  V30 30 C 0.374023 -2.796462 -2.448820 0
M  V30 31 C 0.083103 -1.502486 -2.070445 0
M  V30 32 N -0.948014 -1.346869 -1.201191 0
M  V30 33 N 0.243790 1.450326 -0.454419 0
M  V30 34 C 2.796349 1.965848 2.968788 0
M  V30 35 C 2.320895 1.540937 4.204128 0
M  V30 36 H 1.659860 -1.014404 5.928964 0
M  V30 37 H -0.007971 -0.661041 5.306014 0
M  V30 38 H 0.903678 0.563471 6.333280 0
M  V30 39 H 0.713439 -1.261902 3.121239 0
M  V30 40 H 1.593795 -0.434510 1.044160 0
M  V30 41 H 3.178109 0.962775 -0.163281 0
M  V30 42 H 4.120831 2.209707 0.669580 0
M  V30 43 H 2.606285 3.788246 -0.102788 0
M  V30 44 H -1.658000 4.290053 -1.874687 0
M  V30 45 H -2.712061 1.994608 -1.727880 0
M  V30 46 H -1.616577 1.108204 2.074811 0
M  V30 47 H -2.843528 2.688028 3.473090 0
M  V30 48 H -6.479310 1.596879 1.389642 0
M  V30 49 H -5.150714 -0.003359 -0.005649 0
M  V30 50 H -2.015510 -4.432110 -0.647006 0
M  V30 51 H 0.378481 -5.203806 -3.389897 0
M  V30 52 H -0.998585 -5.839301 -2.314415 0
M  V30 53 H 2.079678 -4.303885 -0.768242 0
M  V30 54 H 2.484958 -4.833065 -2.459680 0
M  V30 55 H 2.973831 -5.821966 -1.037111 0
M  V30 56 H 1.989719 -7.547310 -2.197093 0
M  V30 57 H 1.030368 -7.895873 -0.755728 0
M  V30 58 H 0.184679 -7.686546 -2.343876 0
M  V30 59 H 1.187833 -2.934176 -3.137306 0
M  V30 60 H 0.657571 -0.693329 -2.459412 0
M  V30 61 H 3.370174 2.881356 3.026957 0
M  V30 62 H 2.486305 2.039829 5.127518 0
M  V30 END ATOM
M  V30 BEGIN BOND
M  V30 1 1 1 2
M  V30 2 2 2 3
M  V30 3 1 3 4
M  V30 4 2 4 5
M  V30 5 1 5 6
M  V30 6 1 6 7
M  V30 7 1 7 8
M  V30 8 2 8 9
M  V30 9 1 9 10
M  V30 10 2 10 11
M  V30 11 1 11 12
M  V30 12 1 12 13
M  V30 13 2 13 14
M  V30 14 1 14 15
M  V30 15 2 15 16
M  V30 16 1 16 17
M  V30 17 2 17 18
M  V30 18 1 18 19
M  V30 19 1 18 20
M  V30 20 2 20 21
M  V30 21 1 14 22
M  V30 22 2 22 23
M  V30 23 1 23 24
M  V30 24 2 24 25
M  V30 25 1 25 26
M  V30 26 1 26 27
M  V30 27 1 27 28
M  V30 28 1 27 29
M  V30 29 1 25 30
M  V30 30 2 30 31
M  V30 31 1 31 32
M  V30 32 2 12 33
M  V30 33 1 5 34
M  V30 34 2 34 35
M  V30 35 1 35 2
M  V30 36 1 33 8
M  V30 37 1 32 13
M  V30 38 1 21 15
M  V30 39 1 32 23
M  V30 40 1 1 36
M  V30 41 1 1 37
M  V30 42 1 1 38
M  V30 43 1 3 39
M  V30 44 1 4 40
M  V30 45 1 6 41
M  V30 46 1 6 42
M  V30 47 1 7 43
M  V30 48 1 10 44
M  V30 49 1 11 45
M  V30 50 1 16 46
M  V30 51 1 17 47
M  V30 52 1 20 48
M  V30 53 1 21 49
M  V30 54 1 24 50
M  V30 55 1 26 51
M  V30 56 1 26 52
M  V30 57 1 28 53
M  V30 58 1 28 54
M  V30 59 1 28 55
M  V30 60 1 29 56
M  V30 61 1 29 57
M  V30 62 1 29 58
M  V30 63 1 30 59
M  V30 64 1 31 60
M  V30 65 1 34 61
M  V30 66 1 35 62
M  V30 END BOND
M  V30 END CTAB
M  END
>  <Dataset>  (712) 
ChEMBL_Kinases

>  <Ligand_Instance>  (712) 
nan

>  <PDB_ID>  (712) 
nan

>  <Standardized_SMILES>  (712) 
Cc1ccc(CNc2nccc(-c3c(-c4ccc(F)cc4)nc4cc(CN(C)C)ccn34)n2)cc1

>  <Name>  (712) 
nan

>  <Pocket>  (712) 
nan

>  <ATP_Site>  (712) 
nan

>  <Peripheral>  (712) 
nan

>  <Num_H_Atoms_ProtBoundConf>  (712) 
nan

>  <Num_Resolved_Atoms>  (712) 
nan

>  <Num_Not_Resolved_Atoms>  (712) 
nan

$$$$
CHEMBL398833
     RDKit          3D

  0  0  0  0  0  0  0  0  0  0999 V3000
M  V30 BEGIN CTAB
M  V30 COUNTS 38 41 0 0 0
M  V30 BEGIN ATOM
M  V30 1 N -1.447460 -1.752143 5.369427 0
M  V30 2 C -0.847245 -2.466605 4.272752 0
M  V30 3 N -0.583758 -3.789552 4.384863 0
M  V30 4 C -0.020712 -4.393471 3.317139 0
M  V30 5 C 0.241199 -3.644123 2.214624 0
M  V30 6 C -0.020556 -2.293525 2.081880 0
M  V30 7 C 0.322325 -1.633512 0.827270 0
M  V30 8 C 0.903507 -2.253066 -0.275310 0
M  V30 9 C 1.085128 -1.342563 -1.265379 0
M  V30 10 C 0.618901 -0.130727 -0.800715 0
M  V30 11 N 0.160214 -0.329557 0.472614 0
M  V30 12 C -0.398378 0.719744 1.275174 0
M  V30 13 C 0.417844 1.919097 1.547665 0
M  V30 14 C -0.651818 2.841887 1.005528 0
M  V30 15 C -1.433670 1.606895 0.612061 0
M  V30 16 C 0.713126 1.012627 -1.732948 0
M  V30 17 C 1.884383 0.814765 -2.675501 0
M  V30 18 N 1.765918 -0.404667 -3.441591 0
M  V30 19 C 1.683436 -1.572967 -2.597106 0
M  V30 20 O 2.087486 -2.709907 -2.957221 0
M  V30 21 N -0.569945 -1.771429 3.163199 0
M  V30 22 H -2.404287 -1.354521 5.495482 0
M  V30 23 H -0.996241 -1.491319 6.291035 0
M  V30 24 H 0.176931 -5.440240 3.433230 0
M  V30 25 H 0.695596 -4.250531 1.422929 0
M  V30 26 H 1.165056 -3.320821 -0.310347 0
M  V30 27 H -0.854461 0.315786 2.201943 0
M  V30 28 H 1.420710 2.004081 1.101452 0
M  V30 29 H 0.530211 2.130609 2.635555 0
M  V30 30 H -1.141495 3.510917 1.751056 0
M  V30 31 H -0.325849 3.470205 0.150311 0
M  V30 32 H -1.513104 1.529725 -0.484292 0
M  V30 33 H -2.425267 1.659126 1.135645 0
M  V30 34 H 0.949947 1.980283 -1.243954 0
M  V30 35 H -0.180346 1.078022 -2.397968 0
M  V30 36 H 1.932225 1.701910 -3.348783 0
M  V30 37 H 2.803476 0.804521 -2.058326 0
M  V30 38 H 1.731690 -0.576088 -4.491212 0
M  V30 END ATOM
M  V30 BEGIN BOND
M  V30 1 1 1 2
M  V30 2 2 2 3
M  V30 3 1 3 4
M  V30 4 2 4 5
M  V30 5 1 5 6
M  V30 6 1 6 7
M  V30 7 2 7 8
M  V30 8 1 8 9
M  V30 9 2 9 10
M  V30 10 1 10 11
M  V30 11 1 11 12
M  V30 12 1 12 13
M  V30 13 1 13 14
M  V30 14 1 14 15
M  V30 15 1 10 16
M  V30 16 1 16 17
M  V30 17 1 17 18
M  V30 18 1 18 19
M  V30 19 2 19 20
M  V30 20 2 6 21
M  V30 21 1 21 2
M  V30 22 1 11 7
M  V30 23 1 15 12
M  V30 24 1 19 9
M  V30 25 1 1 22
M  V30 26 1 1 23
M  V30 27 1 4 24
M  V30 28 1 5 25
M  V30 29 1 8 26
M  V30 30 1 12 27
M  V30 31 1 13 28
M  V30 32 1 13 29
M  V30 33 1 14 30
M  V30 34 1 14 31
M  V30 35 1 15 32
M  V30 36 1 15 33
M  V30 37 1 16 34
M  V30 38 1 16 35
M  V30 39 1 17 36
M  V30 40 1 17 37
M  V30 41 1 18 38
M  V30 END BOND
M  V30 END CTAB
M  END
>  <Dataset>  (713) 
ChEMBL_Kinases

>  <Ligand_Instance>  (713) 
nan

>  <PDB_ID>  (713) 
nan

>  <Standardized_SMILES>  (713) 
Nc1nccc(-c2cc3c(n2C2CCC2)CCNC3=O)n1

>  <Name>  (713) 
nan

>  <Pocket>  (713) 
nan

>  <ATP_Site>  (713) 
nan

>  <Peripheral>  (713) 
nan

>  <Num_H_Atoms_ProtBoundConf>  (713) 
nan

>  <Num_Resolved_Atoms>  (713) 
nan

>  <Num_Not_Resolved_Atoms>  (713) 
nan

$$$$
CHEMBL486659
     RDKit          3D

  0  0  0  0  0  0  0  0  0  0999 V3000
M  V30 BEGIN CTAB
M  V30 COUNTS 52 54 0 0 0
M  V30 BEGIN ATOM
M  V30 1 O -0.521943 -3.131085 3.777894 0
M  V30 2 C 0.199281 -2.449402 2.956580 0
M  V30 3 O 0.691186 -1.169239 2.631506 0
M  V30 4 C 1.898574 -1.343755 1.925716 0
M  V30 5 C 3.023440 -0.645678 2.649525 0
M  V30 6 O 2.694726 0.701437 2.718426 0
M  V30 7 C 1.791778 -0.813399 0.498607 0
M  V30 8 O 1.488649 0.560497 0.456831 0
M  V30 9 C 1.347066 1.239917 -0.767115 0
M  V30 10 O 1.507491 0.545227 -1.790308 0
M  V30 11 C 1.032326 2.664814 -0.750832 0
M  V30 12 C 0.849268 3.459728 0.384277 0
M  V30 13 C 0.554675 4.798379 0.227920 0
M  V30 14 C 0.432864 5.387116 -1.013413 0
M  V30 15 C 0.116036 6.826879 -1.196886 0
M  V30 16 F 1.121004 7.359288 -1.995727 0
M  V30 17 F -1.101692 6.952143 -1.838002 0
M  V30 18 F 0.130085 7.448554 0.035233 0
M  V30 19 C 0.616649 4.588878 -2.147706 0
M  V30 20 C 0.910905 3.251705 -1.990154 0
M  V30 21 C 2.161699 -2.824987 1.771315 0
M  V30 22 C 0.752690 -3.321684 1.928496 0
M  V30 23 C 0.104874 -4.288094 1.299141 0
M  V30 24 C -1.237223 -4.858523 1.305392 0
M  V30 25 C -2.336992 -4.197863 2.054279 0
M  V30 26 C -3.709898 -4.479430 1.351907 0
M  V30 27 C -3.823725 -3.543018 0.164647 0
M  V30 28 C -2.379750 -3.439445 -0.356651 0
M  V30 29 C -1.705872 -4.768364 -0.170896 0
M  V30 30 H 3.949807 -0.765712 2.090271 0
M  V30 31 H 3.041637 -1.063400 3.687566 0
M  V30 32 H 3.423460 1.245524 2.366945 0
M  V30 33 H 2.791583 -0.956514 0.038873 0
M  V30 34 H 1.079256 -1.435011 -0.075614 0
M  V30 35 H 0.955201 2.951949 1.321866 0
M  V30 36 H 0.415095 5.403601 1.127687 0
M  V30 37 H 0.523770 5.038665 -3.125107 0
M  V30 38 H 1.039450 2.697359 -2.924907 0
M  V30 39 H 2.558115 -3.087781 0.781931 0
M  V30 40 H 2.769274 -3.241251 2.605393 0
M  V30 41 H 0.702736 -4.863416 0.546213 0
M  V30 42 H -1.200124 -5.972530 1.517059 0
M  V30 43 H -2.505451 -4.735069 3.004350 0
M  V30 44 H -2.331705 -3.108644 2.089792 0
M  V30 45 H -4.470941 -4.182309 2.087190 0
M  V30 46 H -3.814693 -5.540637 1.110267 0
M  V30 47 H -4.204658 -2.571592 0.527088 0
M  V30 48 H -4.479184 -4.048293 -0.570498 0
M  V30 49 H -2.382976 -3.104762 -1.415620 0
M  V30 50 H -1.896989 -2.644217 0.211599 0
M  V30 51 H -2.403703 -5.613130 -0.353834 0
M  V30 52 H -0.802793 -4.809970 -0.784822 0
M  V30 END ATOM
M  V30 BEGIN BOND
M  V30 1 2 1 2
M  V30 2 1 2 3
M  V30 3 1 3 4
M  V30 4 1 4 5
M  V30 5 1 5 6
M  V30 6 1 4 7
M  V30 7 1 7 8
M  V30 8 1 8 9
M  V30 9 2 9 10
M  V30 10 1 9 11
M  V30 11 2 11 12
M  V30 12 1 12 13
M  V30 13 2 13 14
M  V30 14 1 14 15
M  V30 15 1 15 16
M  V30 16 1 15 17
M  V30 17 1 15 18
M  V30 18 1 14 19
M  V30 19 2 19 20
M  V30 20 1 4 21
M  V30 21 1 21 22
M  V30 22 2 22 23
M  V30 23 1 23 24
M  V30 24 1 24 25
M  V30 25 1 25 26
M  V30 26 1 26 27
M  V30 27 1 27 28
M  V30 28 1 28 29
M  V30 29 1 22 2
M  V30 30 1 29 24
M  V30 31 1 20 11
M  V30 32 1 5 30
M  V30 33 1 5 31
M  V30 34 1 6 32
M  V30 35 1 7 33
M  V30 36 1 7 34
M  V30 37 1 12 35
M  V30 38 1 13 36
M  V30 39 1 19 37
M  V30 40 1 20 38
M  V30 41 1 21 39
M  V30 42 1 21 40
M  V30 43 1 23 41
M  V30 44 1 24 42
M  V30 45 1 25 43
M  V30 46 1 25 44
M  V30 47 1 26 45
M  V30 48 1 26 46
M  V30 49 1 27 47
M  V30 50 1 27 48
M  V30 51 1 28 49
M  V30 52 1 28 50
M  V30 53 1 29 51
M  V30 54 1 29 52
M  V30 END BOND
M  V30 END CTAB
M  END
>  <Dataset>  (714) 
ChEMBL_Kinases

>  <Ligand_Instance>  (714) 
nan

>  <PDB_ID>  (714) 
nan

>  <Standardized_SMILES>  (714) 
O=C1OC(CO)(COC(=O)c2ccc(C(F)(F)F)cc2)C/C1=C/C1CCCCC1

>  <Name>  (714) 
nan

>  <Pocket>  (714) 
nan

>  <ATP_Site>  (714) 
nan

>  <Peripheral>  (714) 
nan

>  <Num_H_Atoms_ProtBoundConf>  (714) 
nan

>  <Num_Resolved_Atoms>  (714) 
nan

>  <Num_Not_Resolved_Atoms>  (714) 
nan

$$$$
CHEMBL3987088
     RDKit          3D

  0  0  0  0  0  0  0  0  0  0999 V3000
M  V30 BEGIN CTAB
M  V30 COUNTS 72 76 0 0 0
M  V30 BEGIN ATOM
M  V30 1 C 4.318680 -2.431148 -0.877525 0
M  V30 2 C 3.867300 -1.538000 0.247868 0 CFG=1
M  V30 3 C 4.415604 -0.176619 0.204273 0
M  V30 4 N 3.482190 0.839394 -0.242274 0
M  V30 5 C 3.355976 0.884853 -1.648588 0
M  V30 6 C 2.733190 2.055189 -2.310111 0
M  V30 7 C 1.330013 2.417221 -2.006175 0
M  V30 8 C 0.296906 1.482081 -2.579201 0
M  V30 9 O 0.915258 0.454768 -3.320108 0
M  V30 10 C 1.598693 1.087101 -4.353852 0
M  V30 11 C 2.824965 1.779123 -3.828267 0
M  V30 12 C 2.256421 0.803806 0.494608 0
M  V30 13 C 2.260501 -0.418626 1.459142 0
M  V30 14 N 2.452843 -1.526951 0.502362 0
M  V30 15 C 1.467569 -2.403504 -0.085517 0
M  V30 16 O 2.059738 -3.241394 -0.842176 0
M  V30 17 N 0.044210 -2.382917 0.109662 0
M  V30 18 C -0.838054 -1.528997 0.915533 0
M  V30 19 C -2.201969 -1.971607 0.483869 0
M  V30 20 C -3.556958 -1.746523 0.604209 0
M  V30 21 N -4.141990 -0.726420 1.433860 0
M  V30 22 C -4.420261 -1.247505 2.714404 0
M  V30 23 O -4.141385 -2.454261 2.953247 0
M  V30 24 C -5.016116 -0.484363 3.802333 0
M  V30 25 C -5.260164 -1.103245 5.020050 0
M  V30 26 C -5.827658 -0.400750 6.062379 0
M  V30 27 C -6.167565 0.948426 5.910888 0
M  V30 28 C -6.761154 1.708061 6.977614 0
M  V30 29 N -7.239614 2.308463 7.852938 0
M  V30 30 C -5.939196 1.595684 4.714514 0
M  V30 31 C -5.366874 0.845627 3.698290 0
M  V30 32 N -4.167860 -2.649431 -0.182207 0
M  V30 33 N -3.280175 -3.430892 -0.791290 0
M  V30 34 C -2.077724 -3.022824 -0.389401 0
M  V30 35 C -0.680410 -3.419960 -0.651807 0
M  V30 36 C -0.388503 -3.318497 -2.119631 0
M  V30 37 C -0.304365 -4.732679 -0.053583 0
M  V30 38 H 5.416264 -2.194593 -1.057571 0
M  V30 39 H 3.830472 -2.133224 -1.816797 0
M  V30 40 H 4.315762 -3.503253 -0.655260 0
M  V30 41 H 4.339474 -2.031865 1.180461 0
M  V30 42 H 4.828790 0.114330 1.211979 0
M  V30 43 H 5.331649 -0.112756 -0.465665 0
M  V30 44 H 2.813960 -0.020627 -2.063024 0
M  V30 45 H 4.416545 0.761295 -2.053988 0
M  V30 46 H 3.362831 2.980782 -2.100612 0
M  V30 47 H 1.080553 2.649339 -0.966717 0
M  V30 48 H 1.189882 3.444490 -2.521281 0
M  V30 49 H -0.331542 2.042645 -3.290105 0
M  V30 50 H -0.401674 1.064719 -1.819049 0
M  V30 51 H 1.900681 0.377255 -5.154555 0
M  V30 52 H 0.877964 1.834260 -4.779735 0
M  V30 53 H 3.040458 2.742519 -4.329512 0
M  V30 54 H 3.698068 1.097503 -4.021130 0
M  V30 55 H 1.460407 0.527927 -0.226349 0
M  V30 56 H 1.988673 1.717662 1.000985 0
M  V30 57 H 3.098013 -0.347015 2.137149 0
M  V30 58 H 1.281103 -0.423116 1.933666 0
M  V30 59 H -0.694316 -0.450025 0.704796 0
M  V30 60 H -0.685312 -1.739922 1.973527 0
M  V30 61 H -4.374753 0.286023 1.233617 0
M  V30 62 H -5.002473 -2.152620 5.156903 0
M  V30 63 H -6.024288 -0.874256 7.021985 0
M  V30 64 H -6.197108 2.644727 4.579610 0
M  V30 65 H -5.189852 1.376160 2.749389 0
M  V30 66 H -3.647260 -4.166281 -1.425284 0
M  V30 67 H 0.425036 -2.639353 -2.394457 0
M  V30 68 H -1.328859 -3.044462 -2.677640 0
M  V30 69 H -0.124593 -4.333729 -2.478622 0
M  V30 70 H 0.549194 -4.636922 0.674315 0
M  V30 71 H -1.166802 -5.108226 0.536028 0
M  V30 72 H -0.096740 -5.520208 -0.806755 0
M  V30 END ATOM
M  V30 BEGIN BOND
M  V30 1 1 1 2
M  V30 2 1 2 3
M  V30 3 1 3 4
M  V30 4 1 4 5
M  V30 5 1 5 6
M  V30 6 1 6 7
M  V30 7 1 7 8
M  V30 8 1 8 9
M  V30 9 1 9 10
M  V30 10 1 10 11
M  V30 11 1 4 12
M  V30 12 1 12 13
M  V30 13 1 13 14
M  V30 14 1 14 15
M  V30 15 2 15 16
M  V30 16 1 15 17
M  V30 17 1 17 18
M  V30 18 1 18 19
M  V30 19 1 19 20
M  V30 20 1 20 21
M  V30 21 1 21 22
M  V30 22 2 22 23
M  V30 23 1 22 24
M  V30 24 2 24 25
M  V30 25 1 25 26
M  V30 26 2 26 27
M  V30 27 1 27 28
M  V30 28 3 28 29
M  V30 29 1 27 30
M  V30 30 2 30 31
M  V30 31 2 20 32
M  V30 32 1 32 33
M  V30 33 1 33 34
M  V30 34 1 34 35
M  V30 35 1 35 36
M  V30 36 1 35 37
M  V30 37 1 14 2
M  V30 38 1 35 17
M  V30 39 1 11 6
M  V30 40 2 34 19
M  V30 41 1 31 24
M  V30 42 1 1 38
M  V30 43 1 1 39
M  V30 44 1 1 40
M  V30 45 1 2 41 CFG=1
M  V30 46 1 3 42
M  V30 47 1 3 43
M  V30 48 1 5 44
M  V30 49 1 5 45
M  V30 50 1 6 46
M  V30 51 1 7 47
M  V30 52 1 7 48
M  V30 53 1 8 49
M  V30 54 1 8 50
M  V30 55 1 10 51
M  V30 56 1 10 52
M  V30 57 1 11 53
M  V30 58 1 11 54
M  V30 59 1 12 55
M  V30 60 1 12 56
M  V30 61 1 13 57
M  V30 62 1 13 58
M  V30 63 1 18 59
M  V30 64 1 18 60
M  V30 65 1 21 61
M  V30 66 1 25 62
M  V30 67 1 26 63
M  V30 68 1 30 64
M  V30 69 1 31 65
M  V30 70 1 33 66
M  V30 71 1 36 67
M  V30 72 1 36 68
M  V30 73 1 36 69
M  V30 74 1 37 70
M  V30 75 1 37 71
M  V30 76 1 37 72
M  V30 END BOND
M  V30 END CTAB
M  END
>  <Dataset>  (715) 
ChEMBL_Kinases

>  <Ligand_Instance>  (715) 
nan

>  <PDB_ID>  (715) 
nan

>  <Standardized_SMILES>  (715) 
C[C@H]1CN(CC2CCOCC2)CCN1C(=O)N1Cc2c(NC(=O)c3ccc(C#N)cc3)n[nH]c2C1(C)C

>  <Name>  (715) 
nan

>  <Pocket>  (715) 
nan

>  <ATP_Site>  (715) 
nan

>  <Peripheral>  (715) 
nan

>  <Num_H_Atoms_ProtBoundConf>  (715) 
nan

>  <Num_Resolved_Atoms>  (715) 
nan

>  <Num_Not_Resolved_Atoms>  (715) 
nan

$$$$
CHEMBL3987014
     RDKit          3D

  0  0  0  0  0  0  0  0  0  0999 V3000
M  V30 BEGIN CTAB
M  V30 COUNTS 46 51 0 0 0
M  V30 BEGIN ATOM
M  V30 1 O 1.016931 2.085170 -2.054147 0
M  V30 2 C 0.725430 2.458428 -0.888258 0
M  V30 3 N 0.709857 3.843759 -0.668192 0
M  V30 4 C 1.033196 4.623839 -1.823409 0
M  V30 5 C 2.358409 4.942858 -2.042207 0
M  V30 6 C 2.681892 5.698249 -3.158663 0
M  V30 7 C 1.667752 6.105841 -4.013804 0
M  V30 8 O 2.062029 6.866407 -5.123329 0
M  V30 9 C 0.321255 5.796842 -3.815254 0
M  V30 10 C 0.035647 5.033753 -2.678665 0
M  V30 11 C 0.434139 1.441098 0.116149 0
M  V30 12 C 0.500691 0.119142 -0.292421 0
M  V30 13 C 0.222158 -0.843085 0.669275 0
M  V30 14 C -0.105108 -0.508689 1.968001 0
M  V30 15 C -0.416576 -1.265629 3.080231 0
M  V30 16 C -0.476454 -2.725524 3.142813 0
M  V30 17 N -0.234702 -3.561771 2.115629 0
M  V30 18 C -0.382068 -4.844852 2.535578 0
M  V30 19 C -0.232364 -6.017947 1.824195 0
M  V30 20 C -0.441529 -7.206747 2.493043 0
M  V30 21 C -0.788891 -7.168735 3.835130 0
M  V30 22 C -0.932835 -5.979272 4.526205 0
M  V30 23 C -0.727567 -4.758365 3.876059 0
M  V30 24 N -0.781114 -3.446475 4.233149 0
M  V30 25 O -0.930899 -8.512048 4.227602 0
M  V30 26 C -0.995555 -9.353747 3.088593 0
M  V30 27 O -0.375344 -8.537476 2.085181 0
M  V30 28 N -0.656475 -0.422551 4.101151 0
M  V30 29 N -0.509887 0.839928 3.682093 0
M  V30 30 C -0.167099 0.815780 2.359291 0
M  V30 31 C 0.108036 1.788362 1.411875 0
M  V30 32 H 0.472891 4.192635 0.284866 0
M  V30 33 H 3.184584 4.652655 -1.411213 0
M  V30 34 H 3.710099 5.971387 -3.368623 0
M  V30 35 H 2.380034 6.402934 -5.988449 0
M  V30 36 H -0.409054 6.150766 -4.525841 0
M  V30 37 H -1.002761 4.786568 -2.511600 0
M  V30 38 H 0.750593 -0.207193 -1.292311 0
M  V30 39 H 0.273731 -1.894926 0.349497 0
M  V30 40 H 0.042364 -5.982169 0.770312 0
M  V30 41 H -1.201872 -5.942310 5.566536 0
M  V30 42 H -1.020604 -3.141123 5.190550 0
M  V30 43 H -0.392315 -10.288933 3.207628 0
M  V30 44 H -2.048652 -9.586457 2.828515 0
M  V30 45 H -0.629212 1.715743 4.242464 0
M  V30 46 H 0.055514 2.817409 1.732676 0
M  V30 END ATOM
M  V30 BEGIN BOND
M  V30 1 2 1 2
M  V30 2 1 2 3
M  V30 3 1 3 4
M  V30 4 2 4 5
M  V30 5 1 5 6
M  V30 6 2 6 7
M  V30 7 1 7 8
M  V30 8 1 7 9
M  V30 9 2 9 10
M  V30 10 1 2 11
M  V30 11 2 11 12
M  V30 12 1 12 13
M  V30 13 2 13 14
M  V30 14 1 14 15
M  V30 15 1 15 16
M  V30 16 2 16 17
M  V30 17 1 17 18
M  V30 18 2 18 19
M  V30 19 1 19 20
M  V30 20 2 20 21
M  V30 21 1 21 22
M  V30 22 2 22 23
M  V30 23 1 23 24
M  V30 24 1 21 25
M  V30 25 1 25 26
M  V30 26 1 26 27
M  V30 27 2 15 28
M  V30 28 1 28 29
M  V30 29 1 29 30
M  V30 30 2 30 31
M  V30 31 1 10 4
M  V30 32 1 31 11
M  V30 33 1 30 14
M  V30 34 1 24 16
M  V30 35 1 23 18
M  V30 36 1 27 20
M  V30 37 1 3 32
M  V30 38 1 5 33
M  V30 39 1 6 34
M  V30 40 1 8 35
M  V30 41 1 9 36
M  V30 42 1 10 37
M  V30 43 1 12 38
M  V30 44 1 13 39
M  V30 45 1 19 40
M  V30 46 1 22 41
M  V30 47 1 24 42
M  V30 48 1 26 43
M  V30 49 1 26 44
M  V30 50 1 29 45
M  V30 51 1 31 46
M  V30 END BOND
M  V30 END CTAB
M  END
>  <Dataset>  (716) 
ChEMBL_Kinases

>  <Ligand_Instance>  (716) 
nan

>  <PDB_ID>  (716) 
nan

>  <Standardized_SMILES>  (716) 
O=C(Nc1ccc(O)cc1)c1ccc2c(-c3nc4cc5c(cc4[nH]3)OCO5)n[nH]c2c1

>  <Name>  (716) 
nan

>  <Pocket>  (716) 
nan

>  <ATP_Site>  (716) 
nan

>  <Peripheral>  (716) 
nan

>  <Num_H_Atoms_ProtBoundConf>  (716) 
nan

>  <Num_Resolved_Atoms>  (716) 
nan

>  <Num_Not_Resolved_Atoms>  (716) 
nan

$$$$
CHEMBL3986872
     RDKit          3D

  0  0  0  0  0  0  0  0  0  0999 V3000
M  V30 BEGIN CTAB
M  V30 COUNTS 62 64 0 0 0
M  V30 BEGIN ATOM
M  V30 1 C -1.006690 2.449457 1.942851 0
M  V30 2 C 0.105165 2.848295 0.956220 0 CFG=2
M  V30 3 C 0.447708 4.229957 1.145414 0
M  V30 4 C 1.575977 4.631300 1.653207 0
M  V30 5 C 2.742105 3.920850 2.136904 0
M  V30 6 O 3.401933 4.929657 2.587708 0
M  V30 7 C 3.790325 2.968767 2.532197 0 CFG=1
M  V30 8 O 4.247975 3.145602 3.814272 0
M  V30 9 C 3.515765 1.516749 2.246782 0 CFG=1
M  V30 10 O 2.536346 0.932511 2.967205 0
M  V30 11 C 3.526195 1.227826 0.809342 0
M  V30 12 C 3.014923 0.006789 0.266250 0
M  V30 13 C 2.825780 -1.143194 -0.315270 0
M  V30 14 C 1.682007 -2.016973 -0.529723 0
M  V30 15 C 1.678140 -3.351281 -0.303975 0
M  V30 16 C 0.525644 -4.039725 -0.667598 0
M  V30 17 N 0.449372 -5.440925 -0.488058 0
M  V30 18 C -0.614583 -6.381175 -0.704684 0
M  V30 19 C -1.663104 -6.447824 0.346107 0
M  V30 20 N -2.407627 -5.270309 0.631320 0
M  V30 21 C -3.569627 -4.784805 0.104834 0
M  V30 22 C -3.971471 -3.604869 0.677967 0
M  V30 23 N -3.032311 -3.333068 1.599109 0
M  V30 24 C -2.113073 -4.318574 1.566795 0
M  V30 25 C -0.537279 -3.375065 -1.226983 0
M  V30 26 C -0.495098 -2.016708 -1.440146 0
M  V30 27 O -1.383610 -1.105195 -1.976779 0
M  V30 28 C 0.603603 -1.293555 -1.099134 0
M  V30 29 C 0.568681 0.183780 -1.265401 0
M  V30 30 O 1.323934 0.085811 -2.192998 0
M  V30 31 O -0.175925 0.945127 -0.427988 0
M  V30 32 C -0.228090 2.378292 -0.430266 0 CFG=1
M  V30 33 C -1.581977 2.866145 -0.891612 0
M  V30 34 H -1.700179 1.708914 1.497471 0
M  V30 35 H -1.640199 3.349826 2.180417 0
M  V30 36 H -0.594291 2.110810 2.906182 0
M  V30 37 H 0.973116 2.196487 1.288372 0
M  V30 38 H -0.436501 4.650558 0.765856 0
M  V30 39 H 1.402276 5.685700 1.612474 0
M  V30 40 H 4.734474 3.223861 1.891302 0
M  V30 41 H 3.564634 3.423359 4.457585 0
M  V30 42 H 4.482685 1.010717 2.666352 0
M  V30 43 H 2.620227 1.099688 3.923846 0
M  V30 44 H 3.121854 2.081983 0.181624 0
M  V30 45 H 4.637785 1.263678 0.448644 0
M  V30 46 H 2.017146 0.164703 0.710411 0
M  V30 47 H 3.675990 -1.677113 -0.795067 0
M  V30 48 H 2.549440 -3.798107 0.133011 0
M  V30 49 H 1.332222 -5.896705 -0.123453 0
M  V30 50 H -1.057981 -6.120270 -1.712747 0
M  V30 51 H -0.162233 -7.400421 -0.871637 0
M  V30 52 H -1.229860 -6.862910 1.301475 0
M  V30 53 H -2.388693 -7.263031 0.029452 0
M  V30 54 H -4.067383 -5.349829 -0.697502 0
M  V30 55 H -4.871952 -3.120105 0.350953 0
M  V30 56 H -1.260493 -4.284677 2.244190 0
M  V30 57 H -1.466887 -3.808096 -1.553356 0
M  V30 58 H -1.973097 -0.489715 -1.400657 0
M  V30 59 H 0.494523 2.736072 -1.149127 0
M  V30 60 H -2.426355 2.446664 -0.343847 0
M  V30 61 H -1.529797 3.962611 -0.904453 0
M  V30 62 H -1.690429 2.548536 -1.961040 0
M  V30 END ATOM
M  V30 BEGIN BOND
M  V30 1 1 1 2
M  V30 2 1 2 3
M  V30 3 2 3 4
M  V30 4 1 4 5
M  V30 5 2 5 6
M  V30 6 1 5 7
M  V30 7 1 7 8
M  V30 8 1 7 9
M  V30 9 1 9 10
M  V30 10 1 9 11
M  V30 11 1 11 12
M  V30 12 2 12 13
M  V30 13 1 13 14
M  V30 14 2 14 15
M  V30 15 1 15 16
M  V30 16 1 16 17
M  V30 17 1 17 18
M  V30 18 1 18 19
M  V30 19 1 19 20
M  V30 20 1 20 21
M  V30 21 2 21 22
M  V30 22 1 22 23
M  V30 23 2 23 24
M  V30 24 2 16 25
M  V30 25 1 25 26
M  V30 26 1 26 27
M  V30 27 2 26 28
M  V30 28 1 28 29
M  V30 29 2 29 30
M  V30 30 1 29 31
M  V30 31 1 31 32
M  V30 32 1 32 33
M  V30 33 1 32 2
M  V30 34 1 28 14
M  V30 35 1 24 20
M  V30 36 1 1 34
M  V30 37 1 1 35
M  V30 38 1 1 36
M  V30 39 1 2 37 CFG=1
M  V30 40 1 3 38
M  V30 41 1 4 39
M  V30 42 1 7 40 CFG=3
M  V30 43 1 8 41
M  V30 44 1 9 42 CFG=1
M  V30 45 1 10 43
M  V30 46 1 11 44
M  V30 47 1 11 45
M  V30 48 1 12 46
M  V30 49 1 13 47
M  V30 50 1 15 48
M  V30 51 1 17 49
M  V30 52 1 18 50
M  V30 53 1 18 51
M  V30 54 1 19 52
M  V30 55 1 19 53
M  V30 56 1 21 54
M  V30 57 1 22 55
M  V30 58 1 24 56
M  V30 59 1 25 57
M  V30 60 1 27 58
M  V30 61 1 32 59 CFG=3
M  V30 62 1 33 60
M  V30 63 1 33 61
M  V30 64 1 33 62
M  V30 END BOND
M  V30 END CTAB
M  END
>  <Dataset>  (717) 
ChEMBL_Kinases

>  <Ligand_Instance>  (717) 
nan

>  <PDB_ID>  (717) 
nan

>  <Standardized_SMILES>  (717) 
C[C@@H]1/C=C\C(=O)[C@@H](O)[C@@H](O)C/C=C/c2cc(NCCn3ccnc3)cc(O)c2C(=O)O[C@H]1C

>  <Name>  (717) 
nan

>  <Pocket>  (717) 
nan

>  <ATP_Site>  (717) 
nan

>  <Peripheral>  (717) 
nan

>  <Num_H_Atoms_ProtBoundConf>  (717) 
nan

>  <Num_Resolved_Atoms>  (717) 
nan

>  <Num_Not_Resolved_Atoms>  (717) 
nan

$$$$
CHEMBL94556
     RDKit          3D

  0  0  0  0  0  0  0  0  0  0999 V3000
M  V30 BEGIN CTAB
M  V30 COUNTS 45 48 0 0 0
M  V30 BEGIN ATOM
M  V30 1 C 4.304409 -3.453663 2.993587 0
M  V30 2 O 3.549604 -2.305086 2.582320 0
M  V30 3 C 2.370853 -2.442385 1.863046 0
M  V30 4 O 2.147628 -3.667752 1.678994 0
M  V30 5 C 1.549958 -1.352316 1.409434 0
M  V30 6 C 1.841799 -0.022610 1.639164 0
M  V30 7 C 0.980205 0.942732 1.155952 0
M  V30 8 C 1.344951 2.330304 1.432123 0
M  V30 9 C 2.118361 3.183915 0.672039 0
M  V30 10 C 2.346379 4.470795 1.114937 0
M  V30 11 C 1.813593 4.923365 2.309005 0
M  V30 12 C 1.033267 4.062806 3.076329 0
M  V30 13 C 0.817427 2.785421 2.618920 0
M  V30 14 Cl -0.188501 1.827442 3.705622 0
M  V30 15 C -0.166703 0.577701 0.446937 0
M  V30 16 C -0.472088 -0.741214 0.209438 0
M  V30 17 C 0.403210 -1.686902 0.701731 0
M  V30 18 N -1.648475 -1.088087 -0.516680 0
M  V30 19 C -1.893598 -2.481300 -0.720649 0
M  V30 20 C -1.378169 -3.102463 -1.861595 0
M  V30 21 Cl -0.438078 -2.219151 -3.051137 0
M  V30 22 C -1.655518 -4.443682 -1.988415 0
M  V30 23 C -2.396112 -5.115076 -1.040488 0
M  V30 24 C -2.884618 -4.458967 0.070657 0
M  V30 25 C -2.635098 -3.113435 0.246163 0
M  V30 26 Cl -3.259041 -2.313427 1.648572 0
M  V30 27 C -2.539935 -0.075321 -1.016063 0
M  V30 28 O -3.567273 -0.406210 -1.651295 0
M  V30 29 N -2.171112 1.273969 -0.738944 0
M  V30 30 C -1.005720 1.692135 -0.016656 0
M  V30 31 H 3.517166 -4.204258 3.279072 0
M  V30 32 H 4.948320 -3.814507 2.184455 0
M  V30 33 H 4.939900 -3.217528 3.863529 0
M  V30 34 H 2.751421 0.172113 2.197712 0
M  V30 35 H 2.484443 2.730783 -0.240014 0
M  V30 36 H 2.967137 5.090244 0.462556 0
M  V30 37 H 2.080448 5.965703 2.528558 0
M  V30 38 H 0.665349 4.511409 3.988577 0
M  V30 39 H 0.149537 -2.726179 0.506692 0
M  V30 40 H -1.272097 -4.962039 -2.862027 0
M  V30 41 H -2.584361 -6.185384 -1.197291 0
M  V30 42 H -3.464602 -4.976837 0.816516 0
M  V30 43 H -2.783424 2.039394 -1.079160 0
M  V30 44 H -1.405316 2.174560 0.923795 0
M  V30 45 H -0.486689 2.447984 -0.625870 0
M  V30 END ATOM
M  V30 BEGIN BOND
M  V30 1 1 1 2
M  V30 2 1 2 3
M  V30 3 2 3 4
M  V30 4 1 3 5
M  V30 5 2 5 6
M  V30 6 1 6 7
M  V30 7 1 7 8
M  V30 8 2 8 9
M  V30 9 1 9 10
M  V30 10 2 10 11
M  V30 11 1 11 12
M  V30 12 2 12 13
M  V30 13 1 13 14
M  V30 14 2 7 15
M  V30 15 1 15 16
M  V30 16 2 16 17
M  V30 17 1 16 18
M  V30 18 1 18 19
M  V30 19 2 19 20
M  V30 20 1 20 21
M  V30 21 1 20 22
M  V30 22 2 22 23
M  V30 23 1 23 24
M  V30 24 2 24 25
M  V30 25 1 25 26
M  V30 26 1 18 27
M  V30 27 2 27 28
M  V30 28 1 27 29
M  V30 29 1 29 30
M  V30 30 1 17 5
M  V30 31 1 25 19
M  V30 32 1 13 8
M  V30 33 1 30 15
M  V30 34 1 1 31
M  V30 35 1 1 32
M  V30 36 1 1 33
M  V30 37 1 6 34
M  V30 38 1 9 35
M  V30 39 1 10 36
M  V30 40 1 11 37
M  V30 41 1 12 38
M  V30 42 1 17 39
M  V30 43 1 22 40
M  V30 44 1 23 41
M  V30 45 1 24 42
M  V30 46 1 29 43
M  V30 47 1 30 44
M  V30 48 1 30 45
M  V30 END BOND
M  V30 END CTAB
M  END
>  <Dataset>  (718) 
ChEMBL_Kinases

>  <Ligand_Instance>  (718) 
nan

>  <PDB_ID>  (718) 
nan

>  <Standardized_SMILES>  (718) 
COC(=O)c1cc(-c2ccccc2Cl)c2c(c1)N(c1c(Cl)cccc1Cl)C(=O)NC2

>  <Name>  (718) 
nan

>  <Pocket>  (718) 
nan

>  <ATP_Site>  (718) 
nan

>  <Peripheral>  (718) 
nan

>  <Num_H_Atoms_ProtBoundConf>  (718) 
nan

>  <Num_Resolved_Atoms>  (718) 
nan

>  <Num_Not_Resolved_Atoms>  (718) 
nan

$$$$
CHEMBL398670
     RDKit          3D

  0  0  0  0  0  0  0  0  0  0999 V3000
M  V30 BEGIN CTAB
M  V30 COUNTS 34 36 0 0 0
M  V30 BEGIN ATOM
M  V30 1 C -1.554980 -2.876514 4.660302 0
M  V30 2 C -2.087182 -2.746642 3.242086 0
M  V30 3 C -1.500520 -1.566431 2.568777 0
M  V30 4 C -0.333261 -1.710713 1.863817 0
M  V30 5 C 0.283317 -0.642453 1.199795 0
M  V30 6 N 1.474100 -0.856598 0.515884 0
M  V30 7 C 2.378413 -0.143924 -0.351834 0
M  V30 8 C 1.796091 0.115773 -1.694850 0
M  V30 9 C 2.019835 -1.029441 -2.477433 0
M  V30 10 C 1.589721 -1.082950 -3.809985 0
M  V30 11 C 0.936662 0.003552 -4.363991 0
M  V30 12 N 0.748058 1.070607 -3.577233 0
M  V30 13 C 1.142935 1.163699 -2.299495 0
M  V30 14 N -0.384160 0.521974 1.327739 0
M  V30 15 N -0.081721 1.707845 0.841704 0
M  V30 16 C -0.980360 2.643359 1.179067 0
M  V30 17 C -1.938907 2.028535 1.939442 0
M  V30 18 Br -3.471690 2.812799 2.716215 0
M  V30 19 C -1.527482 0.722442 2.003218 0
M  V30 20 N -2.060370 -0.348130 2.614218 0
M  V30 21 H -0.465992 -2.627513 4.640248 0
M  V30 22 H -1.752339 -3.890806 5.048745 0
M  V30 23 H -2.031174 -2.103166 5.300846 0
M  V30 24 H -1.809859 -3.663376 2.688129 0
M  V30 25 H -3.189942 -2.667891 3.280388 0
M  V30 26 H 0.113162 -2.717771 1.836662 0
M  V30 27 H 1.891587 -1.819573 0.624291 0
M  V30 28 H 2.491926 0.877865 0.149055 0
M  V30 29 H 3.385447 -0.544963 -0.391617 0
M  V30 30 H 2.506567 -1.964189 -2.222087 0
M  V30 31 H 1.719916 -1.919077 -4.478693 0
M  V30 32 H 0.575511 0.043096 -5.375476 0
M  V30 33 H 1.039332 1.972331 -1.622137 0
M  V30 34 H -0.924247 3.694761 0.882444 0
M  V30 END ATOM
M  V30 BEGIN BOND
M  V30 1 1 1 2
M  V30 2 1 2 3
M  V30 3 1 3 4
M  V30 4 2 4 5
M  V30 5 1 5 6
M  V30 6 1 6 7
M  V30 7 1 7 8
M  V30 8 2 8 9
M  V30 9 1 9 10
M  V30 10 2 10 11
M  V30 11 1 11 12
M  V30 12 2 12 13
M  V30 13 1 5 14
M  V30 14 1 14 15
M  V30 15 2 15 16
M  V30 16 1 16 17
M  V30 17 1 17 18
M  V30 18 2 17 19
M  V30 19 1 19 20
M  V30 20 2 20 3
M  V30 21 1 13 8
M  V30 22 1 19 14
M  V30 23 1 1 21
M  V30 24 1 1 22
M  V30 25 1 1 23
M  V30 26 1 2 24
M  V30 27 1 2 25
M  V30 28 1 4 26
M  V30 29 1 6 27
M  V30 30 1 7 28
M  V30 31 1 7 29
M  V30 32 1 9 30
M  V30 33 1 10 31
M  V30 34 1 11 32
M  V30 35 1 13 33
M  V30 36 1 16 34
M  V30 END BOND
M  V30 END CTAB
M  END
>  <Dataset>  (719) 
ChEMBL_Kinases

>  <Ligand_Instance>  (719) 
nan

>  <PDB_ID>  (719) 
nan

>  <Standardized_SMILES>  (719) 
CCc1cc(NCc2cccnc2)n2ncc(Br)c2n1

>  <Name>  (719) 
nan

>  <Pocket>  (719) 
nan

>  <ATP_Site>  (719) 
nan

>  <Peripheral>  (719) 
nan

>  <Num_H_Atoms_ProtBoundConf>  (719) 
nan

>  <Num_Resolved_Atoms>  (719) 
nan

>  <Num_Not_Resolved_Atoms>  (719) 
nan

$$$$
CHEMBL3986649
     RDKit          3D

  0  0  0  0  0  0  0  0  0  0999 V3000
M  V30 BEGIN CTAB
M  V30 COUNTS 60 63 0 0 0
M  V30 BEGIN ATOM
M  V30 1 C 2.768173 -0.356026 3.388401 0
M  V30 2 N 1.382346 -0.177926 2.932840 0
M  V30 3 C 0.653578 0.232384 4.146322 0
M  V30 4 C 0.624019 -0.288795 1.729139 0
M  V30 5 O -0.632011 -0.031989 1.756636 0
M  V30 6 C 1.103484 -0.675259 0.395780 0 CFG=2
M  V30 7 C 2.172590 0.268162 -0.147614 0
M  V30 8 C 1.666085 1.638350 -0.252499 0
M  V30 9 C 2.666935 2.478517 -0.756747 0
M  V30 10 C 2.454172 3.847823 -0.959978 0
M  V30 11 C 1.237061 4.396604 -0.661723 0
M  V30 12 C 0.279904 3.531137 -0.167063 0
M  V30 13 N -1.021399 3.974153 0.180797 0
M  V30 14 C -2.162641 3.337339 0.691262 0
M  V30 15 C -2.384112 3.227366 2.068427 0
M  V30 16 C -3.584194 2.553528 2.208541 0
M  V30 17 N -4.049557 2.278317 0.956038 0
M  V30 18 N -3.197008 2.748529 0.058874 0
M  V30 19 N 0.501401 2.221213 0.021319 0
M  V30 20 C 0.042934 -0.716207 -0.647818 0
M  V30 21 C -1.051234 -1.714662 -0.440398 0
M  V30 22 C -0.601034 -3.064824 0.054400 0 CFG=1
M  V30 23 O -0.421733 -3.973230 -0.992110 0
M  V30 24 C -1.058427 -5.121620 -1.292737 0
M  V30 25 C -0.492211 -5.658626 -2.455952 0
M  V30 26 C -0.933920 -6.853255 -3.029857 0
M  V30 27 C -1.972095 -7.539080 -2.430634 0
M  V30 28 C -2.552561 -7.040647 -1.285960 0
M  V30 29 Cl -3.866534 -7.812538 -0.439374 0
M  V30 30 C -2.086950 -5.861381 -0.754455 0
M  V30 31 F -2.599314 -5.303380 0.364240 0
M  V30 32 C 0.603194 -2.983643 0.958943 0
M  V30 33 C 1.679128 -2.093587 0.445237 0
M  V30 34 H 3.155006 0.602831 3.834499 0
M  V30 35 H 3.467864 -0.564584 2.561324 0
M  V30 36 H 2.826059 -1.102881 4.200870 0
M  V30 37 H 0.723618 -0.626345 4.846815 0
M  V30 38 H -0.419501 0.408435 3.907226 0
M  V30 39 H 1.125671 1.117481 4.609124 0
M  V30 40 H 3.142153 0.172007 0.328276 0
M  V30 41 H 2.337955 -0.076378 -1.214905 0
M  V30 42 H 3.691389 2.200796 -1.044722 0
M  V30 43 H 3.200163 4.521991 -1.345460 0
M  V30 44 H 1.028888 5.439027 -0.800940 0
M  V30 45 H -1.245611 4.984381 0.053659 0
M  V30 46 H -1.746813 3.594473 2.865326 0
M  V30 47 H -4.001593 2.329051 3.187373 0
M  V30 48 H -4.960549 1.765158 0.907068 0
M  V30 49 H -0.450265 0.251783 -0.858846 0
M  V30 50 H 0.556234 -0.977337 -1.616796 0
M  V30 51 H -1.505444 -1.897930 -1.437706 0
M  V30 52 H -1.876071 -1.284869 0.166828 0
M  V30 53 H -1.424566 -3.431953 0.692806 0
M  V30 54 H 0.331028 -5.263030 -3.067241 0
M  V30 55 H -0.557717 -7.322851 -3.906264 0
M  V30 56 H -2.394773 -8.470564 -2.785473 0
M  V30 57 H 0.959947 -4.024049 1.120062 0
M  V30 58 H 0.272741 -2.629814 1.942549 0
M  V30 59 H 1.987094 -2.339898 -0.591803 0
M  V30 60 H 2.565697 -2.186642 1.068942 0
M  V30 END ATOM
M  V30 BEGIN BOND
M  V30 1 1 1 2
M  V30 2 1 2 3
M  V30 3 1 2 4
M  V30 4 2 4 5
M  V30 5 1 4 6
M  V30 6 1 6 7 CFG=3
M  V30 7 1 7 8
M  V30 8 2 8 9
M  V30 9 1 9 10
M  V30 10 2 10 11
M  V30 11 1 11 12
M  V30 12 1 12 13
M  V30 13 1 13 14
M  V30 14 1 14 15
M  V30 15 2 15 16
M  V30 16 1 16 17
M  V30 17 1 17 18
M  V30 18 2 12 19
M  V30 19 1 6 20
M  V30 20 1 20 21
M  V30 21 1 21 22
M  V30 22 1 22 23
M  V30 23 1 23 24
M  V30 24 2 24 25
M  V30 25 1 25 26
M  V30 26 2 26 27
M  V30 27 1 27 28
M  V30 28 1 28 29
M  V30 29 2 28 30
M  V30 30 1 30 31
M  V30 31 1 22 32
M  V30 32 1 32 33
M  V30 33 1 33 6
M  V30 34 1 19 8
M  V30 35 1 30 24
M  V30 36 2 18 14
M  V30 37 1 1 34
M  V30 38 1 1 35
M  V30 39 1 1 36
M  V30 40 1 3 37
M  V30 41 1 3 38
M  V30 42 1 3 39
M  V30 43 1 7 40
M  V30 44 1 7 41
M  V30 45 1 9 42
M  V30 46 1 10 43
M  V30 47 1 11 44
M  V30 48 1 13 45
M  V30 49 1 15 46
M  V30 50 1 16 47
M  V30 51 1 17 48
M  V30 52 1 20 49
M  V30 53 1 20 50
M  V30 54 1 21 51
M  V30 55 1 21 52
M  V30 56 1 22 53 CFG=1
M  V30 57 1 25 54
M  V30 58 1 26 55
M  V30 59 1 27 56
M  V30 60 1 32 57
M  V30 61 1 32 58
M  V30 62 1 33 59
M  V30 63 1 33 60
M  V30 END BOND
M  V30 END CTAB
M  END
>  <Dataset>  (720) 
ChEMBL_Kinases

>  <Ligand_Instance>  (720) 
nan

>  <PDB_ID>  (720) 
nan

>  <Standardized_SMILES>  (720) 
CN(C)C(=O)[C@]1(Cc2cccc(Nc3cc[nH]n3)n2)CC[C@@H](Oc2cccc(Cl)c2F)CC1

>  <Name>  (720) 
nan

>  <Pocket>  (720) 
nan

>  <ATP_Site>  (720) 
nan

>  <Peripheral>  (720) 
nan

>  <Num_H_Atoms_ProtBoundConf>  (720) 
nan

>  <Num_Resolved_Atoms>  (720) 
nan

>  <Num_Not_Resolved_Atoms>  (720) 
nan

$$$$
CHEMBL94549
     RDKit          3D

  0  0  0  0  0  0  0  0  0  0999 V3000
M  V30 BEGIN CTAB
M  V30 COUNTS 62 62 0 0 0
M  V30 BEGIN ATOM
M  V30 1 C 0.635140 -4.421555 1.315968 0
M  V30 2 C 1.890255 -3.740334 1.771664 0
M  V30 3 C 1.625510 -2.259156 2.115060 0
M  V30 4 C 2.937756 -1.710972 2.549710 0
M  V30 5 C 2.990570 -0.281326 2.943274 0
M  V30 6 C 2.589180 0.729018 1.896687 0
M  V30 7 C 3.426031 0.552339 0.662327 0
M  V30 8 C 3.282175 1.512705 -0.424344 0
M  V30 9 C 2.059536 1.845702 -1.115158 0
M  V30 10 C 1.206138 0.841535 -1.776560 0
M  V30 11 C 0.152503 1.574983 -2.561880 0
M  V30 12 C -0.762651 2.497200 -1.887520 0
M  V30 13 C -1.754829 2.011654 -0.892994 0
M  V30 14 C -1.262054 1.345906 0.277046 0
M  V30 15 C -1.780540 0.157439 0.483496 0
M  V30 16 C -1.337433 -0.619458 1.683996 0
M  V30 17 O -0.848428 -0.168193 2.777070 0
M  V30 18 O -1.532321 -2.015737 1.468265 0
M  V30 19 C -1.822751 -2.066512 0.061507 0
M  V30 20 C -2.746861 -0.878106 -0.040510 0
M  V30 21 O -3.205500 -0.652035 -1.301506 0
M  V30 22 C -3.830372 -0.985024 0.994659 0
M  V30 23 O -4.793676 -1.940138 0.892117 0
M  V30 24 C -4.802343 -3.267380 1.008705 0
M  V30 25 C -6.118324 -3.919545 0.789566 0
M  V30 26 O -3.868270 -4.043249 1.274802 0
M  V30 27 H 0.906199 -5.510942 1.198193 0
M  V30 28 H -0.128686 -4.282969 2.096785 0
M  V30 29 H 0.317413 -3.980709 0.370433 0
M  V30 30 H 2.612197 -3.754881 0.907935 0
M  V30 31 H 2.376345 -4.264806 2.608047 0
M  V30 32 H 1.230850 -1.828141 1.192840 0
M  V30 33 H 0.896620 -2.236053 2.952422 0
M  V30 34 H 3.689005 -1.894283 1.724869 0
M  V30 35 H 3.253594 -2.301641 3.455234 0
M  V30 36 H 4.060855 -0.078941 3.254691 0
M  V30 37 H 2.368413 -0.144856 3.865323 0
M  V30 38 H 1.516702 0.592479 1.688949 0
M  V30 39 H 2.795420 1.758113 2.312620 0
M  V30 40 H 4.495911 0.659564 1.040662 0
M  V30 41 H 3.419621 -0.520881 0.323422 0
M  V30 42 H 4.114310 1.243879 -1.181877 0
M  V30 43 H 3.727827 2.499366 -0.019646 0
M  V30 44 H 2.318484 2.631288 -1.903166 0
M  V30 45 H 1.363856 2.450326 -0.439936 0
M  V30 46 H 0.663891 0.179920 -1.059398 0
M  V30 47 H 1.731533 0.189441 -2.503385 0
M  V30 48 H -0.429994 0.767652 -3.098285 0
M  V30 49 H 0.707435 2.118436 -3.381453 0
M  V30 50 H -1.402154 2.962007 -2.726353 0
M  V30 51 H -0.200134 3.405140 -1.489177 0
M  V30 52 H -2.501170 1.420225 -1.519565 0
M  V30 53 H -2.357243 2.920220 -0.535096 0
M  V30 54 H -0.530894 1.793323 0.920542 0
M  V30 55 H -0.884408 -1.710100 -0.495353 0
M  V30 56 H -2.169406 -3.000171 -0.320823 0
M  V30 57 H -3.165985 -1.428194 -1.926411 0
M  V30 58 H -4.239670 0.024168 1.257983 0
M  V30 59 H -3.237765 -1.226584 1.958685 0
M  V30 60 H -5.985679 -4.912625 0.314185 0
M  V30 61 H -6.794251 -3.348748 0.123420 0
M  V30 62 H -6.668663 -4.112019 1.750947 0
M  V30 END ATOM
M  V30 BEGIN BOND
M  V30 1 1 1 2
M  V30 2 1 2 3
M  V30 3 1 3 4
M  V30 4 1 4 5
M  V30 5 1 5 6
M  V30 6 1 6 7
M  V30 7 1 7 8
M  V30 8 1 8 9
M  V30 9 1 9 10
M  V30 10 1 10 11
M  V30 11 1 11 12
M  V30 12 1 12 13
M  V30 13 1 13 14
M  V30 14 2 14 15
M  V30 15 1 15 16
M  V30 16 2 16 17
M  V30 17 1 16 18
M  V30 18 1 18 19
M  V30 19 1 19 20
M  V30 20 1 20 21
M  V30 21 1 20 22
M  V30 22 1 22 23
M  V30 23 1 23 24
M  V30 24 1 24 25
M  V30 25 2 24 26
M  V30 26 1 20 15
M  V30 27 1 1 27
M  V30 28 1 1 28
M  V30 29 1 1 29
M  V30 30 1 2 30
M  V30 31 1 2 31
M  V30 32 1 3 32
M  V30 33 1 3 33
M  V30 34 1 4 34
M  V30 35 1 4 35
M  V30 36 1 5 36
M  V30 37 1 5 37
M  V30 38 1 6 38
M  V30 39 1 6 39
M  V30 40 1 7 40
M  V30 41 1 7 41
M  V30 42 1 8 42
M  V30 43 1 8 43
M  V30 44 1 9 44
M  V30 45 1 9 45
M  V30 46 1 10 46
M  V30 47 1 10 47
M  V30 48 1 11 48
M  V30 49 1 11 49
M  V30 50 1 12 50
M  V30 51 1 12 51
M  V30 52 1 13 52
M  V30 53 1 13 53
M  V30 54 1 14 54
M  V30 55 1 19 55
M  V30 56 1 19 56
M  V30 57 1 21 57
M  V30 58 1 22 58
M  V30 59 1 22 59
M  V30 60 1 25 60
M  V30 61 1 25 61
M  V30 62 1 25 62
M  V30 END BOND
M  V30 END CTAB
M  END
>  <Dataset>  (721) 
ChEMBL_Kinases

>  <Ligand_Instance>  (721) 
nan

>  <PDB_ID>  (721) 
nan

>  <Standardized_SMILES>  (721) 
CCCCCCCCCCCCC/C=C1/C(=O)OCC1(O)COC(C)=O

>  <Name>  (721) 
nan

>  <Pocket>  (721) 
nan

>  <ATP_Site>  (721) 
nan

>  <Peripheral>  (721) 
nan

>  <Num_H_Atoms_ProtBoundConf>  (721) 
nan

>  <Num_Resolved_Atoms>  (721) 
nan

>  <Num_Not_Resolved_Atoms>  (721) 
nan

$$$$
CHEMBL4866929
     RDKit          3D

  0  0  0  0  0  0  0  0  0  0999 V3000
M  V30 BEGIN CTAB
M  V30 COUNTS 54 56 0 0 0
M  V30 BEGIN ATOM
M  V30 1 C -1.851840 -5.811568 2.420489 0
M  V30 2 O -0.705584 -5.303596 1.826088 0
M  V30 3 C -0.517591 -3.950740 2.098594 0 CFG=1
M  V30 4 C 0.793239 -3.743572 2.803985 0
M  V30 5 C 1.733696 -2.866476 2.015580 0
M  V30 6 C 1.923214 -3.296298 0.611551 0 CFG=2
M  V30 7 N 2.844022 -2.445341 -0.125608 0
M  V30 8 C 2.643511 -1.066012 -0.381296 0
M  V30 9 N 3.481431 -0.272579 -1.047853 0
M  V30 10 C 3.255168 1.023101 -1.273080 0
M  V30 11 C 2.073510 1.498281 -0.760930 0
M  V30 12 C 1.813214 2.900853 -0.959004 0
M  V30 13 N 2.737311 3.698173 -1.698038 0
M  V30 14 O 1.155955 3.943371 -0.835300 0
M  V30 15 C 1.161630 0.744749 -0.066247 0
M  V30 16 N -0.080623 1.174137 0.452752 0
M  V30 17 C -1.036969 2.211493 0.603839 0 CFG=2
M  V30 18 C -2.211904 1.889073 1.523216 0
M  V30 19 C -2.904763 0.619811 1.159774 0
M  V30 20 C -2.992455 0.494155 -0.342780 0
M  V30 21 C -2.947836 1.853596 -0.995339 0
M  V30 22 F -4.002246 2.641110 -0.571498 0
M  V30 23 F -3.095487 1.652799 -2.365252 0
M  V30 24 C -1.628237 2.510227 -0.761800 0
M  V30 25 N 1.531863 -0.534567 0.077353 0
M  V30 26 C 0.621072 -3.432989 -0.078134 0
M  V30 27 C -0.570093 -3.229255 0.775288 0
M  V30 28 H -1.796881 -5.697477 3.524050 0
M  V30 29 H -1.885846 -6.897644 2.186671 0
M  V30 30 H -2.780198 -5.365701 2.016134 0
M  V30 31 H -1.355844 -3.623152 2.739876 0
M  V30 32 H 1.239475 -4.723627 3.061410 0
M  V30 33 H 0.586705 -3.224647 3.760266 0
M  V30 34 H 2.740334 -2.960907 2.517922 0
M  V30 35 H 1.461675 -1.807448 2.065303 0
M  V30 36 H 2.420733 -4.312223 0.639751 0
M  V30 37 H 3.752526 -2.813656 -0.531734 0
M  V30 38 H 3.957210 1.636503 -1.817770 0
M  V30 39 H 2.806359 3.930726 -2.716218 0
M  V30 40 H 3.580028 4.234640 -1.370991 0
M  V30 41 H -0.559977 0.394259 0.991074 0
M  V30 42 H -0.530816 3.099352 1.055845 0
M  V30 43 H -1.855814 1.823539 2.584867 0
M  V30 44 H -2.906218 2.732996 1.430688 0
M  V30 45 H -3.947134 0.687195 1.540452 0
M  V30 46 H -2.381566 -0.245235 1.601924 0
M  V30 47 H -2.170320 -0.136573 -0.687947 0
M  V30 48 H -3.949837 -0.033105 -0.594798 0
M  V30 49 H -0.927614 2.155618 -1.529788 0
M  V30 50 H -1.765351 3.605248 -0.895957 0
M  V30 51 H 0.539868 -2.765398 -0.980388 0
M  V30 52 H 0.545698 -4.484166 -0.490940 0
M  V30 53 H -1.482714 -3.506203 0.210380 0
M  V30 54 H -0.666728 -2.128303 0.992267 0
M  V30 END ATOM
M  V30 BEGIN BOND
M  V30 1 1 1 2
M  V30 2 1 2 3
M  V30 3 1 3 4
M  V30 4 1 4 5
M  V30 5 1 5 6
M  V30 6 1 6 7
M  V30 7 1 7 8
M  V30 8 2 8 9
M  V30 9 1 9 10
M  V30 10 2 10 11
M  V30 11 1 11 12
M  V30 12 1 12 13
M  V30 13 2 12 14
M  V30 14 1 11 15
M  V30 15 1 15 16
M  V30 16 1 16 17
M  V30 17 1 17 18
M  V30 18 1 18 19
M  V30 19 1 19 20
M  V30 20 1 20 21
M  V30 21 1 21 22
M  V30 22 1 21 23
M  V30 23 1 21 24
M  V30 24 2 15 25
M  V30 25 1 6 26
M  V30 26 1 26 27
M  V30 27 1 27 3
M  V30 28 1 25 8
M  V30 29 1 24 17
M  V30 30 1 1 28
M  V30 31 1 1 29
M  V30 32 1 1 30
M  V30 33 1 3 31 CFG=1
M  V30 34 1 4 32
M  V30 35 1 4 33
M  V30 36 1 5 34
M  V30 37 1 5 35
M  V30 38 1 6 36 CFG=1
M  V30 39 1 7 37
M  V30 40 1 10 38
M  V30 41 1 13 39
M  V30 42 1 13 40
M  V30 43 1 16 41
M  V30 44 1 17 42 CFG=1
M  V30 45 1 18 43
M  V30 46 1 18 44
M  V30 47 1 19 45
M  V30 48 1 19 46
M  V30 49 1 20 47
M  V30 50 1 20 48
M  V30 51 1 24 49
M  V30 52 1 24 50
M  V30 53 1 26 51
M  V30 54 1 26 52
M  V30 55 1 27 53
M  V30 56 1 27 54
M  V30 END BOND
M  V30 END CTAB
M  END
>  <Dataset>  (722) 
ChEMBL_Kinases

>  <Ligand_Instance>  (722) 
nan

>  <PDB_ID>  (722) 
nan

>  <Standardized_SMILES>  (722) 
CO[C@H]1CC[C@H](Nc2ncc(C(N)=O)c(N[C@@H]3CCCC(F)(F)C3)n2)CC1

>  <Name>  (722) 
nan

>  <Pocket>  (722) 
nan

>  <ATP_Site>  (722) 
nan

>  <Peripheral>  (722) 
nan

>  <Num_H_Atoms_ProtBoundConf>  (722) 
nan

>  <Num_Resolved_Atoms>  (722) 
nan

>  <Num_Not_Resolved_Atoms>  (722) 
nan

$$$$
CHEMBL398647
     RDKit          3D

  0  0  0  0  0  0  0  0  0  0999 V3000
M  V30 BEGIN CTAB
M  V30 COUNTS 42 45 0 0 0
M  V30 BEGIN ATOM
M  V30 1 N 1.158325 -5.484899 3.903071 0
M  V30 2 C 1.704544 -5.073707 2.968686 0
M  V30 3 C 2.398362 -4.544858 1.813486 0
M  V30 4 C 1.473501 -3.991570 0.780371 0
M  V30 5 C 1.140552 -4.625613 -0.397757 0
M  V30 6 N 0.279391 -3.778270 -1.028781 0
M  V30 7 N 0.105577 -2.702361 -0.277336 0
M  V30 8 C -0.629317 -1.589157 -0.440798 0
M  V30 9 N -1.442580 -1.365924 -1.589534 0
M  V30 10 C -0.598190 -0.763961 -2.623410 0
M  V30 11 C 0.002503 0.493510 -2.114118 0
M  V30 12 C -0.482962 1.779184 -2.180156 0
M  V30 13 C 0.164077 2.861994 -1.670516 0
M  V30 14 C 1.394652 2.613629 -1.048837 0
M  V30 15 N 1.904816 1.371486 -0.963168 0
M  V30 16 C 1.238921 0.321065 -1.478239 0
M  V30 17 C -0.661776 -0.556437 0.503828 0
M  V30 18 C 0.087282 -0.677516 1.651887 0
M  V30 19 C 0.117333 0.340621 2.690008 0
M  V30 20 C -0.562228 1.511934 2.673030 0
M  V30 21 C -0.574651 2.514545 3.612088 0
M  V30 22 C 0.240492 2.230196 4.706367 0
M  V30 23 C 0.991145 1.070456 4.855075 0
M  V30 24 C 0.895299 0.160279 3.822342 0
M  V30 25 N 0.824175 -1.807765 1.801798 0
M  V30 26 C 0.824109 -2.776375 0.863840 0
M  V30 27 H 3.002573 -5.386899 1.390761 0
M  V30 28 H 3.127951 -3.783823 2.174284 0
M  V30 29 H 1.461796 -5.588129 -0.790966 0
M  V30 30 H -2.446497 -1.640114 -1.537248 0
M  V30 31 H -1.225589 -0.502170 -3.522927 0
M  V30 32 H 0.185171 -1.451164 -2.952324 0
M  V30 33 H -1.447868 1.842459 -2.687542 0
M  V30 34 H -0.253303 3.841906 -1.745797 0
M  V30 35 H 1.949710 3.443218 -0.627455 0
M  V30 36 H 1.709505 -0.670664 -1.376422 0
M  V30 37 H -1.265204 0.330938 0.341549 0
M  V30 38 H -1.198255 1.724720 1.810815 0
M  V30 39 H -1.142196 3.424583 3.532501 0
M  V30 40 H 0.324339 2.937084 5.526327 0
M  V30 41 H 1.602570 0.916833 5.733384 0
M  V30 42 H 1.486838 -0.761808 3.929548 0
M  V30 END ATOM
M  V30 BEGIN BOND
M  V30 1 3 1 2
M  V30 2 1 2 3
M  V30 3 1 3 4
M  V30 4 1 4 5
M  V30 5 2 5 6
M  V30 6 1 6 7
M  V30 7 1 7 8
M  V30 8 1 8 9
M  V30 9 1 9 10
M  V30 10 1 10 11
M  V30 11 2 11 12
M  V30 12 1 12 13
M  V30 13 2 13 14
M  V30 14 1 14 15
M  V30 15 2 15 16
M  V30 16 2 8 17
M  V30 17 1 17 18
M  V30 18 1 18 19
M  V30 19 2 19 20
M  V30 20 1 20 21
M  V30 21 2 21 22
M  V30 22 1 22 23
M  V30 23 2 23 24
M  V30 24 2 18 25
M  V30 25 1 25 26
M  V30 26 2 26 4
M  V30 27 1 26 7
M  V30 28 1 16 11
M  V30 29 1 24 19
M  V30 30 1 3 27
M  V30 31 1 3 28
M  V30 32 1 5 29
M  V30 33 1 9 30
M  V30 34 1 10 31
M  V30 35 1 10 32
M  V30 36 1 12 33
M  V30 37 1 13 34
M  V30 38 1 14 35
M  V30 39 1 16 36
M  V30 40 1 17 37
M  V30 41 1 20 38
M  V30 42 1 21 39
M  V30 43 1 22 40
M  V30 44 1 23 41
M  V30 45 1 24 42
M  V30 END BOND
M  V30 END CTAB
M  END
>  <Dataset>  (723) 
ChEMBL_Kinases

>  <Ligand_Instance>  (723) 
nan

>  <PDB_ID>  (723) 
nan

>  <Standardized_SMILES>  (723) 
N#CCc1cnn2c(NCc3cccnc3)cc(-c3ccccc3)nc12

>  <Name>  (723) 
nan

>  <Pocket>  (723) 
nan

>  <ATP_Site>  (723) 
nan

>  <Peripheral>  (723) 
nan

>  <Num_H_Atoms_ProtBoundConf>  (723) 
nan

>  <Num_Resolved_Atoms>  (723) 
nan

>  <Num_Not_Resolved_Atoms>  (723) 
nan

$$$$
CHEMBL94547
     RDKit          3D

  0  0  0  0  0  0  0  0  0  0999 V3000
M  V30 BEGIN CTAB
M  V30 COUNTS 45 48 0 0 0
M  V30 BEGIN ATOM
M  V30 1 C 3.212743 -1.066717 5.271091 0
M  V30 2 O 2.456574 -0.583755 4.189354 0
M  V30 3 C 1.834332 -1.400010 3.245658 0
M  V30 4 O 1.968622 -2.650853 3.386361 0
M  V30 5 C 1.074202 -0.781257 2.164150 0
M  V30 6 C 0.933240 0.575883 2.018318 0
M  V30 7 C 0.193527 1.104654 0.962636 0
M  V30 8 C 0.143586 2.561420 0.953926 0
M  V30 9 C 1.193969 3.111546 0.218628 0
M  V30 10 C 1.298229 4.495000 0.106541 0
M  V30 11 C 0.355733 5.284620 0.728557 0
M  V30 12 F 0.505065 6.627099 0.586836 0
M  V30 13 C -0.701511 4.746093 1.468209 0
M  V30 14 C -0.777596 3.387629 1.560271 0
M  V30 15 F -1.750240 2.741457 2.245185 0
M  V30 16 C -0.411462 0.260676 0.042999 0
M  V30 17 C -0.266461 -1.090310 0.194997 0
M  V30 18 C 0.462761 -1.629953 1.234898 0
M  V30 19 N -0.887264 -1.964951 -0.749147 0
M  V30 20 C -0.714900 -3.384627 -0.560250 0
M  V30 21 C 0.428500 -3.806015 -1.245828 0
M  V30 22 Cl 1.506543 -2.819224 -2.190442 0
M  V30 23 C 0.783832 -5.157389 -1.195877 0
M  V30 24 C 0.014185 -6.051948 -0.480497 0
M  V30 25 C -1.112280 -5.588929 0.184609 0
M  V30 26 C -1.475768 -4.265488 0.146218 0
M  V30 27 Cl -2.852342 -3.558480 0.928563 0
M  V30 28 C -1.659866 -1.471538 -1.854469 0
M  V30 29 O -2.195451 -2.235015 -2.669408 0
M  V30 30 N -1.760739 -0.057035 -1.939308 0
M  V30 31 C -1.177284 0.907789 -1.045471 0
M  V30 32 H 3.960660 -0.271566 5.536816 0
M  V30 33 H 2.575835 -1.210105 6.168389 0
M  V30 34 H 3.806511 -1.962511 5.017721 0
M  V30 35 H 1.432103 1.145625 2.771057 0
M  V30 36 H 1.974784 2.542854 -0.299205 0
M  V30 37 H 2.109698 4.934458 -0.461936 0
M  V30 38 H -1.419475 5.371333 1.941335 0
M  V30 39 H 0.556104 -2.693393 1.324238 0
M  V30 40 H 1.659904 -5.572652 -1.701249 0
M  V30 41 H 0.271872 -7.102588 -0.429046 0
M  V30 42 H -1.742421 -6.247862 0.754496 0
M  V30 43 H -2.319676 0.331680 -2.737765 0
M  V30 44 H -2.046140 1.419628 -0.537635 0
M  V30 45 H -0.613407 1.701721 -1.534378 0
M  V30 END ATOM
M  V30 BEGIN BOND
M  V30 1 1 1 2
M  V30 2 1 2 3
M  V30 3 2 3 4
M  V30 4 1 3 5
M  V30 5 2 5 6
M  V30 6 1 6 7
M  V30 7 1 7 8
M  V30 8 2 8 9
M  V30 9 1 9 10
M  V30 10 2 10 11
M  V30 11 1 11 12
M  V30 12 1 11 13
M  V30 13 2 13 14
M  V30 14 1 14 15
M  V30 15 2 7 16
M  V30 16 1 16 17
M  V30 17 2 17 18
M  V30 18 1 17 19
M  V30 19 1 19 20
M  V30 20 2 20 21
M  V30 21 1 21 22
M  V30 22 1 21 23
M  V30 23 2 23 24
M  V30 24 1 24 25
M  V30 25 2 25 26
M  V30 26 1 26 27
M  V30 27 1 19 28
M  V30 28 2 28 29
M  V30 29 1 28 30
M  V30 30 1 30 31
M  V30 31 1 18 5
M  V30 32 1 26 20
M  V30 33 1 14 8
M  V30 34 1 31 16
M  V30 35 1 1 32
M  V30 36 1 1 33
M  V30 37 1 1 34
M  V30 38 1 6 35
M  V30 39 1 9 36
M  V30 40 1 10 37
M  V30 41 1 13 38
M  V30 42 1 18 39
M  V30 43 1 23 40
M  V30 44 1 24 41
M  V30 45 1 25 42
M  V30 46 1 30 43
M  V30 47 1 31 44
M  V30 48 1 31 45
M  V30 END BOND
M  V30 END CTAB
M  END
>  <Dataset>  (724) 
ChEMBL_Kinases

>  <Ligand_Instance>  (724) 
nan

>  <PDB_ID>  (724) 
nan

>  <Standardized_SMILES>  (724) 
COC(=O)c1cc(-c2ccc(F)cc2F)c2c(c1)N(c1c(Cl)cccc1Cl)C(=O)NC2

>  <Name>  (724) 
nan

>  <Pocket>  (724) 
nan

>  <ATP_Site>  (724) 
nan

>  <Peripheral>  (724) 
nan

>  <Num_H_Atoms_ProtBoundConf>  (724) 
nan

>  <Num_Resolved_Atoms>  (724) 
nan

>  <Num_Not_Resolved_Atoms>  (724) 
nan

$$$$
CHEMBL3986381
     RDKit          3D

  0  0  0  0  0  0  0  0  0  0999 V3000
M  V30 BEGIN CTAB
M  V30 COUNTS 51 54 0 0 0
M  V30 BEGIN ATOM
M  V30 1 C 1.914802 0.765328 5.283050 0
M  V30 2 C 0.677850 0.032456 4.796624 0
M  V30 3 N 1.125650 -1.044836 3.941967 0
M  V30 4 N 1.401025 -2.248435 4.478142 0
M  V30 5 C 1.791580 -3.095908 3.507719 0
M  V30 6 C 1.735795 -2.328726 2.344705 0
M  V30 7 C 2.040531 -2.779451 1.077655 0
M  V30 8 C 1.874080 -1.797187 0.159490 0
M  V30 9 N 1.472922 -0.551609 0.430450 0
M  V30 10 C 1.172318 -0.082914 1.632329 0
M  V30 11 C 1.322390 -1.049074 2.605775 0
M  V30 12 C 0.766718 1.268763 1.909576 0
M  V30 13 C 0.842903 2.177666 0.713736 0 CFG=2
M  V30 14 O 0.652635 3.499490 1.240012 0
M  V30 15 C -0.206054 1.988402 -0.357681 0
M  V30 16 O -0.267819 0.806764 -0.989406 0
M  V30 17 C -1.122771 0.766362 -2.072998 0
M  V30 18 C -1.282669 -0.568099 -2.745020 0 CFG=2
M  V30 19 C -1.923960 -1.497850 -1.784940 0
M  V30 20 C -2.570580 -1.180768 -0.607429 0
M  V30 21 C -3.120869 -2.166676 0.184966 0
M  V30 22 C -3.069190 -3.495258 -0.126768 0
M  V30 23 C -2.437550 -3.835181 -1.282041 0
M  V30 24 C -1.880431 -2.864195 -2.088807 0
M  V30 25 N 0.052474 -1.062918 -3.179393 0
M  V30 26 C 1.274788 -1.539772 -2.519104 0
M  V30 27 O 0.308069 -1.197552 -1.821485 0
M  V30 28 N 1.982902 -1.834191 -1.288516 0
M  V30 29 H 2.655247 0.904396 4.439864 0
M  V30 30 H 2.372975 0.156926 6.091663 0
M  V30 31 H 1.647191 1.752488 5.719713 0
M  V30 32 H 0.255693 -0.374756 5.759637 0
M  V30 33 H 0.035050 0.779184 4.365234 0
M  V30 34 H 2.090345 -4.152757 3.589028 0
M  V30 35 H 2.375139 -3.699947 0.652557 0
M  V30 36 H -0.338461 1.240502 2.153503 0
M  V30 37 H 1.225708 1.785898 2.752785 0
M  V30 38 H 1.824595 2.119534 0.224560 0
M  V30 39 H -0.201709 3.456900 1.715061 0
M  V30 40 H -0.144880 2.859635 -1.076500 0
M  V30 41 H -1.185082 2.238493 0.185666 0
M  V30 42 H -2.115429 1.217922 -1.834808 0
M  V30 43 H -0.685419 1.493971 -2.819043 0
M  V30 44 H -1.866130 -0.453828 -3.652656 0
M  V30 45 H -2.601306 -0.124069 -0.377517 0
M  V30 46 H -3.607521 -1.827239 1.088007 0
M  V30 47 H -3.516168 -4.195926 0.533588 0
M  V30 48 H -2.358599 -4.873959 -1.592806 0
M  V30 49 H -1.390063 -3.181896 -2.994675 0
M  V30 50 H 0.312801 -1.137799 -4.217099 0
M  V30 51 H 2.936185 -2.195015 -1.423711 0
M  V30 END ATOM
M  V30 BEGIN BOND
M  V30 1 1 1 2
M  V30 2 1 2 3
M  V30 3 1 3 4
M  V30 4 2 4 5
M  V30 5 1 5 6
M  V30 6 2 6 7
M  V30 7 1 7 8
M  V30 8 2 8 9
M  V30 9 1 9 10
M  V30 10 2 10 11
M  V30 11 1 10 12
M  V30 12 1 12 13
M  V30 13 1 13 14
M  V30 14 1 13 15
M  V30 15 1 15 16
M  V30 16 1 16 17
M  V30 17 1 17 18
M  V30 18 1 18 19
M  V30 19 2 19 20
M  V30 20 1 20 21
M  V30 21 2 21 22
M  V30 22 1 22 23
M  V30 23 2 23 24
M  V30 24 1 18 25
M  V30 25 1 25 26
M  V30 26 2 26 27
M  V30 27 1 26 28
M  V30 28 1 11 3
M  V30 29 1 24 19
M  V30 30 1 11 6
M  V30 31 1 28 8
M  V30 32 1 1 29
M  V30 33 1 1 30
M  V30 34 1 1 31
M  V30 35 1 2 32
M  V30 36 1 2 33
M  V30 37 1 5 34
M  V30 38 1 7 35
M  V30 39 1 12 36
M  V30 40 1 12 37
M  V30 41 1 13 38 CFG=3
M  V30 42 1 14 39
M  V30 43 1 15 40
M  V30 44 1 15 41
M  V30 45 1 17 42
M  V30 46 1 17 43
M  V30 47 1 18 44 CFG=3
M  V30 48 1 20 45
M  V30 49 1 21 46
M  V30 50 1 22 47
M  V30 51 1 23 48
M  V30 52 1 24 49
M  V30 53 1 25 50
M  V30 54 1 28 51
M  V30 END BOND
M  V30 END CTAB
M  END
>  <Dataset>  (725) 
ChEMBL_Kinases

>  <Ligand_Instance>  (725) 
nan

>  <PDB_ID>  (725) 
nan

>  <Standardized_SMILES>  (725) 
CCn1ncc2cc3nc(c21)C[C@H](O)COC[C@H](c1ccccc1)NC(=O)N3

>  <Name>  (725) 
nan

>  <Pocket>  (725) 
nan

>  <ATP_Site>  (725) 
nan

>  <Peripheral>  (725) 
nan

>  <Num_H_Atoms_ProtBoundConf>  (725) 
nan

>  <Num_Resolved_Atoms>  (725) 
nan

>  <Num_Not_Resolved_Atoms>  (725) 
nan

$$$$
CHEMBL3987154
     RDKit          3D

  0  0  0  0  0  0  0  0  0  0999 V3000
M  V30 BEGIN CTAB
M  V30 COUNTS 45 50 0 0 0
M  V30 BEGIN ATOM
M  V30 1 C -1.023614 -4.370907 -3.636964 0
M  V30 2 C -0.426153 -3.177839 -2.982861 0
M  V30 3 C 0.462256 -2.330880 -3.587944 0
M  V30 4 C 0.972724 -1.240443 -2.908036 0
M  V30 5 C 0.628637 -0.941181 -1.606094 0
M  V30 6 C 1.213871 0.230064 -0.960722 0
M  V30 7 C 0.941572 0.621610 0.333017 0
M  V30 8 C 1.563736 1.735882 0.796557 0
M  V30 9 C 2.445183 2.488056 0.046454 0
M  V30 10 C 2.686797 2.057761 -1.242580 0
M  V30 11 N 2.070815 0.953148 -1.703907 0
M  V30 12 N 3.054016 3.592038 0.523210 0
M  V30 13 C 2.845837 4.045420 1.774541 0
M  V30 14 C 1.968087 3.311125 2.546571 0
M  V30 15 N 1.546717 3.482903 3.809715 0
M  V30 16 C 0.679433 2.483561 4.106517 0
M  V30 17 N 0.556510 1.684244 3.029014 0
M  V30 18 C -0.306155 0.590731 3.155043 0
M  V30 19 C -1.676300 0.544511 2.868769 0
M  V30 20 C -2.438421 -0.570832 3.035842 0
M  V30 21 C -1.899940 -1.749122 3.506661 0
M  V30 22 N -2.347570 -2.986255 3.779090 0
M  V30 23 C -1.332036 -3.748004 4.229646 0
M  V30 24 N -0.213210 -2.997249 4.249890 0
M  V30 25 C -0.564882 -1.794473 3.812668 0
M  V30 26 C 0.170434 -0.640114 3.628035 0
M  V30 27 C 1.336027 2.179580 2.076407 0
M  V30 28 C -0.266473 -1.811741 -1.025738 0
M  V30 29 C -0.789727 -2.906715 -1.683914 0
M  V30 30 H -0.833469 -4.280367 -4.744790 0
M  V30 31 H -0.649796 -5.324368 -3.245675 0
M  V30 32 H -2.142269 -4.386468 -3.567752 0
M  V30 33 H 0.749694 -2.541529 -4.608604 0
M  V30 34 H 1.680300 -0.616922 -3.476833 0
M  V30 35 H 0.264564 0.007289 0.846681 0
M  V30 36 H 3.370851 2.625080 -1.852594 0
M  V30 37 H 3.301731 4.921729 2.216070 0
M  V30 38 H 0.236227 2.475250 5.113379 0
M  V30 39 H -2.090979 1.492320 2.494062 0
M  V30 40 H -3.502416 -0.550511 2.796711 0
M  V30 41 H -1.350870 -4.796749 4.539567 0
M  V30 42 H 0.759036 -3.286727 4.549531 0
M  V30 43 H 1.239536 -0.666404 3.870086 0
M  V30 44 H -0.571029 -1.625749 -0.007664 0
M  V30 45 H -1.490448 -3.553753 -1.170913 0
M  V30 END ATOM
M  V30 BEGIN BOND
M  V30 1 1 1 2
M  V30 2 2 2 3
M  V30 3 1 3 4
M  V30 4 2 4 5
M  V30 5 1 5 6
M  V30 6 2 6 7
M  V30 7 1 7 8
M  V30 8 2 8 9
M  V30 9 1 9 10
M  V30 10 2 10 11
M  V30 11 1 9 12
M  V30 12 2 12 13
M  V30 13 1 13 14
M  V30 14 1 14 15
M  V30 15 2 15 16
M  V30 16 1 16 17
M  V30 17 1 17 18
M  V30 18 2 18 19
M  V30 19 1 19 20
M  V30 20 2 20 21
M  V30 21 1 21 22
M  V30 22 2 22 23
M  V30 23 1 23 24
M  V30 24 1 24 25
M  V30 25 2 25 26
M  V30 26 1 17 27
M  V30 27 1 5 28
M  V30 28 2 28 29
M  V30 29 1 29 2
M  V30 30 1 11 6
M  V30 31 2 27 14
M  V30 32 1 27 8
M  V30 33 1 26 18
M  V30 34 1 25 21
M  V30 35 1 1 30
M  V30 36 1 1 31
M  V30 37 1 1 32
M  V30 38 1 3 33
M  V30 39 1 4 34
M  V30 40 1 7 35
M  V30 41 1 10 36
M  V30 42 1 13 37
M  V30 43 1 16 38
M  V30 44 1 19 39
M  V30 45 1 20 40
M  V30 46 1 23 41
M  V30 47 1 24 42
M  V30 48 1 26 43
M  V30 49 1 28 44
M  V30 50 1 29 45
M  V30 END BOND
M  V30 END CTAB
M  END
>  <Dataset>  (726) 
ChEMBL_Kinases

>  <Ligand_Instance>  (726) 
nan

>  <PDB_ID>  (726) 
nan

>  <Standardized_SMILES>  (726) 
Cc1ccc(-c2cc3c(cn2)ncc2ncn(-c4ccc5nc[nH]c5c4)c23)cc1

>  <Name>  (726) 
nan

>  <Pocket>  (726) 
nan

>  <ATP_Site>  (726) 
nan

>  <Peripheral>  (726) 
nan

>  <Num_H_Atoms_ProtBoundConf>  (726) 
nan

>  <Num_Resolved_Atoms>  (726) 
nan

>  <Num_Not_Resolved_Atoms>  (726) 
nan

$$$$
CHEMBL486660
     RDKit          3D

  0  0  0  0  0  0  0  0  0  0999 V3000
M  V30 BEGIN CTAB
M  V30 COUNTS 52 54 0 0 0
M  V30 BEGIN ATOM
M  V30 1 C 5.161795 -4.060039 6.861803 0
M  V30 2 C 4.338482 -3.104226 6.064361 0
M  V30 3 C 3.462778 -3.565503 5.095662 0
M  V30 4 C 2.699470 -2.686112 4.355756 0
M  V30 5 C 2.826945 -1.336138 4.601340 0
M  V30 6 C 2.115695 -0.246571 3.933733 0
M  V30 7 O 2.219464 0.990475 4.144857 0
M  V30 8 O 1.182828 -0.422711 2.927314 0
M  V30 9 C 0.502376 0.634612 2.289775 0
M  V30 10 C -0.419054 -0.027796 1.256131 0
M  V30 11 C -1.398475 -0.927738 1.994796 0
M  V30 12 O -2.133977 -0.233757 2.931894 0
M  V30 13 C -1.133571 1.097107 0.547334 0
M  V30 14 C -1.160954 0.579403 -0.851874 0
M  V30 15 C -1.958883 0.750135 -1.876229 0
M  V30 16 C -1.917400 0.198189 -3.236151 0
M  V30 17 C -1.893783 1.275189 -4.300350 0
M  V30 18 C -3.061908 1.160967 -5.264132 0
M  V30 19 C -3.066528 -0.243488 -5.824164 0
M  V30 20 C -3.279526 -1.276847 -4.739296 0
M  V30 21 C -3.229445 -0.579263 -3.413064 0
M  V30 22 C 0.008041 -0.283824 -0.966451 0
M  V30 23 O 0.634021 -0.537781 -2.034730 0
M  V30 24 O 0.297656 -0.770217 0.324316 0
M  V30 25 C 3.708480 -0.877289 5.576049 0
M  V30 26 C 4.477232 -1.755697 6.321825 0
M  V30 27 H 5.479368 -4.949100 6.284641 0
M  V30 28 H 6.113601 -3.563206 7.192083 0
M  V30 29 H 4.647775 -4.412715 7.766932 0
M  V30 30 H 3.348299 -4.620452 4.887938 0
M  V30 31 H 1.991370 -2.948553 3.581472 0
M  V30 32 H -0.118561 1.114595 3.073082 0
M  V30 33 H 1.134478 1.392423 1.837314 0
M  V30 34 H -2.072699 -1.376188 1.216626 0
M  V30 35 H -0.829320 -1.784683 2.400672 0
M  V30 36 H -1.755308 -0.393500 3.846193 0
M  V30 37 H -2.175545 1.129845 0.906064 0
M  V30 38 H -0.596268 2.057931 0.642214 0
M  V30 39 H -2.811576 1.423974 -1.692118 0
M  V30 40 H -1.132094 -0.510900 -3.463088 0
M  V30 41 H -1.872120 2.299058 -3.864133 0
M  V30 42 H -0.978626 1.199504 -4.928246 0
M  V30 43 H -2.830289 1.837102 -6.116260 0
M  V30 44 H -4.013361 1.492486 -4.849621 0
M  V30 45 H -2.097415 -0.411352 -6.311991 0
M  V30 46 H -3.883175 -0.356932 -6.564454 0
M  V30 47 H -4.287098 -1.727804 -4.817573 0
M  V30 48 H -2.569143 -2.123276 -4.786319 0
M  V30 49 H -3.281760 -1.277835 -2.556671 0
M  V30 50 H -4.056721 0.129582 -3.327119 0
M  V30 51 H 3.865783 0.170258 5.828701 0
M  V30 52 H 5.162986 -1.437882 7.076845 0
M  V30 END ATOM
M  V30 BEGIN BOND
M  V30 1 1 1 2
M  V30 2 2 2 3
M  V30 3 1 3 4
M  V30 4 2 4 5
M  V30 5 1 5 6
M  V30 6 2 6 7
M  V30 7 1 6 8
M  V30 8 1 8 9
M  V30 9 1 9 10
M  V30 10 1 10 11
M  V30 11 1 11 12
M  V30 12 1 10 13
M  V30 13 1 13 14
M  V30 14 2 14 15
M  V30 15 1 15 16
M  V30 16 1 16 17
M  V30 17 1 17 18
M  V30 18 1 18 19
M  V30 19 1 19 20
M  V30 20 1 20 21
M  V30 21 1 14 22
M  V30 22 2 22 23
M  V30 23 1 22 24
M  V30 24 1 5 25
M  V30 25 2 25 26
M  V30 26 1 26 2
M  V30 27 1 24 10
M  V30 28 1 21 16
M  V30 29 1 1 27
M  V30 30 1 1 28
M  V30 31 1 1 29
M  V30 32 1 3 30
M  V30 33 1 4 31
M  V30 34 1 9 32
M  V30 35 1 9 33
M  V30 36 1 11 34
M  V30 37 1 11 35
M  V30 38 1 12 36
M  V30 39 1 13 37
M  V30 40 1 13 38
M  V30 41 1 15 39
M  V30 42 1 16 40
M  V30 43 1 17 41
M  V30 44 1 17 42
M  V30 45 1 18 43
M  V30 46 1 18 44
M  V30 47 1 19 45
M  V30 48 1 19 46
M  V30 49 1 20 47
M  V30 50 1 20 48
M  V30 51 1 21 49
M  V30 52 1 21 50
M  V30 53 1 25 51
M  V30 54 1 26 52
M  V30 END BOND
M  V30 END CTAB
M  END
>  <Dataset>  (727) 
ChEMBL_Kinases

>  <Ligand_Instance>  (727) 
nan

>  <PDB_ID>  (727) 
nan

>  <Standardized_SMILES>  (727) 
Cc1ccc(C(=O)OCC2(CO)C/C(=C/C3CCCCC3)C(=O)O2)cc1

>  <Name>  (727) 
nan

>  <Pocket>  (727) 
nan

>  <ATP_Site>  (727) 
nan

>  <Peripheral>  (727) 
nan

>  <Num_H_Atoms_ProtBoundConf>  (727) 
nan

>  <Num_Resolved_Atoms>  (727) 
nan

>  <Num_Not_Resolved_Atoms>  (727) 
nan

$$$$
CHEMBL486661
     RDKit          3D

  0  0  0  0  0  0  0  0  0  0999 V3000
M  V30 BEGIN CTAB
M  V30 COUNTS 59 64 0 0 0
M  V30 BEGIN ATOM
M  V30 1 O 3.653402 2.923376 3.519242 0
M  V30 2 C 3.005028 2.853245 2.439871 0
M  V30 3 N 3.179749 3.653680 1.253233 0
M  V30 4 C 2.224509 3.211447 0.308154 0
M  V30 5 O 2.236684 3.800320 -0.780376 0
M  V30 6 C 1.423677 2.146601 0.825397 0
M  V30 7 C 1.905492 1.949224 2.096900 0
M  V30 8 C 1.327483 0.960883 2.895878 0
M  V30 9 C 1.846560 0.732208 4.247527 0
M  V30 10 C 1.498613 1.365314 5.431485 0
M  V30 11 C 2.111240 0.999646 6.590860 0
M  V30 12 C 3.077110 0.018386 6.666110 0
M  V30 13 C 3.429859 -0.616701 5.493928 0
M  V30 14 C 2.822405 -0.263326 4.304551 0
M  V30 15 Cl 3.351440 -1.143211 2.876339 0
M  V30 16 C 0.282308 0.190280 2.412192 0
M  V30 17 C -0.193683 0.404270 1.117741 0
M  V30 18 C 0.396763 1.386722 0.353866 0
M  V30 19 C -0.246911 1.385357 -0.850057 0
M  V30 20 C -0.188416 2.063564 -2.028246 0
M  V30 21 C -0.995092 1.843171 -3.117301 0
M  V30 22 O -0.924988 2.541179 -4.312803 0
M  V30 23 C -1.966673 0.843228 -3.036886 0
M  V30 24 C -2.038182 0.140462 -1.835783 0
M  V30 25 C -1.194822 0.393083 -0.737950 0
M  V30 26 N -1.186763 -0.237002 0.477040 0
M  V30 27 C -2.057378 -1.305012 0.846394 0
M  V30 28 C -1.511610 -2.690064 0.572178 0
M  V30 29 C -1.175967 -2.937928 -0.868804 0
M  V30 30 N -0.676267 -4.264166 -1.051424 0
M  V30 31 C -1.651177 -5.289876 -0.887385 0
M  V30 32 C -2.684295 -5.284983 -2.001902 0
M  V30 33 O -2.125765 -5.208011 -3.250273 0
M  V30 34 C -1.208149 -4.193758 -3.385460 0
M  V30 35 C -0.102791 -4.392731 -2.372883 0
M  V30 36 H 3.917310 4.386106 1.247034 0
M  V30 37 H 0.738003 2.117986 5.282655 0
M  V30 38 H 1.779146 1.549280 7.480092 0
M  V30 39 H 3.532070 -0.230587 7.621770 0
M  V30 40 H 4.190214 -1.392420 5.545332 0
M  V30 41 H -0.155998 -0.563884 3.026907 0
M  V30 42 H 0.507979 2.844544 -2.207878 0
M  V30 43 H -1.707660 3.009714 -4.703327 0
M  V30 44 H -2.638453 0.608616 -3.849285 0
M  V30 45 H -2.801726 -0.625303 -1.805641 0
M  V30 46 H -3.015160 -1.223841 0.254733 0
M  V30 47 H -2.376793 -1.256022 1.902050 0
M  V30 48 H -0.641394 -2.930887 1.214137 0
M  V30 49 H -2.292436 -3.444134 0.866165 0
M  V30 50 H -2.152376 -2.885764 -1.413445 0
M  V30 51 H -0.446236 -2.164818 -1.197986 0
M  V30 52 H -1.157784 -6.284752 -0.957318 0
M  V30 53 H -2.182072 -5.286620 0.072737 0
M  V30 54 H -3.207767 -6.262159 -1.923965 0
M  V30 55 H -3.446205 -4.512456 -1.871041 0
M  V30 56 H -0.768232 -4.235340 -4.422000 0
M  V30 57 H -1.665269 -3.179277 -3.343765 0
M  V30 58 H 0.706948 -3.617585 -2.475280 0
M  V30 59 H 0.309367 -5.414214 -2.544487 0
M  V30 END ATOM
M  V30 BEGIN BOND
M  V30 1 2 1 2
M  V30 2 1 2 3
M  V30 3 1 3 4
M  V30 4 2 4 5
M  V30 5 1 4 6
M  V30 6 2 6 7
M  V30 7 1 7 8
M  V30 8 1 8 9
M  V30 9 2 9 10
M  V30 10 1 10 11
M  V30 11 2 11 12
M  V30 12 1 12 13
M  V30 13 2 13 14
M  V30 14 1 14 15
M  V30 15 2 8 16
M  V30 16 1 16 17
M  V30 17 2 17 18
M  V30 18 1 18 19
M  V30 19 2 19 20
M  V30 20 1 20 21
M  V30 21 1 21 22
M  V30 22 2 21 23
M  V30 23 1 23 24
M  V30 24 2 24 25
M  V30 25 1 25 26
M  V30 26 1 26 27
M  V30 27 1 27 28
M  V30 28 1 28 29
M  V30 29 1 29 30
M  V30 30 1 30 31
M  V30 31 1 31 32
M  V30 32 1 32 33
M  V30 33 1 33 34
M  V30 34 1 34 35
M  V30 35 1 7 2
M  V30 36 1 14 9
M  V30 37 1 26 17
M  V30 38 1 35 30
M  V30 39 1 18 6
M  V30 40 1 25 19
M  V30 41 1 3 36
M  V30 42 1 10 37
M  V30 43 1 11 38
M  V30 44 1 12 39
M  V30 45 1 13 40
M  V30 46 1 16 41
M  V30 47 1 20 42
M  V30 48 1 22 43
M  V30 49 1 23 44
M  V30 50 1 24 45
M  V30 51 1 27 46
M  V30 52 1 27 47
M  V30 53 1 28 48
M  V30 54 1 28 49
M  V30 55 1 29 50
M  V30 56 1 29 51
M  V30 57 1 31 52
M  V30 58 1 31 53
M  V30 59 1 32 54
M  V30 60 1 32 55
M  V30 61 1 34 56
M  V30 62 1 34 57
M  V30 63 1 35 58
M  V30 64 1 35 59
M  V30 END BOND
M  V30 END CTAB
M  END
>  <Dataset>  (728) 
ChEMBL_Kinases

>  <Ligand_Instance>  (728) 
nan

>  <PDB_ID>  (728) 
nan

>  <Standardized_SMILES>  (728) 
O=C1NC(=O)c2c1c(-c1ccccc1Cl)cc1c2c2cc(O)ccc2n1CCCN1CCOCC1

>  <Name>  (728) 
nan

>  <Pocket>  (728) 
nan

>  <ATP_Site>  (728) 
nan

>  <Peripheral>  (728) 
nan

>  <Num_H_Atoms_ProtBoundConf>  (728) 
nan

>  <Num_Resolved_Atoms>  (728) 
nan

>  <Num_Not_Resolved_Atoms>  (728) 
nan

$$$$
CHEMBL4866616
     RDKit          3D

  0  0  0  0  0  0  0  0  0  0999 V3000
M  V30 BEGIN CTAB
M  V30 COUNTS 54 57 0 0 0
M  V30 BEGIN ATOM
M  V30 1 C 2.563147 -3.306992 5.057048 0
M  V30 2 O 2.255154 -2.241397 4.175871 0
M  V30 3 C 1.831488 -2.465360 2.867015 0
M  V30 4 C 1.708438 -3.777751 2.417510 0
M  V30 5 C 1.287351 -3.984958 1.118003 0
M  V30 6 C 0.984913 -2.932721 0.251630 0
M  V30 7 C 1.105716 -1.631612 0.693588 0
M  V30 8 C 1.527138 -1.440666 1.993172 0
M  V30 9 N 1.652766 -0.097709 2.446931 0
M  V30 10 C 1.372853 1.061099 1.669588 0
M  V30 11 N 2.207938 1.765874 0.859141 0
M  V30 12 C 1.744582 2.839996 0.209012 0
M  V30 13 C 0.444404 3.282819 0.314743 0
M  V30 14 C -0.041124 4.453604 -0.400990 0
M  V30 15 N 0.757438 5.226089 -1.253433 0
M  V30 16 O -1.238890 4.808203 -0.260925 0
M  V30 17 C -0.396635 2.564325 1.137552 0
M  V30 18 N -1.768506 2.947428 1.314908 0
M  V30 19 C -2.757387 2.436450 0.431856 0
M  V30 20 C -2.378573 1.583338 -0.580293 0
M  V30 21 C -3.287930 1.050951 -1.473643 0
M  V30 22 C -4.623322 1.416320 -1.308227 0
M  V30 23 C -5.004278 2.281072 -0.281580 0
M  V30 24 C -4.071910 2.805956 0.607482 0
M  V30 25 Cl -4.592703 3.886928 1.881433 0
M  V30 26 N 0.081707 1.477728 1.791954 0
M  V30 27 C 0.548449 -3.259353 -1.105538 0
M  V30 28 N 0.110162 -4.582022 -1.302702 0
M  V30 29 C -0.664413 -4.855846 -2.452379 0
M  V30 30 C 0.788043 -5.640675 -0.673252 0
M  V30 31 C 1.188398 -5.420384 0.738814 0
M  V30 32 H 1.726463 -4.015863 5.174797 0
M  V30 33 H 3.461285 -3.881600 4.686766 0
M  V30 34 H 2.859716 -2.888290 6.039032 0
M  V30 35 H 1.947710 -4.575907 3.105241 0
M  V30 36 H 0.868846 -0.833707 0.013921 0
M  V30 37 H 1.957831 0.196176 3.380866 0
M  V30 38 H 2.455363 3.354521 -0.416946 0
M  V30 39 H 0.741223 6.266653 -1.239737 0
M  V30 40 H 1.376258 4.666783 -1.910072 0
M  V30 41 H -2.019860 3.599223 2.094568 0
M  V30 42 H -1.330893 1.296140 -0.710687 0
M  V30 43 H -3.009532 0.381483 -2.272274 0
M  V30 44 H -5.347925 0.999155 -2.010820 0
M  V30 45 H -6.064406 2.512130 -0.225993 0
M  V30 46 H 1.380887 -3.031451 -1.820433 0
M  V30 47 H -0.268666 -2.554484 -1.390320 0
M  V30 48 H -1.557868 -4.212900 -2.576497 0
M  V30 49 H -0.963454 -5.933021 -2.444821 0
M  V30 50 H -0.023786 -4.749956 -3.355935 0
M  V30 51 H 1.675531 -6.005719 -1.266082 0
M  V30 52 H 0.097030 -6.534166 -0.697027 0
M  V30 53 H 2.157608 -5.952241 0.935740 0
M  V30 54 H 0.437184 -5.877147 1.431124 0
M  V30 END ATOM
M  V30 BEGIN BOND
M  V30 1 1 1 2
M  V30 2 1 2 3
M  V30 3 2 3 4
M  V30 4 1 4 5
M  V30 5 2 5 6
M  V30 6 1 6 7
M  V30 7 2 7 8
M  V30 8 1 8 9
M  V30 9 1 9 10
M  V30 10 2 10 11
M  V30 11 1 11 12
M  V30 12 2 12 13
M  V30 13 1 13 14
M  V30 14 1 14 15
M  V30 15 2 14 16
M  V30 16 1 13 17
M  V30 17 1 17 18
M  V30 18 1 18 19
M  V30 19 2 19 20
M  V30 20 1 20 21
M  V30 21 2 21 22
M  V30 22 1 22 23
M  V30 23 2 23 24
M  V30 24 1 24 25
M  V30 25 2 17 26
M  V30 26 1 6 27
M  V30 27 1 27 28
M  V30 28 1 28 29
M  V30 29 1 28 30
M  V30 30 1 30 31
M  V30 31 1 8 3
M  V30 32 1 26 10
M  V30 33 1 31 5
M  V30 34 1 24 19
M  V30 35 1 1 32
M  V30 36 1 1 33
M  V30 37 1 1 34
M  V30 38 1 4 35
M  V30 39 1 7 36
M  V30 40 1 9 37
M  V30 41 1 12 38
M  V30 42 1 15 39
M  V30 43 1 15 40
M  V30 44 1 18 41
M  V30 45 1 20 42
M  V30 46 1 21 43
M  V30 47 1 22 44
M  V30 48 1 23 45
M  V30 49 1 27 46
M  V30 50 1 27 47
M  V30 51 1 29 48
M  V30 52 1 29 49
M  V30 53 1 29 50
M  V30 54 1 30 51
M  V30 55 1 30 52
M  V30 56 1 31 53
M  V30 57 1 31 54
M  V30 END BOND
M  V30 END CTAB
M  END
>  <Dataset>  (729) 
ChEMBL_Kinases

>  <Ligand_Instance>  (729) 
nan

>  <PDB_ID>  (729) 
nan

>  <Standardized_SMILES>  (729) 
COc1cc2c(cc1Nc1ncc(C(N)=O)c(Nc3ccccc3Cl)n1)CN(C)CC2

>  <Name>  (729) 
nan

>  <Pocket>  (729) 
nan

>  <ATP_Site>  (729) 
nan

>  <Peripheral>  (729) 
nan

>  <Num_H_Atoms_ProtBoundConf>  (729) 
nan

>  <Num_Resolved_Atoms>  (729) 
nan

>  <Num_Not_Resolved_Atoms>  (729) 
nan

$$$$
CHEMBL486662
     RDKit          3D

  0  0  0  0  0  0  0  0  0  0999 V3000
M  V30 BEGIN CTAB
M  V30 COUNTS 45 47 0 0 0
M  V30 BEGIN ATOM
M  V30 1 O -0.594698 -3.754573 1.557123 0
M  V30 2 C 0.209665 -2.954990 0.954952 0
M  V30 3 O 1.578301 -2.788774 0.793691 0
M  V30 4 C 1.759909 -1.348500 0.932566 0
M  V30 5 C 1.306514 -0.998819 2.340597 0
M  V30 6 O 2.105740 -1.716129 3.225345 0
M  V30 7 C 3.181856 -0.983810 0.774225 0
M  V30 8 O 3.425881 0.369344 0.930793 0
M  V30 9 C 3.090404 1.431843 0.162366 0
M  V30 10 O 2.468096 1.356381 -0.915649 0
M  V30 11 C 3.430874 2.820849 0.524856 0
M  V30 12 C 3.078717 3.871282 -0.306009 0
M  V30 13 C 3.368743 5.200131 -0.003199 0
M  V30 14 C 4.027241 5.519055 1.154000 0
M  V30 15 C 4.393108 4.472002 2.008035 0
M  V30 16 C 4.098954 3.169154 1.692845 0
M  V30 17 C 0.771896 -0.851010 -0.072458 0
M  V30 18 C -0.353565 -1.855682 0.182018 0
M  V30 19 C -1.618593 -1.698352 -0.255754 0
M  V30 20 C -2.715024 -2.630599 -0.037036 0
M  V30 21 C -3.826498 -1.930487 0.456651 0
M  V30 22 C -5.035072 -2.543173 0.750377 0
M  V30 23 C -5.116910 -3.902702 0.537173 0
M  V30 24 N -6.326589 -4.598262 0.822353 0 CHG=1 VAL=4
M  V30 25 O -7.306000 -3.952861 1.270046 0
M  V30 26 O -6.447524 -5.948358 0.621201 0 CHG=-1 VAL=1
M  V30 27 C -4.028144 -4.635217 0.044378 0
M  V30 28 C -2.834507 -3.989106 -0.238804 0
M  V30 29 H 0.261747 -1.415279 2.427213 0
M  V30 30 H 1.342976 0.079952 2.520390 0
M  V30 31 H 2.674956 -1.100178 3.755389 0
M  V30 32 H 3.591363 -1.319311 -0.231091 0
M  V30 33 H 3.837685 -1.547640 1.490612 0
M  V30 34 H 2.547412 3.705115 -1.257241 0
M  V30 35 H 3.058228 5.982059 -0.710338 0
M  V30 36 H 4.212240 6.569065 1.317028 0
M  V30 37 H 4.915292 4.755359 2.918260 0
M  V30 38 H 4.384086 2.361238 2.357571 0
M  V30 39 H 1.119271 -0.951093 -1.099225 0
M  V30 40 H 0.367971 0.163905 0.125875 0
M  V30 41 H -1.801244 -0.770028 -0.825977 0
M  V30 42 H -3.885445 -0.849181 0.667480 0
M  V30 43 H -5.906418 -2.040469 1.131951 0
M  V30 44 H -4.045724 -5.696069 -0.140449 0
M  V30 45 H -1.938334 -4.429090 -0.633983 0
M  V30 END ATOM
M  V30 BEGIN BOND
M  V30 1 2 1 2
M  V30 2 1 2 3
M  V30 3 1 3 4
M  V30 4 1 4 5
M  V30 5 1 5 6
M  V30 6 1 4 7
M  V30 7 1 7 8
M  V30 8 1 8 9
M  V30 9 2 9 10
M  V30 10 1 9 11
M  V30 11 2 11 12
M  V30 12 1 12 13
M  V30 13 2 13 14
M  V30 14 1 14 15
M  V30 15 2 15 16
M  V30 16 1 4 17
M  V30 17 1 17 18
M  V30 18 2 18 19
M  V30 19 1 19 20
M  V30 20 2 20 21
M  V30 21 1 21 22
M  V30 22 2 22 23
M  V30 23 1 23 24
M  V30 24 2 24 25
M  V30 25 1 24 26
M  V30 26 1 23 27
M  V30 27 2 27 28
M  V30 28 1 18 2
M  V30 29 1 28 20
M  V30 30 1 16 11
M  V30 31 1 5 29
M  V30 32 1 5 30
M  V30 33 1 6 31
M  V30 34 1 7 32
M  V30 35 1 7 33
M  V30 36 1 12 34
M  V30 37 1 13 35
M  V30 38 1 14 36
M  V30 39 1 15 37
M  V30 40 1 16 38
M  V30 41 1 17 39
M  V30 42 1 17 40
M  V30 43 1 19 41
M  V30 44 1 21 42
M  V30 45 1 22 43
M  V30 46 1 27 44
M  V30 47 1 28 45
M  V30 END BOND
M  V30 END CTAB
M  END
>  <Dataset>  (730) 
ChEMBL_Kinases

>  <Ligand_Instance>  (730) 
nan

>  <PDB_ID>  (730) 
nan

>  <Standardized_SMILES>  (730) 
O=C1OC(CO)(COC(=O)c2ccccc2)C/C1=C/c1ccc([N+](=O)[O-])cc1

>  <Name>  (730) 
nan

>  <Pocket>  (730) 
nan

>  <ATP_Site>  (730) 
nan

>  <Peripheral>  (730) 
nan

>  <Num_H_Atoms_ProtBoundConf>  (730) 
nan

>  <Num_Resolved_Atoms>  (730) 
nan

>  <Num_Not_Resolved_Atoms>  (730) 
nan

$$$$
CHEMBL399491
     RDKit          3D

  0  0  0  0  0  0  0  0  0  0999 V3000
M  V30 BEGIN CTAB
M  V30 COUNTS 17 17 0 0 0
M  V30 BEGIN ATOM
M  V30 1 S 0.561897 -2.032078 3.444400 0
M  V30 2 C 0.675833 -1.662098 1.858622 0
M  V30 3 S 0.385267 -2.605823 0.361345 0
M  V30 4 N 1.076187 -0.362022 1.441624 0
M  V30 5 C 1.207697 0.065027 0.064005 0
M  V30 6 C 0.864189 1.554216 0.204070 0
M  V30 7 C 1.714244 1.890743 1.411447 0
M  V30 8 C 1.413160 0.732274 2.330112 0
M  V30 9 H -0.844393 -2.212929 -0.212525 0
M  V30 10 H 0.529616 -0.428953 -0.630256 0
M  V30 11 H 2.245587 0.014747 -0.314083 0
M  V30 12 H -0.207493 1.622192 0.462024 0
M  V30 13 H 1.147001 2.102732 -0.701196 0
M  V30 14 H 1.381735 2.870131 1.806452 0
M  V30 15 H 2.766085 1.892551 1.049888 0
M  V30 16 H 2.285852 0.498121 2.973482 0
M  V30 17 H 0.514487 0.968227 2.927616 0
M  V30 END ATOM
M  V30 BEGIN BOND
M  V30 1 2 1 2
M  V30 2 1 2 3
M  V30 3 1 2 4
M  V30 4 1 4 5
M  V30 5 1 5 6
M  V30 6 1 6 7
M  V30 7 1 7 8
M  V30 8 1 8 4
M  V30 9 1 3 9
M  V30 10 1 5 10
M  V30 11 1 5 11
M  V30 12 1 6 12
M  V30 13 1 6 13
M  V30 14 1 7 14
M  V30 15 1 7 15
M  V30 16 1 8 16
M  V30 17 1 8 17
M  V30 END BOND
M  V30 END CTAB
M  END
>  <Dataset>  (731) 
ChEMBL_Kinases

>  <Ligand_Instance>  (731) 
nan

>  <PDB_ID>  (731) 
nan

>  <Standardized_SMILES>  (731) 
S=C(S)N1CCCC1

>  <Name>  (731) 
PYRROLIDINE DITHIOCARBAMATE

>  <Pocket>  (731) 
nan

>  <ATP_Site>  (731) 
nan

>  <Peripheral>  (731) 
nan

>  <Num_H_Atoms_ProtBoundConf>  (731) 
nan

>  <Num_Resolved_Atoms>  (731) 
nan

>  <Num_Not_Resolved_Atoms>  (731) 
nan

$$$$
CHEMBL486663
     RDKit          3D

  0  0  0  0  0  0  0  0  0  0999 V3000
M  V30 BEGIN CTAB
M  V30 COUNTS 59 62 0 0 0
M  V30 BEGIN ATOM
M  V30 1 O 3.963892 -3.329251 0.700189 0
M  V30 2 C 3.001089 -2.567447 1.006361 0
M  V30 3 O 2.809955 -1.534339 1.896509 0
M  V30 4 C 1.449674 -1.177612 2.011202 0
M  V30 5 C 1.037591 -1.072566 3.473051 0
M  V30 6 O 1.787353 -0.104017 4.126681 0
M  V30 7 C 1.187043 0.171680 1.370683 0
M  V30 8 O -0.174609 0.529385 1.490853 0
M  V30 9 C -0.666850 1.709141 0.973929 0
M  V30 10 O 0.324189 2.307748 0.428004 0
M  V30 11 C -2.021375 2.288996 0.974768 0
M  V30 12 C -2.426872 2.529576 2.380519 0
M  V30 13 C -3.103644 3.712290 2.656514 0
M  V30 14 C -3.545459 4.073708 3.918627 0
M  V30 15 C -3.301939 3.212122 4.965794 0
M  V30 16 C -2.627691 2.017576 4.732838 0
M  V30 17 C -2.220372 1.726916 3.458376 0
M  V30 18 C -3.046689 1.424964 0.339830 0
M  V30 19 C -3.002943 0.060084 0.210431 0
M  V30 20 C -3.991852 -0.689402 -0.388427 0
M  V30 21 C -5.085875 -0.006566 -0.882424 0
M  V30 22 C -5.210068 1.381035 -0.792505 0
M  V30 23 C -4.169549 2.038821 -0.176831 0
M  V30 24 C 0.731412 -2.288572 1.314383 0
M  V30 25 C 1.727477 -2.741075 0.301793 0
M  V30 26 C 1.564065 -3.185179 -0.926634 0
M  V30 27 C 2.610146 -3.598192 -1.854558 0
M  V30 28 C 2.341876 -4.798260 -2.528873 0
M  V30 29 C 3.193517 -5.371899 -3.473224 0
M  V30 30 C 4.360261 -4.712000 -3.749719 0
M  V30 31 C 5.327605 -5.268186 -4.755977 0
M  V30 32 F 6.585559 -5.057756 -4.192887 0
M  V30 33 F 5.140699 -6.607636 -4.975512 0
M  V30 34 F 5.259065 -4.522875 -5.910250 0
M  V30 35 C 4.648867 -3.541194 -3.109336 0
M  V30 36 C 3.798460 -2.974603 -2.170945 0
M  V30 37 H -0.027318 -0.820413 3.601542 0
M  V30 38 H 1.152347 -2.078010 3.954246 0
M  V30 39 H 2.494323 -0.607705 4.635822 0
M  V30 40 H 1.508322 0.051967 0.294049 0
M  V30 41 H 1.869670 0.943562 1.780826 0
M  V30 42 H -1.959390 3.263250 0.442409 0
M  V30 43 H -3.312807 4.412640 1.858426 0
M  V30 44 H -4.068552 5.017821 4.058404 0
M  V30 45 H -3.645412 3.498474 5.934851 0
M  V30 46 H -2.424902 1.325861 5.543015 0
M  V30 47 H -1.704806 0.811124 3.272000 0
M  V30 48 H -2.119295 -0.432282 0.615125 0
M  V30 49 H -3.894958 -1.772794 -0.459361 0
M  V30 50 H -5.849853 -0.619096 -1.348324 0
M  V30 51 H -6.088918 1.852576 -1.197424 0
M  V30 52 H -4.345811 3.125705 -0.148087 0
M  V30 53 H 0.588072 -3.120852 2.041355 0
M  V30 54 H -0.224883 -1.973850 0.848760 0
M  V30 55 H 0.525898 -3.252253 -1.294208 0
M  V30 56 H 1.436697 -5.362829 -2.350983 0
M  V30 57 H 2.955506 -6.284819 -3.963657 0
M  V30 58 H 5.567696 -2.964787 -3.288647 0
M  V30 59 H 3.983235 -2.063640 -1.663826 0
M  V30 END ATOM
M  V30 BEGIN BOND
M  V30 1 2 1 2
M  V30 2 1 2 3
M  V30 3 1 3 4
M  V30 4 1 4 5
M  V30 5 1 5 6
M  V30 6 1 4 7
M  V30 7 1 7 8
M  V30 8 1 8 9
M  V30 9 2 9 10
M  V30 10 1 9 11
M  V30 11 1 11 12
M  V30 12 2 12 13
M  V30 13 1 13 14
M  V30 14 2 14 15
M  V30 15 1 15 16
M  V30 16 2 16 17
M  V30 17 1 11 18
M  V30 18 2 18 19
M  V30 19 1 19 20
M  V30 20 2 20 21
M  V30 21 1 21 22
M  V30 22 2 22 23
M  V30 23 1 4 24
M  V30 24 1 24 25
M  V30 25 2 25 26
M  V30 26 1 26 27
M  V30 27 2 27 28
M  V30 28 1 28 29
M  V30 29 2 29 30
M  V30 30 1 30 31
M  V30 31 1 31 32
M  V30 32 1 31 33
M  V30 33 1 31 34
M  V30 34 1 30 35
M  V30 35 2 35 36
M  V30 36 1 25 2
M  V30 37 1 36 27
M  V30 38 1 17 12
M  V30 39 1 23 18
M  V30 40 1 5 37
M  V30 41 1 5 38
M  V30 42 1 6 39
M  V30 43 1 7 40
M  V30 44 1 7 41
M  V30 45 1 11 42
M  V30 46 1 13 43
M  V30 47 1 14 44
M  V30 48 1 15 45
M  V30 49 1 16 46
M  V30 50 1 17 47
M  V30 51 1 19 48
M  V30 52 1 20 49
M  V30 53 1 21 50
M  V30 54 1 22 51
M  V30 55 1 23 52
M  V30 56 1 24 53
M  V30 57 1 24 54
M  V30 58 1 26 55
M  V30 59 1 28 56
M  V30 60 1 29 57
M  V30 61 1 35 58
M  V30 62 1 36 59
M  V30 END BOND
M  V30 END CTAB
M  END
>  <Dataset>  (732) 
ChEMBL_Kinases

>  <Ligand_Instance>  (732) 
nan

>  <PDB_ID>  (732) 
nan

>  <Standardized_SMILES>  (732) 
O=C1OC(CO)(COC(=O)C(c2ccccc2)c2ccccc2)C/C1=C/c1ccc(C(F)(F)F)cc1

>  <Name>  (732) 
nan

>  <Pocket>  (732) 
nan

>  <ATP_Site>  (732) 
nan

>  <Peripheral>  (732) 
nan

>  <Num_H_Atoms_ProtBoundConf>  (732) 
nan

>  <Num_Resolved_Atoms>  (732) 
nan

>  <Num_Not_Resolved_Atoms>  (732) 
nan

$$$$
CHEMBL486665
     RDKit          3D

  0  0  0  0  0  0  0  0  0  0999 V3000
M  V30 BEGIN CTAB
M  V30 COUNTS 53 58 0 0 0
M  V30 BEGIN ATOM
M  V30 1 O 4.258656 1.510420 1.807413 0
M  V30 2 C 3.480490 0.671213 2.328229 0
M  V30 3 N 3.442600 0.218601 3.691098 0
M  V30 4 C 2.400707 -0.729868 3.819477 0
M  V30 5 O 2.247939 -1.210737 4.948592 0
M  V30 6 C 1.744438 -0.913644 2.556669 0
M  V30 7 C 2.406537 -0.071634 1.697818 0
M  V30 8 C 2.019175 0.001456 0.362690 0
M  V30 9 C 2.691967 0.881188 -0.588502 0
M  V30 10 C 3.784829 0.508193 -1.354587 0
M  V30 11 C 4.302354 1.462931 -2.206457 0
M  V30 12 C 3.806106 2.737410 -2.336329 0
M  V30 13 C 2.718183 3.069250 -1.556643 0
M  V30 14 C 2.152635 2.150542 -0.679600 0
M  V30 15 Cl 0.756557 2.649149 0.289476 0
M  V30 16 C 0.971401 -0.773132 -0.090402 0
M  V30 17 C 0.322151 -1.611385 0.792669 0
M  V30 18 C 0.713471 -1.675694 2.110479 0
M  V30 19 C -0.073162 -2.566789 2.775607 0
M  V30 20 C -0.235384 -3.091882 4.021402 0
M  V30 21 C -1.183368 -4.025886 4.368636 0
M  V30 22 O -1.322667 -4.542325 5.651278 0
M  V30 23 C -2.063539 -4.490635 3.383906 0
M  V30 24 C -1.935885 -3.985917 2.106330 0
M  V30 25 C -0.948496 -3.036880 1.821937 0
M  V30 26 N -0.709617 -2.461237 0.629192 0
M  V30 27 C -1.392541 -2.676070 -0.608840 0
M  V30 28 C -2.562497 -1.785552 -0.862347 0
M  V30 29 C -2.255691 -0.323454 -0.900026 0
M  V30 30 N -3.501334 0.377374 -1.154633 0
M  V30 31 C -3.961150 0.673615 -2.386656 0
M  V30 32 C -5.154349 1.333992 -2.298931 0
M  V30 33 N -5.412469 1.434396 -0.992964 0
M  V30 34 C -4.418541 0.859348 -0.309451 0
M  V30 35 H 4.144306 0.617567 4.383671 0
M  V30 36 H 4.167221 -0.493630 -1.245980 0
M  V30 37 H 5.154314 1.202428 -2.816764 0
M  V30 38 H 4.255338 3.457603 -3.028859 0
M  V30 39 H 2.283086 4.052030 -1.612303 0
M  V30 40 H 0.688424 -0.706401 -1.109279 0
M  V30 41 H 0.378875 -2.800564 4.815887 0
M  V30 42 H -1.456150 -3.937421 6.464006 0
M  V30 43 H -2.816947 -5.224798 3.633472 0
M  V30 44 H -2.600196 -4.334891 1.357250 0
M  V30 45 H -1.740123 -3.716830 -0.680306 0
M  V30 46 H -0.707777 -2.545805 -1.495697 0
M  V30 47 H -2.952219 -2.053795 -1.869005 0
M  V30 48 H -3.387217 -1.923094 -0.133608 0
M  V30 49 H -1.545295 -0.092218 -1.735021 0
M  V30 50 H -1.815761 0.017491 0.036025 0
M  V30 51 H -3.504171 0.451763 -3.362089 0
M  V30 52 H -5.767691 1.702390 -3.131265 0
M  V30 53 H -4.281458 0.747836 0.760936 0
M  V30 END ATOM
M  V30 BEGIN BOND
M  V30 1 2 1 2
M  V30 2 1 2 3
M  V30 3 1 3 4
M  V30 4 2 4 5
M  V30 5 1 4 6
M  V30 6 2 6 7
M  V30 7 1 7 8
M  V30 8 1 8 9
M  V30 9 2 9 10
M  V30 10 1 10 11
M  V30 11 2 11 12
M  V30 12 1 12 13
M  V30 13 2 13 14
M  V30 14 1 14 15
M  V30 15 2 8 16
M  V30 16 1 16 17
M  V30 17 2 17 18
M  V30 18 1 18 19
M  V30 19 2 19 20
M  V30 20 1 20 21
M  V30 21 1 21 22
M  V30 22 2 21 23
M  V30 23 1 23 24
M  V30 24 2 24 25
M  V30 25 1 25 26
M  V30 26 1 26 27
M  V30 27 1 27 28
M  V30 28 1 28 29
M  V30 29 1 29 30
M  V30 30 1 30 31
M  V30 31 2 31 32
M  V30 32 1 32 33
M  V30 33 2 33 34
M  V30 34 1 7 2
M  V30 35 1 14 9
M  V30 36 1 26 17
M  V30 37 1 34 30
M  V30 38 1 18 6
M  V30 39 1 25 19
M  V30 40 1 3 35
M  V30 41 1 10 36
M  V30 42 1 11 37
M  V30 43 1 12 38
M  V30 44 1 13 39
M  V30 45 1 16 40
M  V30 46 1 20 41
M  V30 47 1 22 42
M  V30 48 1 23 43
M  V30 49 1 24 44
M  V30 50 1 27 45
M  V30 51 1 27 46
M  V30 52 1 28 47
M  V30 53 1 28 48
M  V30 54 1 29 49
M  V30 55 1 29 50
M  V30 56 1 31 51
M  V30 57 1 32 52
M  V30 58 1 34 53
M  V30 END BOND
M  V30 END CTAB
M  END
>  <Dataset>  (733) 
ChEMBL_Kinases

>  <Ligand_Instance>  (733) 
nan

>  <PDB_ID>  (733) 
nan

>  <Standardized_SMILES>  (733) 
O=C1NC(=O)c2c1c(-c1ccccc1Cl)cc1c2c2cc(O)ccc2n1CCCn1ccnc1

>  <Name>  (733) 
nan

>  <Pocket>  (733) 
nan

>  <ATP_Site>  (733) 
nan

>  <Peripheral>  (733) 
nan

>  <Num_H_Atoms_ProtBoundConf>  (733) 
nan

>  <Num_Resolved_Atoms>  (733) 
nan

>  <Num_Not_Resolved_Atoms>  (733) 
nan

$$$$
CHEMBL399368
     RDKit          3D

  0  0  0  0  0  0  0  0  0  0999 V3000
M  V30 BEGIN CTAB
M  V30 COUNTS 50 53 0 0 0
M  V30 BEGIN ATOM
M  V30 1 C 5.461376 -5.312037 2.141266 0
M  V30 2 N 4.110795 -5.305155 1.612158 0
M  V30 3 C 2.959934 -4.800816 2.253537 0
M  V30 4 O 3.191316 -4.323981 3.391590 0
M  V30 5 C 1.713760 -4.923895 1.481779 0
M  V30 6 N 0.588787 -4.381142 2.220946 0
M  V30 7 C 1.794188 -4.336005 0.099516 0
M  V30 8 C 2.103084 -2.905856 0.052822 0
M  V30 9 C 3.373355 -2.383025 -0.010180 0
M  V30 10 C 3.617027 -1.012069 -0.052849 0
M  V30 11 C 2.558890 -0.104678 -0.032691 0
M  V30 12 C 1.299934 -0.659550 0.030628 0
M  V30 13 C 0.184638 0.263558 0.052618 0
M  V30 14 C -1.170309 0.013696 0.112457 0
M  V30 15 C -2.062244 1.033635 0.123212 0
M  V30 16 N -3.400453 1.051441 0.175890 0
M  V30 17 C -4.074011 2.189010 0.175110 0
M  V30 18 N -5.499723 2.072117 0.234530 0
M  V30 19 C -6.196073 0.804803 0.292814 0
M  V30 20 C -3.525189 3.447117 0.122900 0
M  V30 21 N -3.929056 4.704944 0.108505 0
M  V30 22 C -2.875348 5.537193 0.046556 0
M  V30 23 C -1.707104 4.769304 0.018767 0
M  V30 24 C -0.329975 5.265658 -0.047896 0
M  V30 25 N -2.197495 3.549020 0.067746 0
M  V30 26 C -1.494625 2.343948 0.068997 0
M  V30 27 S 0.352013 1.999131 0.004013 0
M  V30 28 C 1.038178 -2.013460 0.073606 0
M  V30 29 H 6.039785 -4.504130 1.624688 0
M  V30 30 H 5.505962 -5.071771 3.228457 0
M  V30 31 H 5.963273 -6.294258 2.019595 0
M  V30 32 H 4.118869 -5.744209 0.653349 0
M  V30 33 H 1.514840 -6.007290 1.342850 0
M  V30 34 H -0.279341 -4.820429 1.872549 0
M  V30 35 H 0.755540 -4.469729 3.227228 0
M  V30 36 H 0.811284 -4.511968 -0.383171 0
M  V30 37 H 2.551549 -4.959988 -0.449671 0
M  V30 38 H 4.210975 -3.038197 -0.027692 0
M  V30 39 H 4.631411 -0.644636 -0.101957 0
M  V30 40 H 2.765228 0.946298 -0.066170 0
M  V30 41 H -1.480211 -1.018924 0.149727 0
M  V30 42 H -6.090533 2.928040 0.237287 0
M  V30 43 H -6.307883 0.515908 1.362445 0
M  V30 44 H -7.194581 0.890477 -0.158280 0
M  V30 45 H -5.614072 -0.026255 -0.172979 0
M  V30 46 H -2.969682 6.622467 0.024052 0
M  V30 47 H 0.355025 4.666964 0.565634 0
M  V30 48 H 0.041344 5.407371 -1.098047 0
M  V30 49 H -0.333482 6.309968 0.377718 0
M  V30 50 H 0.020556 -2.400053 0.123307 0
M  V30 END ATOM
M  V30 BEGIN BOND
M  V30 1 1 1 2
M  V30 2 1 2 3
M  V30 3 2 3 4
M  V30 4 1 3 5
M  V30 5 1 5 6
M  V30 6 1 5 7
M  V30 7 1 7 8
M  V30 8 2 8 9
M  V30 9 1 9 10
M  V30 10 2 10 11
M  V30 11 1 11 12
M  V30 12 1 12 13
M  V30 13 2 13 14
M  V30 14 1 14 15
M  V30 15 1 15 16
M  V30 16 2 16 17
M  V30 17 1 17 18
M  V30 18 1 18 19
M  V30 19 1 17 20
M  V30 20 2 20 21
M  V30 21 1 21 22
M  V30 22 2 22 23
M  V30 23 1 23 24
M  V30 24 1 23 25
M  V30 25 1 25 26
M  V30 26 1 26 27
M  V30 27 2 12 28
M  V30 28 1 28 8
M  V30 29 1 27 13
M  V30 30 2 26 15
M  V30 31 1 25 20
M  V30 32 1 1 29
M  V30 33 1 1 30
M  V30 34 1 1 31
M  V30 35 1 2 32
M  V30 36 1 5 33
M  V30 37 1 6 34
M  V30 38 1 6 35
M  V30 39 1 7 36
M  V30 40 1 7 37
M  V30 41 1 9 38
M  V30 42 1 10 39
M  V30 43 1 11 40
M  V30 44 1 14 41
M  V30 45 1 18 42
M  V30 46 1 19 43
M  V30 47 1 19 44
M  V30 48 1 19 45
M  V30 49 1 22 46
M  V30 50 1 24 47
M  V30 51 1 24 48
M  V30 52 1 24 49
M  V30 53 1 28 50
M  V30 END BOND
M  V30 END CTAB
M  END
>  <Dataset>  (734) 
ChEMBL_Kinases

>  <Ligand_Instance>  (734) 
nan

>  <PDB_ID>  (734) 
nan

>  <Standardized_SMILES>  (734) 
CNC(=O)C(N)Cc1cccc(-c2cc3nc(NC)c4ncc(C)n4c3s2)c1

>  <Name>  (734) 
nan

>  <Pocket>  (734) 
nan

>  <ATP_Site>  (734) 
nan

>  <Peripheral>  (734) 
nan

>  <Num_H_Atoms_ProtBoundConf>  (734) 
nan

>  <Num_Resolved_Atoms>  (734) 
nan

>  <Num_Not_Resolved_Atoms>  (734) 
nan

$$$$
CHEMBL94783
     RDKit          3D

  0  0  0  0  0  0  0  0  0  0999 V3000
M  V30 BEGIN CTAB
M  V30 COUNTS 48 51 0 0 0
M  V30 BEGIN ATOM
M  V30 1 C 1.954810 -2.033111 5.673222 0
M  V30 2 O 1.740370 -1.520759 4.373794 0
M  V30 3 C 0.707071 -1.884607 3.548155 0
M  V30 4 O -0.107340 -2.745995 4.000090 0
M  V30 5 C 0.562841 -1.300408 2.214384 0
M  V30 6 C 1.454276 -0.359544 1.723537 0
M  V30 7 C 1.270563 0.159924 0.455753 0
M  V30 8 C 2.276433 1.149837 0.039545 0
M  V30 9 C 3.466916 0.925787 -0.614456 0
M  V30 10 C 4.282601 1.972209 -0.923782 0
M  V30 11 C 3.987556 3.285507 -0.616232 0
M  V30 12 F 4.801135 4.322655 -0.925522 0
M  V30 13 C 2.784445 3.479420 0.040944 0
M  V30 14 C 1.908045 2.454384 0.384777 0
M  V30 15 C 0.635824 2.813845 1.097545 0
M  V30 16 C 0.201286 -0.251190 -0.332254 0
M  V30 17 C -0.684244 -1.187530 0.158620 0
M  V30 18 C -0.511229 -1.712994 1.422127 0
M  V30 19 N -1.747488 -1.552602 -0.708890 0
M  V30 20 C -2.679997 -2.523824 -0.220415 0
M  V30 21 C -3.742742 -1.923274 0.448601 0
M  V30 22 Cl -3.953024 -0.198029 0.686657 0
M  V30 23 C -4.743171 -2.711704 0.989326 0
M  V30 24 C -4.720424 -4.090298 0.885158 0
M  V30 25 C -3.651643 -4.645545 0.215547 0
M  V30 26 C -2.632979 -3.899158 -0.338745 0
M  V30 27 Cl -1.257202 -4.512429 -1.194026 0
M  V30 28 C -1.932906 -1.015520 -2.013028 0
M  V30 29 O -2.868391 -1.342410 -2.765393 0
M  V30 30 N -0.964112 -0.070113 -2.398501 0
M  V30 31 C 0.180784 0.423041 -1.656282 0
M  V30 32 H 2.342541 -1.201846 6.298756 0
M  V30 33 H 2.627749 -2.923806 5.688402 0
M  V30 34 H 0.982957 -2.342692 6.144569 0
M  V30 35 H 2.263066 -0.081535 2.382826 0
M  V30 36 H 3.656369 -0.107452 -0.833903 0
M  V30 37 H 5.210478 1.771708 -1.436502 0
M  V30 38 H 2.511207 4.496671 0.302750 0
M  V30 39 H -0.199779 2.168144 0.796494 0
M  V30 40 H 0.363836 3.839831 0.782608 0
M  V30 41 H 0.788900 2.848183 2.199846 0
M  V30 42 H -1.235994 -2.451685 1.770810 0
M  V30 43 H -5.609233 -2.310928 1.528693 0
M  V30 44 H -5.495263 -4.731933 1.301910 0
M  V30 45 H -3.539410 -5.718063 0.078511 0
M  V30 46 H -1.049735 0.367139 -3.363932 0
M  V30 47 H 0.042103 1.524630 -1.526819 0
M  V30 48 H 1.066169 0.180857 -2.270549 0
M  V30 END ATOM
M  V30 BEGIN BOND
M  V30 1 1 1 2
M  V30 2 1 2 3
M  V30 3 2 3 4
M  V30 4 1 3 5
M  V30 5 2 5 6
M  V30 6 1 6 7
M  V30 7 1 7 8
M  V30 8 2 8 9
M  V30 9 1 9 10
M  V30 10 2 10 11
M  V30 11 1 11 12
M  V30 12 1 11 13
M  V30 13 2 13 14
M  V30 14 1 14 15
M  V30 15 2 7 16
M  V30 16 1 16 17
M  V30 17 2 17 18
M  V30 18 1 17 19
M  V30 19 1 19 20
M  V30 20 2 20 21
M  V30 21 1 21 22
M  V30 22 1 21 23
M  V30 23 2 23 24
M  V30 24 1 24 25
M  V30 25 2 25 26
M  V30 26 1 26 27
M  V30 27 1 19 28
M  V30 28 2 28 29
M  V30 29 1 28 30
M  V30 30 1 30 31
M  V30 31 1 18 5
M  V30 32 1 26 20
M  V30 33 1 14 8
M  V30 34 1 31 16
M  V30 35 1 1 32
M  V30 36 1 1 33
M  V30 37 1 1 34
M  V30 38 1 6 35
M  V30 39 1 9 36
M  V30 40 1 10 37
M  V30 41 1 13 38
M  V30 42 1 15 39
M  V30 43 1 15 40
M  V30 44 1 15 41
M  V30 45 1 18 42
M  V30 46 1 23 43
M  V30 47 1 24 44
M  V30 48 1 25 45
M  V30 49 1 30 46
M  V30 50 1 31 47
M  V30 51 1 31 48
M  V30 END BOND
M  V30 END CTAB
M  END
>  <Dataset>  (735) 
ChEMBL_Kinases

>  <Ligand_Instance>  (735) 
nan

>  <PDB_ID>  (735) 
nan

>  <Standardized_SMILES>  (735) 
COC(=O)c1cc(-c2ccc(F)cc2C)c2c(c1)N(c1c(Cl)cccc1Cl)C(=O)NC2

>  <Name>  (735) 
nan

>  <Pocket>  (735) 
nan

>  <ATP_Site>  (735) 
nan

>  <Peripheral>  (735) 
nan

>  <Num_H_Atoms_ProtBoundConf>  (735) 
nan

>  <Num_Resolved_Atoms>  (735) 
nan

>  <Num_Not_Resolved_Atoms>  (735) 
nan

$$$$
CHEMBL399287
     RDKit          3D

  0  0  0  0  0  0  0  0  0  0999 V3000
M  V30 BEGIN CTAB
M  V30 COUNTS 42 45 0 0 0
M  V30 BEGIN ATOM
M  V30 1 C -0.019784 -5.814235 3.560440 0
M  V30 2 S 0.666859 -4.269690 4.160797 0
M  V30 3 C 1.588933 -3.407987 2.896494 0
M  V30 4 C 2.933657 -3.536886 2.621866 0
M  V30 5 N 3.125766 -2.702067 1.616289 0
M  V30 6 N 2.002090 -2.076079 1.258668 0
M  V30 7 C 1.788941 -1.149674 0.275555 0
M  V30 8 N 2.815901 -0.684085 -0.587290 0
M  V30 9 C 2.909413 0.287395 -1.631429 0
M  V30 10 C 2.688452 1.691257 -1.174763 0
M  V30 11 C 1.567252 2.485608 -1.178149 0
M  V30 12 C 1.621164 3.764050 -0.672312 0
M  V30 13 C 2.741022 4.344285 -0.141950 0
M  V30 14 N 3.840571 3.569589 -0.137561 0
M  V30 15 C 3.818583 2.314525 -0.625342 0
M  V30 16 C 0.487057 -0.712440 0.186613 0
M  V30 17 C -0.562607 -1.121112 0.978024 0
M  V30 18 C -1.935736 -0.651760 0.876360 0
M  V30 19 C -2.854899 -1.176968 1.759384 0
M  V30 20 C -4.188257 -0.816508 1.769793 0
M  V30 21 C -4.649458 0.126236 0.847057 0
M  V30 22 C -3.730467 0.651894 -0.036520 0
M  V30 23 C -2.404787 0.276540 -0.027530 0
M  V30 24 N -0.270597 -2.036291 1.923965 0
M  V30 25 C 1.005264 -2.495763 2.045731 0
M  V30 26 H -0.332281 -5.742575 2.487263 0
M  V30 27 H 0.676660 -6.662325 3.627884 0
M  V30 28 H -0.951520 -6.067030 4.134360 0
M  V30 29 H 3.610297 -4.191494 3.151946 0
M  V30 30 H 3.732904 -1.199999 -0.389817 0
M  V30 31 H 2.218429 0.047395 -2.485194 0
M  V30 32 H 3.927413 0.252931 -2.066183 0
M  V30 33 H 0.702491 2.008484 -1.611235 0
M  V30 34 H 0.661790 4.277685 -0.738617 0
M  V30 35 H 2.598041 5.354190 0.206767 0
M  V30 36 H 4.790996 1.829354 -0.544504 0
M  V30 37 H 0.196637 0.005123 -0.545762 0
M  V30 38 H -2.611037 -1.922431 2.526795 0
M  V30 39 H -4.923732 -1.214597 2.450948 0
M  V30 40 H -5.670143 0.487712 0.758012 0
M  V30 41 H -4.046751 1.386300 -0.768759 0
M  V30 42 H -1.699635 0.698899 -0.726381 0
M  V30 END ATOM
M  V30 BEGIN BOND
M  V30 1 1 1 2
M  V30 2 1 2 3
M  V30 3 1 3 4
M  V30 4 2 4 5
M  V30 5 1 5 6
M  V30 6 1 6 7
M  V30 7 1 7 8
M  V30 8 1 8 9
M  V30 9 1 9 10
M  V30 10 2 10 11
M  V30 11 1 11 12
M  V30 12 2 12 13
M  V30 13 1 13 14
M  V30 14 2 14 15
M  V30 15 2 7 16
M  V30 16 1 16 17
M  V30 17 1 17 18
M  V30 18 2 18 19
M  V30 19 1 19 20
M  V30 20 2 20 21
M  V30 21 1 21 22
M  V30 22 2 22 23
M  V30 23 2 17 24
M  V30 24 1 24 25
M  V30 25 2 25 3
M  V30 26 1 25 6
M  V30 27 1 15 10
M  V30 28 1 23 18
M  V30 29 1 1 26
M  V30 30 1 1 27
M  V30 31 1 1 28
M  V30 32 1 4 29
M  V30 33 1 8 30
M  V30 34 1 9 31
M  V30 35 1 9 32
M  V30 36 1 11 33
M  V30 37 1 12 34
M  V30 38 1 13 35
M  V30 39 1 15 36
M  V30 40 1 16 37
M  V30 41 1 19 38
M  V30 42 1 20 39
M  V30 43 1 21 40
M  V30 44 1 22 41
M  V30 45 1 23 42
M  V30 END BOND
M  V30 END CTAB
M  END
>  <Dataset>  (736) 
ChEMBL_Kinases

>  <Ligand_Instance>  (736) 
nan

>  <PDB_ID>  (736) 
nan

>  <Standardized_SMILES>  (736) 
CSc1cnn2c(NCc3cccnc3)cc(-c3ccccc3)nc12

>  <Name>  (736) 
nan

>  <Pocket>  (736) 
nan

>  <ATP_Site>  (736) 
nan

>  <Peripheral>  (736) 
nan

>  <Num_H_Atoms_ProtBoundConf>  (736) 
nan

>  <Num_Resolved_Atoms>  (736) 
nan

>  <Num_Not_Resolved_Atoms>  (736) 
nan

$$$$
CHEMBL399258
     RDKit          3D

  0  0  0  0  0  0  0  0  0  0999 V3000
M  V30 BEGIN CTAB
M  V30 COUNTS 62 66 0 0 0
M  V30 BEGIN ATOM
M  V30 1 C 2.579942 2.178518 5.786506 0
M  V30 2 N 3.662049 1.248517 5.838216 0
M  V30 3 C 3.436848 0.067259 6.603133 0
M  V30 4 C 4.348185 1.075108 4.595780 0
M  V30 5 C 3.530884 0.584426 3.482419 0
M  V30 6 C 2.892591 1.492797 2.664688 0
M  V30 7 C 2.095751 1.172434 1.585769 0
M  V30 8 N 1.921102 -0.153279 1.299139 0
M  V30 9 C 1.205896 -0.779873 0.317467 0
M  V30 10 C 0.447276 -0.026436 -0.667471 0
M  V30 11 C 1.276116 0.771817 -1.459413 0
M  V30 12 C 0.724940 1.565056 -2.450883 0
M  V30 13 N -0.607354 1.557137 -2.639920 0
M  V30 14 C -1.422584 0.778376 -1.868289 0
M  V30 15 N -2.833895 0.749935 -2.037994 0
M  V30 16 C -3.764362 -0.048587 -1.267233 0
M  V30 17 C -3.497150 -1.509860 -1.410719 0
M  V30 18 C -4.275729 -2.170459 -2.514150 0
M  V30 19 C -5.736875 -1.830278 -2.309604 0
M  V30 20 C -5.855914 -0.346625 -2.626676 0
M  V30 21 C -5.159244 0.380144 -1.508279 0
M  V30 22 N -0.877625 0.011053 -0.907670 0
M  V30 23 C 1.405518 -2.128096 0.531001 0
M  V30 24 C 0.810030 -3.155898 -0.307310 0
M  V30 25 C -0.519719 -3.460657 -0.509135 0
M  V30 26 C -0.855317 -4.491770 -1.360916 0
M  V30 27 C 0.084069 -5.242765 -2.029366 0
M  V30 28 F -0.353590 -6.244445 -2.852726 0
M  V30 29 C 1.439503 -4.961375 -1.848201 0
M  V30 30 C 1.745811 -3.925387 -0.991084 0
M  V30 31 N 2.207678 -2.316218 1.596495 0
M  V30 32 C 2.527591 -1.080941 2.073526 0
M  V30 33 C 3.326177 -0.736972 3.155762 0
M  V30 34 H 2.432149 2.576345 6.822057 0
M  V30 35 H 2.914695 3.048542 5.191037 0
M  V30 36 H 1.614347 1.742026 5.449753 0
M  V30 37 H 3.699900 0.201943 7.690715 0
M  V30 38 H 3.945239 -0.827518 6.242443 0
M  V30 39 H 2.336201 -0.161209 6.622353 0
M  V30 40 H 5.210210 0.392082 4.715659 0
M  V30 41 H 4.789971 2.064645 4.313066 0
M  V30 42 H 2.994795 2.568079 2.844065 0
M  V30 43 H 1.621152 1.936654 0.981173 0
M  V30 44 H 2.365387 0.841508 -1.377560 0
M  V30 45 H 1.337808 2.194516 -3.081448 0
M  V30 46 H -3.215356 1.365206 -2.789378 0
M  V30 47 H -3.539439 0.188379 -0.183726 0
M  V30 48 H -3.669666 -2.069204 -0.477817 0
M  V30 49 H -2.424784 -1.624272 -1.674127 0
M  V30 50 H -4.167905 -3.258906 -2.412557 0
M  V30 51 H -3.990873 -1.796454 -3.519887 0
M  V30 52 H -6.403366 -2.438321 -2.950631 0
M  V30 53 H -5.943513 -1.953623 -1.217752 0
M  V30 54 H -5.422184 -0.110081 -3.615071 0
M  V30 55 H -6.933071 -0.117304 -2.558657 0
M  V30 56 H -5.152412 1.459488 -1.764754 0
M  V30 57 H -5.800233 0.249035 -0.600679 0
M  V30 58 H -1.191822 -2.826316 0.050923 0
M  V30 59 H -1.922628 -4.687152 -1.481630 0
M  V30 60 H 2.160562 -5.546720 -2.368629 0
M  V30 61 H 2.832310 -3.770021 -0.904527 0
M  V30 62 H 3.812744 -1.486244 3.776431 0
M  V30 END ATOM
M  V30 BEGIN BOND
M  V30 1 1 1 2
M  V30 2 1 2 3
M  V30 3 1 2 4
M  V30 4 1 4 5
M  V30 5 1 5 6
M  V30 6 2 6 7
M  V30 7 1 7 8
M  V30 8 1 8 9
M  V30 9 1 9 10
M  V30 10 2 10 11
M  V30 11 1 11 12
M  V30 12 2 12 13
M  V30 13 1 13 14
M  V30 14 1 14 15
M  V30 15 1 15 16
M  V30 16 1 16 17
M  V30 17 1 17 18
M  V30 18 1 18 19
M  V30 19 1 19 20
M  V30 20 1 20 21
M  V30 21 2 14 22
M  V30 22 2 9 23
M  V30 23 1 23 24
M  V30 24 2 24 25
M  V30 25 1 25 26
M  V30 26 2 26 27
M  V30 27 1 27 28
M  V30 28 1 27 29
M  V30 29 2 29 30
M  V30 30 1 23 31
M  V30 31 2 31 32
M  V30 32 1 32 33
M  V30 33 2 33 5
M  V30 34 1 32 8
M  V30 35 1 22 10
M  V30 36 1 30 24
M  V30 37 1 21 16
M  V30 38 1 1 34
M  V30 39 1 1 35
M  V30 40 1 1 36
M  V30 41 1 3 37
M  V30 42 1 3 38
M  V30 43 1 3 39
M  V30 44 1 4 40
M  V30 45 1 4 41
M  V30 46 1 6 42
M  V30 47 1 7 43
M  V30 48 1 11 44
M  V30 49 1 12 45
M  V30 50 1 15 46
M  V30 51 1 16 47
M  V30 52 1 17 48
M  V30 53 1 17 49
M  V30 54 1 18 50
M  V30 55 1 18 51
M  V30 56 1 19 52
M  V30 57 1 19 53
M  V30 58 1 20 54
M  V30 59 1 20 55
M  V30 60 1 21 56
M  V30 61 1 21 57
M  V30 62 1 25 58
M  V30 63 1 26 59
M  V30 64 1 29 60
M  V30 65 1 30 61
M  V30 66 1 33 62
M  V30 END BOND
M  V30 END CTAB
M  END
>  <Dataset>  (737) 
ChEMBL_Kinases

>  <Ligand_Instance>  (737) 
nan

>  <PDB_ID>  (737) 
nan

>  <Standardized_SMILES>  (737) 
CN(C)Cc1ccn2c(-c3ccnc(NC4CCCCC4)n3)c(-c3ccc(F)cc3)nc2c1

>  <Name>  (737) 
nan

>  <Pocket>  (737) 
nan

>  <ATP_Site>  (737) 
nan

>  <Peripheral>  (737) 
nan

>  <Num_H_Atoms_ProtBoundConf>  (737) 
nan

>  <Num_Resolved_Atoms>  (737) 
nan

>  <Num_Not_Resolved_Atoms>  (737) 
nan

$$$$
CHEMBL399085
     RDKit          3D

  0  0  0  0  0  0  0  0  0  0999 V3000
M  V30 BEGIN CTAB
M  V30 COUNTS 57 60 0 0 0
M  V30 BEGIN ATOM
M  V30 1 C 0.929540 -2.345986 4.697252 0
M  V30 2 C 2.211909 -3.012027 4.216727 0
M  V30 3 C 3.204398 -1.918814 3.866228 0
M  V30 4 C 2.668122 -1.041800 2.793922 0
M  V30 5 O 1.523723 -1.307239 2.333621 0
M  V30 6 N 3.438642 0.048374 2.324099 0
M  V30 7 C 2.894615 0.885851 1.280698 0
M  V30 8 N 3.605979 1.941574 0.813810 0
M  V30 9 C 3.069075 2.698658 -0.156237 0
M  V30 10 C 1.825423 2.444085 -0.694062 0
M  V30 11 C 1.103714 1.368957 -0.216941 0
M  V30 12 C -0.217071 0.862608 -0.581143 0
M  V30 13 C -1.458311 1.427246 -0.417849 0
M  V30 14 C -1.737816 2.721597 0.192480 0
M  V30 15 C -1.393673 3.983326 -0.198087 0
M  V30 16 C -1.763090 5.088901 0.538494 0
M  V30 17 C -2.492973 4.876587 1.684420 0
M  V30 18 F -2.845955 5.991056 2.395828 0
M  V30 19 C -2.865658 3.626903 2.122264 0
M  V30 20 C -2.482557 2.528351 1.364773 0
M  V30 21 N -2.373529 0.565215 -0.922097 0
M  V30 22 C -1.717844 -0.533274 -1.399252 0
M  V30 23 C -2.215953 -1.690662 -2.010183 0
M  V30 24 C -1.327486 -2.688697 -2.417280 0
M  V30 25 C -1.841479 -3.913070 -3.063442 0
M  V30 26 N -2.157018 -4.974454 -2.145680 0
M  V30 27 C -2.656420 -6.157666 -2.807756 0
M  V30 28 C -1.144128 -5.235325 -1.167256 0
M  V30 29 C 0.038246 -2.482731 -2.192543 0
M  V30 30 C 0.464063 -1.299969 -1.575931 0
M  V30 31 N -0.402840 -0.345609 -1.188262 0
M  V30 32 N 1.677907 0.618149 0.770335 0
M  V30 33 H 0.547385 -2.798570 5.617473 0
M  V30 34 H 1.088245 -1.259066 4.837347 0
M  V30 35 H 0.166568 -2.471666 3.896406 0
M  V30 36 H 2.604895 -3.667165 5.018782 0
M  V30 37 H 2.024896 -3.638065 3.323872 0
M  V30 38 H 3.425397 -1.331025 4.800111 0
M  V30 39 H 4.113795 -2.402780 3.492156 0
M  V30 40 H 4.384341 0.279511 2.694419 0
M  V30 41 H 3.547660 3.567446 -0.605119 0
M  V30 42 H 1.295338 2.970459 -1.465831 0
M  V30 43 H -0.828834 3.997252 -1.107810 0
M  V30 44 H -1.458755 6.061118 0.175388 0
M  V30 45 H -3.437587 3.556494 3.032423 0
M  V30 46 H -2.826836 1.587955 1.796278 0
M  V30 47 H -3.300040 -1.785092 -2.154484 0
M  V30 48 H -2.757500 -3.669999 -3.635814 0
M  V30 49 H -1.123662 -4.291702 -3.848799 0
M  V30 50 H -3.568160 -6.489913 -2.260052 0
M  V30 51 H -2.989516 -5.966562 -3.849003 0
M  V30 52 H -1.933408 -6.989961 -2.744244 0
M  V30 53 H -1.147792 -4.457773 -0.389762 0
M  V30 54 H -1.439830 -6.175253 -0.642558 0
M  V30 55 H -0.150365 -5.430788 -1.602111 0
M  V30 56 H 0.723334 -3.242291 -2.501424 0
M  V30 57 H 1.540889 -1.196431 -1.427504 0
M  V30 END ATOM
M  V30 BEGIN BOND
M  V30 1 1 1 2
M  V30 2 1 2 3
M  V30 3 1 3 4
M  V30 4 2 4 5
M  V30 5 1 4 6
M  V30 6 1 6 7
M  V30 7 2 7 8
M  V30 8 1 8 9
M  V30 9 2 9 10
M  V30 10 1 10 11
M  V30 11 1 11 12
M  V30 12 2 12 13
M  V30 13 1 13 14
M  V30 14 2 14 15
M  V30 15 1 15 16
M  V30 16 2 16 17
M  V30 17 1 17 18
M  V30 18 1 17 19
M  V30 19 2 19 20
M  V30 20 1 13 21
M  V30 21 2 21 22
M  V30 22 1 22 23
M  V30 23 2 23 24
M  V30 24 1 24 25
M  V30 25 1 25 26
M  V30 26 1 26 27
M  V30 27 1 26 28
M  V30 28 1 24 29
M  V30 29 2 29 30
M  V30 30 1 30 31
M  V30 31 2 11 32
M  V30 32 1 32 7
M  V30 33 1 31 12
M  V30 34 1 20 14
M  V30 35 1 31 22
M  V30 36 1 1 33
M  V30 37 1 1 34
M  V30 38 1 1 35
M  V30 39 1 2 36
M  V30 40 1 2 37
M  V30 41 1 3 38
M  V30 42 1 3 39
M  V30 43 1 6 40
M  V30 44 1 9 41
M  V30 45 1 10 42
M  V30 46 1 15 43
M  V30 47 1 16 44
M  V30 48 1 19 45
M  V30 49 1 20 46
M  V30 50 1 23 47
M  V30 51 1 25 48
M  V30 52 1 25 49
M  V30 53 1 27 50
M  V30 54 1 27 51
M  V30 55 1 27 52
M  V30 56 1 28 53
M  V30 57 1 28 54
M  V30 58 1 28 55
M  V30 59 1 29 56
M  V30 60 1 30 57
M  V30 END BOND
M  V30 END CTAB
M  END
>  <Dataset>  (738) 
ChEMBL_Kinases

>  <Ligand_Instance>  (738) 
nan

>  <PDB_ID>  (738) 
nan

>  <Standardized_SMILES>  (738) 
CCCC(=O)Nc1nccc(-c2c(-c3ccc(F)cc3)nc3cc(CN(C)C)ccn23)n1

>  <Name>  (738) 
nan

>  <Pocket>  (738) 
nan

>  <ATP_Site>  (738) 
nan

>  <Peripheral>  (738) 
nan

>  <Num_H_Atoms_ProtBoundConf>  (738) 
nan

>  <Num_Resolved_Atoms>  (738) 
nan

>  <Num_Not_Resolved_Atoms>  (738) 
nan

$$$$
CHEMBL399215
     RDKit          3D

  0  0  0  0  0  0  0  0  0  0999 V3000
M  V30 BEGIN CTAB
M  V30 COUNTS 61 66 0 0 0
M  V30 BEGIN ATOM
M  V30 1 C 3.743439 -1.889050 4.430285 0
M  V30 2 N 3.867539 -0.922244 5.502858 0
M  V30 3 C 4.815310 0.106407 5.228654 0
M  V30 4 C 4.197396 1.074148 4.260290 0
M  V30 5 N 2.943097 1.569462 4.672894 0
M  V30 6 C 2.333537 2.552944 3.817255 0
M  V30 7 C 2.109524 2.012543 2.458268 0
M  V30 8 C 3.203105 2.211839 1.622846 0
M  V30 9 C 3.196734 1.780782 0.298461 0
M  V30 10 C 2.086571 1.139773 -0.209848 0
M  V30 11 C 1.005106 0.945385 0.625023 0
M  V30 12 C 1.020191 1.375906 1.935845 0
M  V30 13 C -0.136851 0.244679 -0.023564 0
M  V30 14 C 0.383921 0.032326 -1.378164 0
M  V30 15 C 0.076862 -0.503864 -2.635354 0
M  V30 16 C -1.190684 -1.148162 -2.951365 0
M  V30 17 C -1.653134 -2.055990 -1.994679 0
M  V30 18 C -2.859094 -2.721355 -2.209699 0
M  V30 19 C -3.635046 -2.522362 -3.346461 0
M  V30 20 C -4.884724 -3.260880 -3.490435 0
M  V30 21 C -5.562407 -3.557713 -2.319998 0
M  V30 22 C -6.759757 -4.255454 -2.336112 0
M  V30 23 C -7.249556 -4.643707 -3.578627 0
M  V30 24 O -8.436942 -5.352773 -3.800041 0
M  V30 25 C -6.574778 -4.348688 -4.750223 0
M  V30 26 C -5.379064 -3.649240 -4.702578 0
M  V30 27 C -3.144001 -1.618988 -4.265914 0
M  V30 28 C -1.955496 -0.945988 -4.081492 0
M  V30 29 N 1.168436 -0.290356 -3.426817 0
M  V30 30 N 2.110226 0.333586 -2.742826 0
M  V30 31 C 1.674810 0.550537 -1.488318 0
M  V30 32 C 2.029565 0.711487 5.305112 0
M  V30 33 C 2.585958 -0.491101 5.982859 0
M  V30 34 H 2.919872 -2.585123 4.677524 0
M  V30 35 H 3.591923 -1.382875 3.455412 0
M  V30 36 H 4.671663 -2.472835 4.343987 0
M  V30 37 H 5.673015 -0.378571 4.711814 0
M  V30 38 H 5.123452 0.596628 6.167340 0
M  V30 39 H 4.895545 1.936303 4.166113 0
M  V30 40 H 4.193779 0.578733 3.258089 0
M  V30 41 H 2.885431 3.514345 3.803343 0
M  V30 42 H 1.323085 2.783653 4.262393 0
M  V30 43 H 4.151482 2.699353 1.870915 0
M  V30 44 H 4.018679 1.910210 -0.392098 0
M  V30 45 H 0.205244 1.255229 2.635107 0
M  V30 46 H -0.429220 -0.667290 0.519338 0
M  V30 47 H -1.019476 0.942943 -0.020602 0
M  V30 48 H -1.158964 -2.311319 -1.066778 0
M  V30 49 H -3.238558 -3.438953 -1.468912 0
M  V30 50 H -5.264645 -3.299109 -1.298009 0
M  V30 51 H -7.351700 -4.528980 -1.485462 0
M  V30 52 H -8.648658 -6.145336 -3.219137 0
M  V30 53 H -6.905370 -4.623151 -5.736992 0
M  V30 54 H -4.838816 -3.408260 -5.584959 0
M  V30 55 H -3.726513 -1.443135 -5.161119 0
M  V30 56 H -1.569529 -0.243802 -4.791532 0
M  V30 57 H 3.040799 0.608638 -3.128983 0
M  V30 58 H 1.382989 1.297995 5.998717 0
M  V30 59 H 1.319079 0.318007 4.521898 0
M  V30 60 H 1.901752 -1.363405 5.917058 0
M  V30 61 H 2.696052 -0.274400 7.072834 0
M  V30 END ATOM
M  V30 BEGIN BOND
M  V30 1 1 1 2
M  V30 2 1 2 3
M  V30 3 1 3 4
M  V30 4 1 4 5
M  V30 5 1 5 6
M  V30 6 1 6 7
M  V30 7 2 7 8
M  V30 8 1 8 9
M  V30 9 2 9 10
M  V30 10 1 10 11
M  V30 11 2 11 12
M  V30 12 1 11 13
M  V30 13 1 13 14
M  V30 14 1 14 15
M  V30 15 1 15 16
M  V30 16 2 16 17
M  V30 17 1 17 18
M  V30 18 2 18 19
M  V30 19 1 19 20
M  V30 20 2 20 21
M  V30 21 1 21 22
M  V30 22 2 22 23
M  V30 23 1 23 24
M  V30 24 1 23 25
M  V30 25 2 25 26
M  V30 26 1 19 27
M  V30 27 2 27 28
M  V30 28 2 15 29
M  V30 29 1 29 30
M  V30 30 1 30 31
M  V30 31 1 5 32
M  V30 32 1 32 33
M  V30 33 1 33 2
M  V30 34 1 12 7
M  V30 35 2 31 14
M  V30 36 1 31 10
M  V30 37 1 28 16
M  V30 38 1 26 20
M  V30 39 1 1 34
M  V30 40 1 1 35
M  V30 41 1 1 36
M  V30 42 1 3 37
M  V30 43 1 3 38
M  V30 44 1 4 39
M  V30 45 1 4 40
M  V30 46 1 6 41
M  V30 47 1 6 42
M  V30 48 1 8 43
M  V30 49 1 9 44
M  V30 50 1 12 45
M  V30 51 1 13 46
M  V30 52 1 13 47
M  V30 53 1 17 48
M  V30 54 1 18 49
M  V30 55 1 21 50
M  V30 56 1 22 51
M  V30 57 1 24 52
M  V30 58 1 25 53
M  V30 59 1 26 54
M  V30 60 1 27 55
M  V30 61 1 28 56
M  V30 62 1 30 57
M  V30 63 1 32 58
M  V30 64 1 32 59
M  V30 65 1 33 60
M  V30 66 1 33 61
M  V30 END BOND
M  V30 END CTAB
M  END
>  <Dataset>  (739) 
ChEMBL_Kinases

>  <Ligand_Instance>  (739) 
nan

>  <PDB_ID>  (739) 
nan

>  <Standardized_SMILES>  (739) 
CN1CCN(Cc2ccc3c(c2)Cc2c(-c4ccc(-c5ccc(O)cc5)cc4)n[nH]c2-3)CC1

>  <Name>  (739) 
nan

>  <Pocket>  (739) 
nan

>  <ATP_Site>  (739) 
nan

>  <Peripheral>  (739) 
nan

>  <Num_H_Atoms_ProtBoundConf>  (739) 
nan

>  <Num_Resolved_Atoms>  (739) 
nan

>  <Num_Not_Resolved_Atoms>  (739) 
nan

$$$$
CHEMBL4866663
     RDKit          3D

  0  0  0  0  0  0  0  0  0  0999 V3000
M  V30 BEGIN CTAB
M  V30 COUNTS 45 48 0 0 0
M  V30 BEGIN ATOM
M  V30 1 C 1.254866 -3.757054 3.914607 0
M  V30 2 C 0.457858 -4.285295 2.765221 0
M  V30 3 C -0.967981 -4.588235 3.058270 0
M  V30 4 C 0.719594 -3.594737 1.456966 0
M  V30 5 O 2.084796 -3.764726 1.134746 0
M  V30 6 C 2.864892 -2.663128 0.884576 0
M  V30 7 O 4.085688 -2.970758 0.682645 0
M  V30 8 N 2.471224 -1.300932 0.831838 0
M  V30 9 C 3.433982 -0.294827 0.553473 0
M  V30 10 C 3.018319 0.717320 -0.500988 0
M  V30 11 C 3.331960 1.101655 0.940947 0
M  V30 12 C 1.088364 -1.075478 1.074503 0
M  V30 13 N 0.636963 0.169890 1.001672 0
M  V30 14 C -0.671493 0.421317 1.182888 0
M  V30 15 N -1.086311 1.774729 1.091938 0
M  V30 16 C -1.497013 2.364482 -0.134671 0
M  V30 17 C -1.489784 1.590796 -1.277453 0
M  V30 18 C -1.905527 2.249735 -2.424211 0
M  V30 19 F -1.926264 1.558289 -3.586618 0
M  V30 20 C -2.301223 3.566512 -2.463698 0
M  V30 21 O -2.705479 4.146368 -3.671642 0
M  V30 22 C -2.292367 4.303183 -1.294122 0
M  V30 23 F -2.680833 5.600268 -1.326099 0
M  V30 24 C -1.885636 3.685970 -0.130382 0
M  V30 25 N -1.482271 -0.644991 1.437716 0
M  V30 26 C -0.993267 -1.899034 1.506036 0
M  V30 27 C 0.344659 -2.210799 1.328259 0
M  V30 28 H 2.039556 -3.018948 3.598953 0
M  V30 29 H 0.577496 -3.301565 4.695636 0
M  V30 30 H 1.816885 -4.530048 4.488436 0
M  V30 31 H 0.909881 -5.318223 2.573530 0
M  V30 32 H -1.408451 -3.762760 3.682303 0
M  V30 33 H -0.996662 -5.519709 3.709768 0
M  V30 34 H -1.587462 -4.835732 2.206775 0
M  V30 35 H 0.157257 -4.197302 0.686840 0
M  V30 36 H 4.464509 -0.688476 0.393108 0
M  V30 37 H 3.772566 1.049403 -1.244678 0
M  V30 38 H 1.985138 0.750744 -0.870624 0
M  V30 39 H 2.493716 1.581168 1.459923 0
M  V30 40 H 4.286443 1.680314 1.104590 0
M  V30 41 H -1.071543 2.313523 1.984658 0
M  V30 42 H -1.183130 0.553806 -1.272280 0
M  V30 43 H -3.632768 3.956072 -4.020023 0
M  V30 44 H -1.872276 4.249774 0.798969 0
M  V30 45 H -1.830039 -2.535569 1.707842 0
M  V30 END ATOM
M  V30 BEGIN BOND
M  V30 1 1 1 2
M  V30 2 1 2 3
M  V30 3 1 2 4
M  V30 4 1 4 5
M  V30 5 1 5 6
M  V30 6 2 6 7
M  V30 7 1 6 8
M  V30 8 1 8 9
M  V30 9 1 9 10
M  V30 10 1 10 11
M  V30 11 1 8 12
M  V30 12 2 12 13
M  V30 13 1 13 14
M  V30 14 1 14 15
M  V30 15 1 15 16
M  V30 16 2 16 17
M  V30 17 1 17 18
M  V30 18 1 18 19
M  V30 19 2 18 20
M  V30 20 1 20 21
M  V30 21 1 20 22
M  V30 22 1 22 23
M  V30 23 2 22 24
M  V30 24 2 14 25
M  V30 25 1 25 26
M  V30 26 2 26 27
M  V30 27 1 27 4
M  V30 28 1 11 9
M  V30 29 1 27 12
M  V30 30 1 24 16
M  V30 31 1 1 28
M  V30 32 1 1 29
M  V30 33 1 1 30
M  V30 34 1 2 31
M  V30 35 1 3 32
M  V30 36 1 3 33
M  V30 37 1 3 34
M  V30 38 1 4 35
M  V30 39 1 9 36
M  V30 40 1 10 37
M  V30 41 1 10 38
M  V30 42 1 11 39
M  V30 43 1 11 40
M  V30 44 1 15 41
M  V30 45 1 17 42
M  V30 46 1 21 43
M  V30 47 1 24 44
M  V30 48 1 26 45
M  V30 END BOND
M  V30 END CTAB
M  END
>  <Dataset>  (740) 
ChEMBL_Kinases

>  <Ligand_Instance>  (740) 
nan

>  <PDB_ID>  (740) 
nan

>  <Standardized_SMILES>  (740) 
CC(C)C1OC(=O)N(C2CC2)c2nc(Nc3cc(F)c(O)c(F)c3)ncc21

>  <Name>  (740) 
nan

>  <Pocket>  (740) 
nan

>  <ATP_Site>  (740) 
nan

>  <Peripheral>  (740) 
nan

>  <Num_H_Atoms_ProtBoundConf>  (740) 
nan

>  <Num_Resolved_Atoms>  (740) 
nan

>  <Num_Not_Resolved_Atoms>  (740) 
nan

$$$$
CHEMBL486667
     RDKit          3D

  0  0  0  0  0  0  0  0  0  0999 V3000
M  V30 BEGIN CTAB
M  V30 COUNTS 53 55 0 0 0
M  V30 BEGIN ATOM
M  V30 1 C 3.437595 -4.562597 -2.659100 0
M  V30 2 N 2.314728 -4.069271 -1.875435 0
M  V30 3 C 1.302805 -5.059730 -1.651560 0
M  V30 4 C 2.181599 -2.745306 -1.360098 0
M  V30 5 C 1.088725 -2.385646 -0.623594 0
M  V30 6 C 0.944530 -1.111401 -0.120546 0
M  V30 7 C 1.880597 -0.121499 -0.321914 0
M  V30 8 C 1.828491 1.251532 0.166109 0
M  V30 9 O 2.730631 2.096311 -0.065963 0
M  V30 10 O 0.841974 1.823140 0.919058 0
M  V30 11 C 0.852504 3.167104 1.363439 0
M  V30 12 C -0.427396 3.355262 2.150704 0
M  V30 13 C -0.542396 4.752423 2.691836 0
M  V30 14 O -0.501197 5.710996 1.693115 0
M  V30 15 C -1.636191 2.958647 1.326605 0
M  V30 16 C -1.812700 1.502854 1.682920 0
M  V30 17 C -2.624355 0.586348 1.209381 0
M  V30 18 C -2.755643 -0.811989 1.594811 0
M  V30 19 C -2.853189 -1.427681 2.822180 0
M  V30 20 C -2.935984 -2.800759 2.878308 0
M  V30 21 C -2.929070 -3.622697 1.778403 0
M  V30 22 N -3.017999 -5.036606 1.914834 0 CHG=1 VAL=4
M  V30 23 O -3.004883 -5.731530 0.855368 0
M  V30 24 O -3.117591 -5.741836 3.089724 0 CHG=-1 VAL=1
M  V30 25 C -2.832891 -3.018898 0.544951 0
M  V30 26 C -2.747935 -1.635848 0.459911 0
M  V30 27 C -0.818164 1.191049 2.727947 0
M  V30 28 O -0.397805 0.047154 3.030169 0
M  V30 29 O -0.480738 2.456673 3.269610 0
M  V30 30 C 2.976092 -0.497117 -1.065390 0
M  V30 31 C 3.116407 -1.756815 -1.561341 0
M  V30 32 H 3.697001 -5.616172 -2.355316 0
M  V30 33 H 4.312984 -3.894449 -2.551660 0
M  V30 34 H 3.105449 -4.528432 -3.713208 0
M  V30 35 H 0.256460 -4.640914 -1.615885 0
M  V30 36 H 1.268463 -5.804585 -2.481517 0
M  V30 37 H 1.553047 -5.636160 -0.732507 0
M  V30 38 H 0.277401 -3.050278 -0.382698 0
M  V30 39 H 0.069515 -0.817815 0.470450 0
M  V30 40 H 0.850309 3.910285 0.556121 0
M  V30 41 H 1.728416 3.374814 2.009892 0
M  V30 42 H -1.422884 4.836521 3.358857 0
M  V30 43 H 0.346343 4.907289 3.362254 0
M  V30 44 H 0.341057 6.218080 1.729021 0
M  V30 45 H -1.436566 3.086871 0.253852 0
M  V30 46 H -2.520290 3.554446 1.642492 0
M  V30 47 H -3.277663 0.980535 0.412037 0
M  V30 48 H -2.868257 -0.741892 3.633649 0
M  V30 49 H -3.009937 -3.217515 3.879860 0
M  V30 50 H -2.829699 -3.683202 -0.306681 0
M  V30 51 H -2.677369 -1.308174 -0.574970 0
M  V30 52 H 3.752540 0.249463 -1.256568 0
M  V30 53 H 4.009196 -1.954963 -2.134312 0
M  V30 END ATOM
M  V30 BEGIN BOND
M  V30 1 1 1 2
M  V30 2 1 2 3
M  V30 3 1 2 4
M  V30 4 2 4 5
M  V30 5 1 5 6
M  V30 6 2 6 7
M  V30 7 1 7 8
M  V30 8 2 8 9
M  V30 9 1 8 10
M  V30 10 1 10 11
M  V30 11 1 11 12
M  V30 12 1 12 13
M  V30 13 1 13 14
M  V30 14 1 12 15
M  V30 15 1 15 16
M  V30 16 2 16 17
M  V30 17 1 17 18
M  V30 18 2 18 19
M  V30 19 1 19 20
M  V30 20 2 20 21
M  V30 21 1 21 22
M  V30 22 2 22 23
M  V30 23 1 22 24
M  V30 24 1 21 25
M  V30 25 2 25 26
M  V30 26 1 16 27
M  V30 27 2 27 28
M  V30 28 1 27 29
M  V30 29 1 7 30
M  V30 30 2 30 31
M  V30 31 1 31 4
M  V30 32 1 29 12
M  V30 33 1 26 18
M  V30 34 1 1 32
M  V30 35 1 1 33
M  V30 36 1 1 34
M  V30 37 1 3 35
M  V30 38 1 3 36
M  V30 39 1 3 37
M  V30 40 1 5 38
M  V30 41 1 6 39
M  V30 42 1 11 40
M  V30 43 1 11 41
M  V30 44 1 13 42
M  V30 45 1 13 43
M  V30 46 1 14 44
M  V30 47 1 15 45
M  V30 48 1 15 46
M  V30 49 1 17 47
M  V30 50 1 19 48
M  V30 51 1 20 49
M  V30 52 1 25 50
M  V30 53 1 26 51
M  V30 54 1 30 52
M  V30 55 1 31 53
M  V30 END BOND
M  V30 END CTAB
M  END
>  <Dataset>  (741) 
ChEMBL_Kinases

>  <Ligand_Instance>  (741) 
nan

>  <PDB_ID>  (741) 
nan

>  <Standardized_SMILES>  (741) 
CN(C)c1ccc(C(=O)OCC2(CO)C/C(=C/c3ccc([N+](=O)[O-])cc3)C(=O)O2)cc1

>  <Name>  (741) 
nan

>  <Pocket>  (741) 
nan

>  <ATP_Site>  (741) 
nan

>  <Peripheral>  (741) 
nan

>  <Num_H_Atoms_ProtBoundConf>  (741) 
nan

>  <Num_Resolved_Atoms>  (741) 
nan

>  <Num_Not_Resolved_Atoms>  (741) 
nan

$$$$
CHEMBL4866710
     RDKit          3D

  0  0  0  0  0  0  0  0  0  0999 V3000
M  V30 BEGIN CTAB
M  V30 COUNTS 61 66 0 0 0
M  V30 BEGIN ATOM
M  V30 1 C 5.155952 2.359244 3.584521 0
M  V30 2 O 3.832214 2.480770 3.150071 0
M  V30 3 C 3.113308 1.315792 2.817753 0
M  V30 4 N 3.750181 0.113099 2.937223 0
M  V30 5 C 3.027822 -0.975074 2.609639 0
M  V30 6 C 1.724622 -0.817097 2.184837 0
M  V30 7 C 1.087565 0.394724 2.067016 0
M  V30 8 C 1.791856 1.532834 2.391628 0
M  V30 9 N 1.322186 2.852993 2.321923 0
M  V30 10 S 0.728144 3.947047 1.135155 0
M  V30 11 O 1.812783 4.090871 0.080967 0
M  V30 12 O 0.489406 5.289388 1.740369 0
M  V30 13 C -0.729819 3.414504 0.360399 0
M  V30 14 C -1.871430 4.215840 0.359255 0
M  V30 15 C -3.057563 3.831023 -0.228504 0
M  V30 16 C -3.194271 2.611757 -0.861786 0
M  V30 17 C -2.069598 1.818099 -0.862842 0
M  V30 18 C -0.886781 2.204885 -0.276667 0
M  V30 19 C -2.080149 0.511208 -1.471528 0
M  V30 20 O -3.013630 -0.123198 -0.972593 0
M  V30 21 N -1.587650 -0.464403 -2.352869 0
M  V30 22 C -2.303815 -1.724674 -2.324405 0
M  V30 23 C -1.720584 -2.715976 -3.295909 0 CFG=2
M  V30 24 C -2.723303 -3.870227 -3.459782 0
M  V30 25 C -2.696536 -4.530025 -2.070110 0
M  V30 26 N -1.329912 -4.223020 -1.597098 0
M  V30 27 C -0.606724 -3.424760 -2.556450 0
M  V30 28 C -0.917542 -4.720262 -0.349083 0
M  V30 29 N -1.085760 -5.916488 0.201286 0
M  V30 30 C -0.673648 -6.340610 1.379077 0
M  V30 31 N 0.010699 -5.520187 2.186702 0
M  V30 32 C 0.281990 -4.261958 1.804517 0
M  V30 33 C 0.961744 -3.281371 2.477630 0
M  V30 34 C 1.553526 -3.459735 3.841128 0
M  V30 35 C 1.105824 -2.065571 1.859545 0
M  V30 36 S 0.345194 -2.142617 0.336538 0
M  V30 37 C -0.194061 -3.912034 0.549822 0
M  V30 38 H 5.482775 1.300017 3.687698 0
M  V30 39 H 5.889948 2.853880 2.895008 0
M  V30 40 H 5.337530 2.809930 4.585953 0
M  V30 41 H 3.517944 -1.947104 2.700029 0
M  V30 42 H 0.062419 0.360985 1.728732 0
M  V30 43 H 1.390358 3.178586 3.313525 0
M  V30 44 H -1.834211 5.184797 0.838704 0
M  V30 45 H -3.948851 4.455111 -0.230454 0
M  V30 46 H -4.052967 2.193151 -1.352365 0
M  V30 47 H -0.012289 1.609178 -0.282322 0
M  V30 48 H -0.885138 0.241015 -2.630399 0
M  V30 49 H -2.223802 -2.101963 -1.267627 0
M  V30 50 H -3.372137 -1.605501 -2.548943 0
M  V30 51 H -1.419519 -2.277172 -4.244504 0
M  V30 52 H -3.703654 -3.401939 -3.667186 0
M  V30 53 H -2.394832 -4.571151 -4.225144 0
M  V30 54 H -3.468914 -4.043139 -1.477499 0
M  V30 55 H -2.834258 -5.612279 -2.145131 0
M  V30 56 H -0.066325 -4.139134 -3.210551 0
M  V30 57 H 0.035767 -2.642731 -2.141323 0
M  V30 58 H -0.874528 -7.352336 1.721989 0
M  V30 59 H 1.416166 -2.550137 4.458778 0
M  V30 60 H 0.990853 -4.245770 4.415078 0
M  V30 61 H 2.587613 -3.851699 3.816006 0
M  V30 END ATOM
M  V30 BEGIN BOND
M  V30 1 1 1 2
M  V30 2 1 2 3
M  V30 3 2 3 4
M  V30 4 1 4 5
M  V30 5 2 5 6
M  V30 6 1 6 7
M  V30 7 2 7 8
M  V30 8 1 8 9
M  V30 9 1 9 10
M  V30 10 2 10 11
M  V30 11 2 10 12
M  V30 12 1 10 13
M  V30 13 2 13 14
M  V30 14 1 14 15
M  V30 15 2 15 16
M  V30 16 1 16 17
M  V30 17 2 17 18
M  V30 18 1 17 19
M  V30 19 2 19 20
M  V30 20 1 19 21
M  V30 21 1 21 22
M  V30 22 1 22 23
M  V30 23 1 23 24
M  V30 24 1 24 25
M  V30 25 1 25 26
M  V30 26 1 26 27
M  V30 27 1 26 28
M  V30 28 1 28 29
M  V30 29 2 29 30
M  V30 30 1 30 31
M  V30 31 2 31 32
M  V30 32 1 32 33
M  V30 33 1 33 34
M  V30 34 2 33 35
M  V30 35 1 35 36
M  V30 36 1 36 37
M  V30 37 1 8 3
M  V30 38 1 18 13
M  V30 39 1 27 23
M  V30 40 2 37 28
M  V30 41 1 35 6
M  V30 42 1 37 32
M  V30 43 1 1 38
M  V30 44 1 1 39
M  V30 45 1 1 40
M  V30 46 1 5 41
M  V30 47 1 7 42
M  V30 48 1 9 43
M  V30 49 1 14 44
M  V30 50 1 15 45
M  V30 51 1 16 46
M  V30 52 1 18 47
M  V30 53 1 21 48
M  V30 54 1 22 49
M  V30 55 1 22 50
M  V30 56 1 23 51 CFG=3
M  V30 57 1 24 52
M  V30 58 1 24 53
M  V30 59 1 25 54
M  V30 60 1 25 55
M  V30 61 1 27 56
M  V30 62 1 27 57
M  V30 63 1 30 58
M  V30 64 1 34 59
M  V30 65 1 34 60
M  V30 66 1 34 61
M  V30 END BOND
M  V30 END CTAB
M  END
>  <Dataset>  (742) 
ChEMBL_Kinases

>  <Ligand_Instance>  (742) 
nan

>  <PDB_ID>  (742) 
nan

>  <Standardized_SMILES>  (742) 
COc1ncc2cc1NS(=O)(=O)c1cccc(c1)C(=O)NC[C@@H]1CCN(C1)c1ncnc3c(C)c-2sc13

>  <Name>  (742) 
nan

>  <Pocket>  (742) 
nan

>  <ATP_Site>  (742) 
nan

>  <Peripheral>  (742) 
nan

>  <Num_H_Atoms_ProtBoundConf>  (742) 
nan

>  <Num_Resolved_Atoms>  (742) 
nan

>  <Num_Not_Resolved_Atoms>  (742) 
nan

$$$$
CHEMBL94770
     RDKit          3D

  0  0  0  0  0  0  0  0  0  0999 V3000
M  V30 BEGIN CTAB
M  V30 COUNTS 43 46 0 0 0
M  V30 BEGIN ATOM
M  V30 1 C -2.123139 -2.703394 -1.833832 0
M  V30 2 O -0.800798 -2.258661 -1.934113 0
M  V30 3 C -0.132344 -1.601743 -0.934956 0
M  V30 4 C 1.186168 -1.217076 -1.177742 0
M  V30 5 C 1.880142 -0.545313 -0.165303 0
M  V30 6 C 3.264170 -0.140749 -0.418237 0
M  V30 7 C 4.424284 -0.847646 -0.178043 0
M  V30 8 C 5.640269 -0.279258 -0.492325 0
M  V30 9 C 5.710291 0.995038 -1.047174 0
M  V30 10 F 6.915599 1.537965 -1.349845 0
M  V30 11 C 4.553436 1.696433 -1.285176 0
M  V30 12 C 3.320210 1.124013 -0.968176 0
M  V30 13 Cl 1.942967 2.150842 -1.334444 0
M  V30 14 C 1.300092 -0.255707 1.056285 0
M  V30 15 C -0.004857 -0.643119 1.280297 0
M  V30 16 C -0.691008 -1.305072 0.284710 0
M  V30 17 N -0.593229 -0.344811 2.530493 0
M  V30 18 C -1.952807 -0.780317 2.686451 0
M  V30 19 C -2.817638 0.230644 2.262788 0
M  V30 20 Cl -2.367905 1.799853 1.632636 0
M  V30 21 C -4.201956 0.036451 2.320413 0
M  V30 22 C -4.680923 -1.170624 2.803099 0
M  V30 23 C -3.804530 -2.154141 3.215798 0
M  V30 24 C -2.438198 -1.959391 3.157672 0
M  V30 25 Cl -1.211866 -3.098241 3.638806 0
M  V30 26 C 0.098658 0.337209 3.569743 0
M  V30 27 O -0.501935 0.561321 4.650588 0
M  V30 28 N 1.424922 0.705059 3.279183 0
M  V30 29 C 2.126627 0.460738 2.058874 0
M  V30 30 H -2.263973 -3.601358 -1.211922 0
M  V30 31 H -2.766119 -1.882176 -1.421783 0
M  V30 32 H -2.487935 -2.876898 -2.867860 0
M  V30 33 H 1.693149 -1.416167 -2.114178 0
M  V30 34 H 4.254316 -1.823624 0.253474 0
M  V30 35 H 6.524085 -0.869992 -0.286771 0
M  V30 36 H 4.663295 2.684842 -1.718676 0
M  V30 37 H -1.725715 -1.623383 0.435301 0
M  V30 38 H -4.939409 0.763757 2.013861 0
M  V30 39 H -5.759907 -1.363291 2.864778 0
M  V30 40 H -4.123915 -3.126637 3.605706 0
M  V30 41 H 1.968164 1.210343 4.021840 0
M  V30 42 H 2.979188 -0.231526 2.318939 0
M  V30 43 H 2.495038 1.446427 1.687612 0
M  V30 END ATOM
M  V30 BEGIN BOND
M  V30 1 1 1 2
M  V30 2 1 2 3
M  V30 3 2 3 4
M  V30 4 1 4 5
M  V30 5 1 5 6
M  V30 6 2 6 7
M  V30 7 1 7 8
M  V30 8 2 8 9
M  V30 9 1 9 10
M  V30 10 1 9 11
M  V30 11 2 11 12
M  V30 12 1 12 13
M  V30 13 2 5 14
M  V30 14 1 14 15
M  V30 15 2 15 16
M  V30 16 1 15 17
M  V30 17 1 17 18
M  V30 18 2 18 19
M  V30 19 1 19 20
M  V30 20 1 19 21
M  V30 21 2 21 22
M  V30 22 1 22 23
M  V30 23 2 23 24
M  V30 24 1 24 25
M  V30 25 1 17 26
M  V30 26 2 26 27
M  V30 27 1 26 28
M  V30 28 1 28 29
M  V30 29 1 16 3
M  V30 30 1 24 18
M  V30 31 1 12 6
M  V30 32 1 29 14
M  V30 33 1 1 30
M  V30 34 1 1 31
M  V30 35 1 1 32
M  V30 36 1 4 33
M  V30 37 1 7 34
M  V30 38 1 8 35
M  V30 39 1 11 36
M  V30 40 1 16 37
M  V30 41 1 21 38
M  V30 42 1 22 39
M  V30 43 1 23 40
M  V30 44 1 28 41
M  V30 45 1 29 42
M  V30 46 1 29 43
M  V30 END BOND
M  V30 END CTAB
M  END
>  <Dataset>  (743) 
ChEMBL_Kinases

>  <Ligand_Instance>  (743) 
nan

>  <PDB_ID>  (743) 
nan

>  <Standardized_SMILES>  (743) 
COc1cc(-c2ccc(F)cc2Cl)c2c(c1)N(c1c(Cl)cccc1Cl)C(=O)NC2

>  <Name>  (743) 
nan

>  <Pocket>  (743) 
nan

>  <ATP_Site>  (743) 
nan

>  <Peripheral>  (743) 
nan

>  <Num_H_Atoms_ProtBoundConf>  (743) 
nan

>  <Num_Resolved_Atoms>  (743) 
nan

>  <Num_Not_Resolved_Atoms>  (743) 
nan

$$$$
CHEMBL4866764
     RDKit          3D

  0  0  0  0  0  0  0  0  0  0999 V3000
M  V30 BEGIN CTAB
M  V30 COUNTS 45 48 0 0 0
M  V30 BEGIN ATOM
M  V30 1 N -1.903119 -1.218161 4.615034 0
M  V30 2 S -1.858999 0.429896 5.106931 0
M  V30 3 O -3.243303 1.010879 5.083928 0
M  V30 4 O -1.292418 0.493848 6.496850 0
M  V30 5 C -0.787737 1.288781 4.021153 0
M  V30 6 C 0.561605 1.409755 4.277651 0
M  V30 7 C 1.391522 2.083693 3.422039 0
M  V30 8 C 0.926656 2.678937 2.257101 0
M  V30 9 N 1.779360 3.381153 1.361437 0
M  V30 10 S 1.577763 3.048406 -0.324628 0
M  V30 11 O 0.236383 3.433491 -0.835817 0
M  V30 12 O 2.608060 3.789178 -1.143481 0
M  V30 13 C 1.928914 1.343169 -0.558723 0
M  V30 14 C 3.215445 0.917717 -0.841721 0
M  V30 15 C 3.516192 -0.416528 -1.029738 0
M  V30 16 C 2.538566 -1.383603 -0.942039 0
M  V30 17 C 1.233463 -0.969550 -0.656686 0
M  V30 18 C 0.221505 -2.006797 -0.569459 0
M  V30 19 N -0.675125 -2.000273 0.444575 0
M  V30 20 N -1.485623 -3.031165 0.311888 0
M  V30 21 C -1.165371 -3.742913 -0.768283 0
M  V30 22 C -1.689600 -4.881135 -1.331238 0
M  V30 23 C -1.071637 -5.342132 -2.492126 0
M  V30 24 F -1.582778 -6.478965 -3.068380 0
M  V30 25 C 0.015322 -4.692049 -3.055472 0
M  V30 26 C 0.528693 -3.540080 -2.466406 0
M  V30 27 C -0.088288 -3.095268 -1.323002 0
M  V30 28 C 0.965836 0.378233 -0.473538 0
M  V30 29 C -0.431850 2.536571 2.033630 0
M  V30 30 C -1.288684 1.866352 2.873761 0
M  V30 31 H -2.503999 -1.327961 3.753659 0
M  V30 32 H -2.305883 -1.801129 5.395748 0
M  V30 33 H 0.889165 0.938531 5.186053 0
M  V30 34 H 2.424552 2.140275 3.679299 0
M  V30 35 H 2.496078 4.069504 1.725470 0
M  V30 36 H 3.990681 1.669474 -0.912754 0
M  V30 37 H 4.561099 -0.670738 -1.250576 0
M  V30 38 H 2.868893 -2.397687 -1.104002 0
M  V30 39 H -2.252258 -3.209322 0.992959 0
M  V30 40 H -2.536416 -5.379926 -0.884597 0
M  V30 41 H 0.430463 -5.108199 -3.943090 0
M  V30 42 H 1.374839 -3.020992 -2.891762 0
M  V30 43 H -0.040015 0.686484 -0.254693 0
M  V30 44 H -0.887907 2.962107 1.158559 0
M  V30 45 H -2.361212 1.785134 2.644633 0
M  V30 END ATOM
M  V30 BEGIN BOND
M  V30 1 1 1 2
M  V30 2 2 2 3
M  V30 3 2 2 4
M  V30 4 1 2 5
M  V30 5 2 5 6
M  V30 6 1 6 7
M  V30 7 2 7 8
M  V30 8 1 8 9
M  V30 9 1 9 10
M  V30 10 2 10 11
M  V30 11 2 10 12
M  V30 12 1 10 13
M  V30 13 2 13 14
M  V30 14 1 14 15
M  V30 15 2 15 16
M  V30 16 1 16 17
M  V30 17 1 17 18
M  V30 18 2 18 19
M  V30 19 1 19 20
M  V30 20 1 20 21
M  V30 21 2 21 22
M  V30 22 1 22 23
M  V30 23 1 23 24
M  V30 24 2 23 25
M  V30 25 1 25 26
M  V30 26 2 26 27
M  V30 27 2 17 28
M  V30 28 1 8 29
M  V30 29 2 29 30
M  V30 30 1 30 5
M  V30 31 1 28 13
M  V30 32 1 27 18
M  V30 33 1 27 21
M  V30 34 1 1 31
M  V30 35 1 1 32
M  V30 36 1 6 33
M  V30 37 1 7 34
M  V30 38 1 9 35
M  V30 39 1 14 36
M  V30 40 1 15 37
M  V30 41 1 16 38
M  V30 42 1 20 39
M  V30 43 1 22 40
M  V30 44 1 25 41
M  V30 45 1 26 42
M  V30 46 1 28 43
M  V30 47 1 29 44
M  V30 48 1 30 45
M  V30 END BOND
M  V30 END CTAB
M  END
>  <Dataset>  (744) 
ChEMBL_Kinases

>  <Ligand_Instance>  (744) 
nan

>  <PDB_ID>  (744) 
nan

>  <Standardized_SMILES>  (744) 
NS(=O)(=O)c1ccc(NS(=O)(=O)c2cccc(-c3n[nH]c4cc(F)ccc34)c2)cc1

>  <Name>  (744) 
nan

>  <Pocket>  (744) 
nan

>  <ATP_Site>  (744) 
nan

>  <Peripheral>  (744) 
nan

>  <Num_H_Atoms_ProtBoundConf>  (744) 
nan

>  <Num_Resolved_Atoms>  (744) 
nan

>  <Num_Not_Resolved_Atoms>  (744) 
nan

$$$$
CHEMBL94719
     RDKit          3D

  0  0  0  0  0  0  0  0  0  0999 V3000
M  V30 BEGIN CTAB
M  V30 COUNTS 48 51 0 0 0
M  V30 BEGIN ATOM
M  V30 1 C 4.381898 -3.506138 2.027603 0
M  V30 2 O 3.423585 -2.510792 1.678640 0
M  V30 3 C 2.075370 -2.809300 1.534217 0
M  V30 4 O 1.760796 -4.006432 1.730503 0
M  V30 5 C 1.090115 -1.794371 1.177157 0
M  V30 6 C 1.408992 -0.463038 0.954162 0
M  V30 7 C 0.471139 0.503629 0.614475 0
M  V30 8 C 1.067277 1.819918 0.460780 0
M  V30 9 C 0.793072 3.034821 1.049057 0
M  V30 10 C 1.485816 4.173164 0.725363 0
M  V30 11 C 2.499932 4.184174 -0.204973 0
M  V30 12 C 3.151871 5.490827 -0.444735 0
M  V30 13 F 3.637301 5.574857 -1.735736 0
M  V30 14 F 4.135357 5.740356 0.493521 0
M  V30 15 F 2.219545 6.516684 -0.321449 0
M  V30 16 C 2.813190 2.994739 -0.821237 0
M  V30 17 C 2.093113 1.863213 -0.470945 0
M  V30 18 C -0.844529 0.112804 0.493499 0
M  V30 19 C -1.145017 -1.214053 0.718044 0
M  V30 20 C -0.226866 -2.185745 1.056418 0
M  V30 21 N -2.486558 -1.661881 0.583870 0
M  V30 22 C -2.842890 -3.033912 0.810493 0
M  V30 23 C -3.187534 -3.313489 2.111697 0
M  V30 24 Cl -3.198799 -2.121916 3.394046 0
M  V30 25 C -3.550534 -4.597628 2.460254 0
M  V30 26 C -3.547470 -5.552012 1.460602 0
M  V30 27 C -3.207916 -5.309562 0.144533 0
M  V30 28 C -2.850591 -4.015308 -0.167399 0
M  V30 29 Cl -2.392888 -3.544696 -1.792925 0
M  V30 30 C -3.549184 -0.791820 0.221308 0
M  V30 31 O -4.761814 -1.085827 0.077785 0
M  V30 32 N -3.137357 0.550691 0.009114 0
M  V30 33 C -1.803011 1.150940 0.127534 0
M  V30 34 H 5.189470 -2.983691 2.583272 0
M  V30 35 H 4.772735 -4.027402 1.141861 0
M  V30 36 H 3.951510 -4.255593 2.734123 0
M  V30 37 H 2.471819 -0.278219 1.078027 0
M  V30 38 H 0.003560 2.998213 1.784564 0
M  V30 39 H 1.188097 5.076800 1.248551 0
M  V30 40 H 3.597555 3.011446 -1.538173 0
M  V30 41 H 2.435015 0.978542 -1.029469 0
M  V30 42 H -0.510725 -3.206509 1.221650 0
M  V30 43 H -3.830339 -4.881103 3.458331 0
M  V30 44 H -3.832456 -6.560115 1.734294 0
M  V30 45 H -3.215766 -6.079239 -0.614003 0
M  V30 46 H -3.839016 1.290565 -0.280036 0
M  V30 47 H -1.828656 2.047508 0.738489 0
M  V30 48 H -1.584190 1.508687 -0.922031 0
M  V30 END ATOM
M  V30 BEGIN BOND
M  V30 1 1 1 2
M  V30 2 1 2 3
M  V30 3 2 3 4
M  V30 4 1 3 5
M  V30 5 2 5 6
M  V30 6 1 6 7
M  V30 7 1 7 8
M  V30 8 2 8 9
M  V30 9 1 9 10
M  V30 10 2 10 11
M  V30 11 1 11 12
M  V30 12 1 12 13
M  V30 13 1 12 14
M  V30 14 1 12 15
M  V30 15 1 11 16
M  V30 16 2 16 17
M  V30 17 2 7 18
M  V30 18 1 18 19
M  V30 19 2 19 20
M  V30 20 1 19 21
M  V30 21 1 21 22
M  V30 22 2 22 23
M  V30 23 1 23 24
M  V30 24 1 23 25
M  V30 25 2 25 26
M  V30 26 1 26 27
M  V30 27 2 27 28
M  V30 28 1 28 29
M  V30 29 1 21 30
M  V30 30 2 30 31
M  V30 31 1 30 32
M  V30 32 1 32 33
M  V30 33 1 20 5
M  V30 34 1 28 22
M  V30 35 1 17 8
M  V30 36 1 33 18
M  V30 37 1 1 34
M  V30 38 1 1 35
M  V30 39 1 1 36
M  V30 40 1 6 37
M  V30 41 1 9 38
M  V30 42 1 10 39
M  V30 43 1 16 40
M  V30 44 1 17 41
M  V30 45 1 20 42
M  V30 46 1 25 43
M  V30 47 1 26 44
M  V30 48 1 27 45
M  V30 49 1 32 46
M  V30 50 1 33 47
M  V30 51 1 33 48
M  V30 END BOND
M  V30 END CTAB
M  END
>  <Dataset>  (745) 
ChEMBL_Kinases

>  <Ligand_Instance>  (745) 
nan

>  <PDB_ID>  (745) 
nan

>  <Standardized_SMILES>  (745) 
COC(=O)c1cc(-c2ccc(C(F)(F)F)cc2)c2c(c1)N(c1c(Cl)cccc1Cl)C(=O)NC2

>  <Name>  (745) 
nan

>  <Pocket>  (745) 
nan

>  <ATP_Site>  (745) 
nan

>  <Peripheral>  (745) 
nan

>  <Num_H_Atoms_ProtBoundConf>  (745) 
nan

>  <Num_Resolved_Atoms>  (745) 
nan

>  <Num_Not_Resolved_Atoms>  (745) 
nan

$$$$
CHEMBL4866800
     RDKit          3D

  0  0  0  0  0  0  0  0  0  0999 V3000
M  V30 BEGIN CTAB
M  V30 COUNTS 74 79 0 0 0
M  V30 BEGIN ATOM
M  V30 1 C 3.628153 -3.466610 4.821474 0
M  V30 2 C 2.405846 -3.952319 5.044526 0
M  V30 3 C 1.138984 -3.309977 5.462578 0
M  V30 4 N 0.097637 -3.498308 4.468056 0
M  V30 5 C -0.743225 -4.551612 4.482344 0
M  V30 6 O -0.775107 -5.500242 5.306673 0
M  V30 7 C -1.579910 -4.403513 3.412517 0
M  V30 8 C -2.630255 -5.098413 2.868853 0
M  V30 9 N -3.238455 -4.647472 1.781039 0
M  V30 10 C -2.909869 -3.536243 1.141340 0
M  V30 11 N -3.629922 -3.131566 -0.022195 0
M  V30 12 C -3.427010 -2.003151 -0.845489 0
M  V30 13 C -4.267908 -1.754422 -1.907537 0
M  V30 14 C -4.107948 -0.670981 -2.737377 0
M  V30 15 C -3.091415 0.240806 -2.560044 0
M  V30 16 N -2.913628 1.368667 -3.417058 0
M  V30 17 C -1.896561 2.392869 -3.270591 0
M  V30 18 C -0.855637 2.070386 -4.345260 0
M  V30 19 N -1.448948 1.482962 -5.504705 0
M  V30 20 C -1.420458 0.043230 -5.373802 0
M  V30 21 C -2.799232 1.881058 -5.744357 0
M  V30 22 C -3.734059 1.652923 -4.577073 0
M  V30 23 C -2.227506 0.029100 -1.509076 0
M  V30 24 C -2.421859 -1.073056 -0.696193 0
M  V30 25 N -1.883490 -2.875787 1.689541 0
M  V30 26 C -1.215753 -3.244254 2.769133 0
M  V30 27 N -0.165392 -2.694923 3.445754 0
M  V30 28 C 0.466735 -1.500146 3.071363 0
M  V30 29 C -0.174205 -0.372241 3.548985 0
M  V30 30 C 0.282027 0.909403 3.296446 0
M  V30 31 C 1.425525 1.024612 2.533412 0
M  V30 32 C 2.074728 -0.109000 2.049961 0
M  V30 33 N 1.584020 -1.327222 2.328373 0
M  V30 34 C 3.260621 0.334652 1.271646 0 CFG=1
M  V30 35 N 4.466652 0.337284 2.082079 0
M  V30 36 C 3.502188 -0.547830 0.066004 0
M  V30 37 C 4.718023 -0.078909 -0.716944 0
M  V30 38 C 2.959503 1.753455 0.880696 0
M  V30 39 C 2.160511 2.251810 2.091065 0
M  V30 40 H 4.639745 -3.135872 4.625262 0
M  V30 41 H 4.179808 -2.546383 4.835084 0
M  V30 42 H 2.397895 -5.034613 4.870420 0
M  V30 43 H 0.801558 -3.745021 6.424628 0
M  V30 44 H 1.328210 -2.225586 5.655543 0
M  V30 45 H -2.926628 -6.012282 3.366190 0
M  V30 46 H -4.425892 -3.770929 -0.302322 0
M  V30 47 H -5.094750 -2.447574 -2.095391 0
M  V30 48 H -4.821811 -0.574380 -3.533772 0
M  V30 49 H -1.446933 2.409378 -2.276643 0
M  V30 50 H -2.341869 3.397728 -3.474060 0
M  V30 51 H -0.168955 1.324089 -3.888037 0
M  V30 52 H -0.272255 2.966817 -4.613058 0
M  V30 53 H -2.452282 -0.396852 -5.326347 0
M  V30 54 H -0.880567 -0.284320 -4.467928 0
M  V30 55 H -0.892765 -0.434930 -6.243190 0
M  V30 56 H -3.168512 1.269345 -6.617104 0
M  V30 57 H -2.798540 2.920291 -6.112360 0
M  V30 58 H -4.526901 0.948146 -4.784628 0
M  V30 59 H -4.187380 2.666282 -4.360425 0
M  V30 60 H -1.395117 0.680998 -1.280384 0
M  V30 61 H -1.716153 -1.193261 0.112555 0
M  V30 62 H -1.085272 -0.386044 4.160185 0
M  V30 63 H -0.194842 1.804033 3.654522 0
M  V30 64 H 5.077865 1.083636 1.668937 0
M  V30 65 H 4.143956 0.609406 3.048557 0
M  V30 66 H 3.649573 -1.588732 0.407218 0
M  V30 67 H 2.647189 -0.548024 -0.628359 0
M  V30 68 H 5.644121 -0.501196 -0.282749 0
M  V30 69 H 4.641325 -0.385722 -1.785560 0
M  V30 70 H 4.785875 1.031718 -0.643114 0
M  V30 71 H 2.317563 1.807389 -0.028006 0
M  V30 72 H 3.841964 2.401326 0.793416 0
M  V30 73 H 1.459873 3.032960 1.769208 0
M  V30 74 H 2.863712 2.617948 2.857019 0
M  V30 END ATOM
M  V30 BEGIN BOND
M  V30 1 2 1 2
M  V30 2 1 2 3
M  V30 3 1 3 4
M  V30 4 1 4 5
M  V30 5 2 5 6
M  V30 6 1 5 7
M  V30 7 2 7 8
M  V30 8 1 8 9
M  V30 9 2 9 10
M  V30 10 1 10 11
M  V30 11 1 11 12
M  V30 12 2 12 13
M  V30 13 1 13 14
M  V30 14 2 14 15
M  V30 15 1 15 16
M  V30 16 1 16 17
M  V30 17 1 17 18
M  V30 18 1 18 19
M  V30 19 1 19 20
M  V30 20 1 19 21
M  V30 21 1 21 22
M  V30 22 1 15 23
M  V30 23 2 23 24
M  V30 24 1 10 25
M  V30 25 2 25 26
M  V30 26 1 26 27
M  V30 27 1 27 28
M  V30 28 2 28 29
M  V30 29 1 29 30
M  V30 30 2 30 31
M  V30 31 1 31 32
M  V30 32 2 32 33
M  V30 33 1 32 34
M  V30 34 1 34 35 CFG=1
M  V30 35 1 34 36
M  V30 36 1 36 37
M  V30 37 1 34 38
M  V30 38 1 38 39
M  V30 39 1 27 4
M  V30 40 1 33 28
M  V30 41 1 26 7
M  V30 42 1 39 31
M  V30 43 1 24 12
M  V30 44 1 22 16
M  V30 45 1 1 40
M  V30 46 1 1 41
M  V30 47 1 2 42
M  V30 48 1 3 43
M  V30 49 1 3 44
M  V30 50 1 8 45
M  V30 51 1 11 46
M  V30 52 1 13 47
M  V30 53 1 14 48
M  V30 54 1 17 49
M  V30 55 1 17 50
M  V30 56 1 18 51
M  V30 57 1 18 52
M  V30 58 1 20 53
M  V30 59 1 20 54
M  V30 60 1 20 55
M  V30 61 1 21 56
M  V30 62 1 21 57
M  V30 63 1 22 58
M  V30 64 1 22 59
M  V30 65 1 23 60
M  V30 66 1 24 61
M  V30 67 1 29 62
M  V30 68 1 30 63
M  V30 69 1 35 64
M  V30 70 1 35 65
M  V30 71 1 36 66
M  V30 72 1 36 67
M  V30 73 1 37 68
M  V30 74 1 37 69
M  V30 75 1 37 70
M  V30 76 1 38 71
M  V30 77 1 38 72
M  V30 78 1 39 73
M  V30 79 1 39 74
M  V30 END BOND
M  V30 END CTAB
M  END
>  <Dataset>  (746) 
ChEMBL_Kinases

>  <Ligand_Instance>  (746) 
nan

>  <PDB_ID>  (746) 
nan

>  <Standardized_SMILES>  (746) 
C=CCn1c(=O)c2cnc(Nc3ccc(N4CCN(C)CC4)cc3)nc2n1-c1ccc2c(n1)[C@@](N)(CC)CC2

>  <Name>  (746) 
nan

>  <Pocket>  (746) 
nan

>  <ATP_Site>  (746) 
nan

>  <Peripheral>  (746) 
nan

>  <Num_H_Atoms_ProtBoundConf>  (746) 
nan

>  <Num_Resolved_Atoms>  (746) 
nan

>  <Num_Not_Resolved_Atoms>  (746) 
nan

$$$$
CHEMBL94718
     RDKit          3D

  0  0  0  0  0  0  0  0  0  0999 V3000
M  V30 BEGIN CTAB
M  V30 COUNTS 75 75 0 0 0
M  V30 BEGIN ATOM
M  V30 1 C 1.949578 -1.258666 5.368468 0
M  V30 2 C 3.284321 -1.970284 5.357576 0
M  V30 3 C 4.371510 -0.971336 5.365889 0
M  V30 4 C 4.471502 0.005662 4.243577 0
M  V30 5 C 4.728224 -0.472958 2.897202 0
M  V30 6 C 3.881798 -1.359658 2.117483 0
M  V30 7 C 2.497015 -0.999203 1.773042 0
M  V30 8 C 2.397070 0.313911 0.959766 0
M  V30 9 C 3.131460 0.205532 -0.294512 0
M  V30 10 C 2.508894 0.381554 -1.423238 0
M  V30 11 C 1.357802 0.663720 -2.224881 0
M  V30 12 C 0.053848 1.062819 -1.525538 0
M  V30 13 C 0.108266 2.365660 -0.865755 0
M  V30 14 C -0.915932 2.960969 -0.036710 0
M  V30 15 C -2.277356 3.299434 -0.347087 0
M  V30 16 C -3.405850 2.408168 -0.602836 0
M  V30 17 C -3.317488 1.465442 -1.704747 0
M  V30 18 C -4.594531 0.688022 -1.926982 0
M  V30 19 C -4.727337 -0.625311 -1.870906 0
M  V30 20 C -3.597669 -1.576695 -1.569112 0
M  V30 21 C -4.126447 -2.916527 -2.052621 0
M  V30 22 C -3.800527 -3.167490 -3.494326 0
M  V30 23 O -2.418092 -3.285385 -3.661064 0
M  V30 24 C -3.484651 -3.975100 -1.207438 0
M  V30 25 O -2.085884 -3.987167 -1.518658 0
M  V30 26 C -1.195636 -4.854364 -0.911060 0
M  V30 27 C 0.212020 -4.741110 -1.341972 0
M  V30 28 O -1.563120 -5.682836 -0.049616 0
M  V30 29 O -5.520155 -2.791598 -1.850159 0
M  V30 30 C -5.899463 -1.464200 -2.067400 0
M  V30 31 O -7.032782 -0.981996 -2.381686 0
M  V30 32 H 1.139716 -1.916784 4.998787 0
M  V30 33 H 1.982793 -0.311446 4.779846 0
M  V30 34 H 1.687489 -1.000378 6.402780 0
M  V30 35 H 3.354295 -2.817724 4.685238 0
M  V30 36 H 3.332546 -2.460717 6.395860 0
M  V30 37 H 5.395449 -1.478480 5.443016 0
M  V30 38 H 4.315586 -0.452110 6.366076 0
M  V30 39 H 5.356356 0.676002 4.545751 0
M  V30 40 H 3.640535 0.767026 4.323219 0
M  V30 41 H 5.796568 -0.905171 2.919959 0
M  V30 42 H 4.944585 0.429971 2.214542 0
M  V30 43 H 3.901290 -2.396903 2.530876 0
M  V30 44 H 4.377827 -1.560137 1.093956 0
M  V30 45 H 1.726539 -1.052483 2.531614 0
M  V30 46 H 2.148027 -1.767153 1.008612 0
M  V30 47 H 2.708369 1.116644 1.615229 0
M  V30 48 H 1.316457 0.487402 0.745995 0
M  V30 49 H 4.174065 -0.014915 -0.132699 0
M  V30 50 H 3.289575 0.222980 -2.211267 0
M  V30 51 H 1.545564 1.560228 -2.893039 0
M  V30 52 H 1.065165 -0.152576 -2.924363 0
M  V30 53 H -0.644611 1.189824 -2.431331 0
M  V30 54 H -0.300337 0.198456 -0.989819 0
M  V30 55 H 0.278922 3.181631 -1.716621 0
M  V30 56 H 1.136310 2.487051 -0.372350 0
M  V30 57 H -0.432213 3.962583 0.346161 0
M  V30 58 H -0.959438 2.437706 1.004450 0
M  V30 59 H -2.254419 4.009033 -1.291443 0
M  V30 60 H -2.693747 4.049315 0.464899 0
M  V30 61 H -4.385045 2.998628 -0.604697 0
M  V30 62 H -3.543748 1.766372 0.353740 0
M  V30 63 H -2.960431 1.875150 -2.648331 0
M  V30 64 H -2.614766 0.609663 -1.417804 0
M  V30 65 H -5.487196 1.269394 -2.154656 0
M  V30 66 H -2.718093 -1.331060 -2.202529 0
M  V30 67 H -3.357363 -1.581221 -0.487236 0
M  V30 68 H -4.230411 -4.162324 -3.748200 0
M  V30 69 H -4.233118 -2.396764 -4.171692 0
M  V30 70 H -2.022847 -2.422520 -3.992987 0
M  V30 71 H -3.563562 -3.793473 -0.121593 0
M  V30 72 H -3.862211 -4.959367 -1.516055 0
M  V30 73 H 0.918688 -4.980473 -0.499965 0
M  V30 74 H 0.453625 -3.739311 -1.741258 0
M  V30 75 H 0.442946 -5.461697 -2.154522 0
M  V30 END ATOM
M  V30 BEGIN BOND
M  V30 1 1 1 2
M  V30 2 1 2 3
M  V30 3 1 3 4
M  V30 4 1 4 5
M  V30 5 1 5 6
M  V30 6 1 6 7
M  V30 7 1 7 8
M  V30 8 1 8 9
M  V30 9 2 9 10
M  V30 10 1 10 11
M  V30 11 1 11 12
M  V30 12 1 12 13
M  V30 13 1 13 14
M  V30 14 1 14 15
M  V30 15 1 15 16
M  V30 16 1 16 17
M  V30 17 1 17 18
M  V30 18 2 18 19
M  V30 19 1 19 20
M  V30 20 1 20 21
M  V30 21 1 21 22
M  V30 22 1 22 23
M  V30 23 1 21 24
M  V30 24 1 24 25
M  V30 25 1 25 26
M  V30 26 1 26 27
M  V30 27 2 26 28
M  V30 28 1 21 29
M  V30 29 1 29 30
M  V30 30 2 30 31
M  V30 31 1 30 19
M  V30 32 1 1 32
M  V30 33 1 1 33
M  V30 34 1 1 34
M  V30 35 1 2 35
M  V30 36 1 2 36
M  V30 37 1 3 37
M  V30 38 1 3 38
M  V30 39 1 4 39
M  V30 40 1 4 40
M  V30 41 1 5 41
M  V30 42 1 5 42
M  V30 43 1 6 43
M  V30 44 1 6 44
M  V30 45 1 7 45
M  V30 46 1 7 46
M  V30 47 1 8 47
M  V30 48 1 8 48
M  V30 49 1 9 49
M  V30 50 1 10 50
M  V30 51 1 11 51
M  V30 52 1 11 52
M  V30 53 1 12 53
M  V30 54 1 12 54
M  V30 55 1 13 55
M  V30 56 1 13 56
M  V30 57 1 14 57
M  V30 58 1 14 58
M  V30 59 1 15 59
M  V30 60 1 15 60
M  V30 61 1 16 61
M  V30 62 1 16 62
M  V30 63 1 17 63
M  V30 64 1 17 64
M  V30 65 1 18 65
M  V30 66 1 20 66
M  V30 67 1 20 67
M  V30 68 1 22 68
M  V30 69 1 22 69
M  V30 70 1 23 70
M  V30 71 1 24 71
M  V30 72 1 24 72
M  V30 73 1 27 73
M  V30 74 1 27 74
M  V30 75 1 27 75
M  V30 END BOND
M  V30 END CTAB
M  END
>  <Dataset>  (747) 
ChEMBL_Kinases

>  <Ligand_Instance>  (747) 
nan

>  <PDB_ID>  (747) 
nan

>  <Standardized_SMILES>  (747) 
CCCCCCCC/C=C\CCCCCCC/C=C1\CC(CO)(COC(C)=O)OC1=O

>  <Name>  (747) 
nan

>  <Pocket>  (747) 
nan

>  <ATP_Site>  (747) 
nan

>  <Peripheral>  (747) 
nan

>  <Num_H_Atoms_ProtBoundConf>  (747) 
nan

>  <Num_Resolved_Atoms>  (747) 
nan

>  <Num_Not_Resolved_Atoms>  (747) 
nan

$$$$
CHEMBL399146
     RDKit          3D

  0  0  0  0  0  0  0  0  0  0999 V3000
M  V30 BEGIN CTAB
M  V30 COUNTS 64 68 0 0 0
M  V30 BEGIN ATOM
M  V30 1 N 8.681430 -4.381575 -2.221035 0
M  V30 2 C 8.045545 -3.137086 -2.432332 0
M  V30 3 O 8.720831 -2.417654 -3.239648 0
M  V30 4 C 6.793924 -2.906170 -1.727015 0
M  V30 5 C 6.209895 -3.815719 -0.874097 0
M  V30 6 C 5.022516 -3.424552 -0.295052 0
M  V30 7 C 4.451511 -2.176191 -0.562890 0
M  V30 8 N 3.295460 -1.652220 -0.072938 0
M  V30 9 C 3.197179 -0.434486 -0.635996 0
M  V30 10 C 2.094889 0.486379 -0.385977 0
M  V30 11 C 1.095168 0.099223 0.478146 0
M  V30 12 C 0.032477 0.926909 0.746758 0
M  V30 13 C -0.112435 2.175857 0.186882 0
M  V30 14 O -0.978780 3.223855 0.204916 0
M  V30 15 C -2.175863 3.341746 0.900766 0
M  V30 16 C -3.158850 2.328535 0.445198 0
M  V30 17 C -4.505911 2.381340 1.132675 0
M  V30 18 C -5.351316 1.285986 0.525384 0
M  V30 19 C -4.716274 -0.050822 0.760080 0
M  V30 20 N -4.204657 -0.140755 2.089896 0
M  V30 21 C -4.157276 -1.482473 2.575751 0
M  V30 22 C -3.276889 -2.360962 1.766834 0
M  V30 23 C -1.927102 -2.461150 2.117021 0
M  V30 24 C -0.965028 -3.231158 1.479429 0
M  V30 25 C -1.414238 -3.958895 0.396154 0
M  V30 26 C -2.734515 -3.894808 0.010541 0
M  V30 27 C -3.656363 -3.114332 0.675877 0
M  V30 28 C -4.929955 0.762389 2.924637 0
M  V30 29 C -4.463261 2.188834 2.613731 0
M  V30 30 C 0.916662 2.560483 -0.694383 0
M  V30 31 C 2.015354 1.738348 -0.989350 0
M  V30 32 N 4.257500 -0.199078 -1.454354 0
M  V30 33 C 5.055842 -1.282132 -1.420939 0
M  V30 34 C 6.247422 -1.675481 -2.001800 0
M  V30 35 H 8.792614 -5.382093 -1.890034 0
M  V30 36 H 9.387225 -5.133478 -2.220791 0
M  V30 37 H 6.705679 -4.754529 -0.716401 0
M  V30 38 H 4.574396 -4.157569 0.377043 0
M  V30 39 H 2.640607 -2.106916 0.591960 0
M  V30 40 H 1.049878 -0.835148 0.997801 0
M  V30 41 H -0.776614 0.715634 1.413569 0
M  V30 42 H -1.949824 3.125703 1.990308 0
M  V30 43 H -2.551970 4.385578 0.796354 0
M  V30 44 H -3.382472 2.531000 -0.634202 0
M  V30 45 H -2.795265 1.318194 0.545434 0
M  V30 46 H -4.989752 3.379890 0.963890 0
M  V30 47 H -6.399155 1.314423 0.883696 0
M  V30 48 H -5.359975 1.417355 -0.598947 0
M  V30 49 H -3.910467 -0.285431 0.038412 0
M  V30 50 H -5.509331 -0.809027 0.550413 0
M  V30 51 H -3.722997 -1.445398 3.603697 0
M  V30 52 H -5.158457 -1.941768 2.710347 0
M  V30 53 H -1.589704 -1.871906 2.984842 0
M  V30 54 H 0.048075 -3.215882 1.856957 0
M  V30 55 H -0.670612 -4.569089 -0.116448 0
M  V30 56 H -3.064949 -4.477513 -0.846605 0
M  V30 57 H -4.694365 -3.054831 0.385186 0
M  V30 58 H -6.027639 0.752664 2.803107 0
M  V30 59 H -4.770307 0.552048 4.022036 0
M  V30 60 H -5.213353 2.834245 3.147477 0
M  V30 61 H -3.473649 2.383321 3.052935 0
M  V30 62 H 1.062497 3.482609 -1.273580 0
M  V30 63 H 2.841642 1.940202 -1.640666 0
M  V30 64 H 6.713817 -0.979853 -2.666947 0
M  V30 END ATOM
M  V30 BEGIN BOND
M  V30 1 1 1 2
M  V30 2 2 2 3
M  V30 3 1 2 4
M  V30 4 2 4 5
M  V30 5 1 5 6
M  V30 6 2 6 7
M  V30 7 1 7 8
M  V30 8 1 8 9
M  V30 9 1 9 10
M  V30 10 2 10 11
M  V30 11 1 11 12
M  V30 12 2 12 13
M  V30 13 1 13 14
M  V30 14 1 14 15
M  V30 15 1 15 16
M  V30 16 1 16 17
M  V30 17 1 17 18
M  V30 18 1 18 19
M  V30 19 1 19 20
M  V30 20 1 20 21
M  V30 21 1 21 22
M  V30 22 2 22 23
M  V30 23 1 23 24
M  V30 24 2 24 25
M  V30 25 1 25 26
M  V30 26 2 26 27
M  V30 27 1 20 28
M  V30 28 1 28 29
M  V30 29 1 13 30
M  V30 30 2 30 31
M  V30 31 2 9 32
M  V30 32 1 32 33
M  V30 33 2 33 34
M  V30 34 1 34 4
M  V30 35 1 33 7
M  V30 36 1 31 10
M  V30 37 1 29 17
M  V30 38 1 27 22
M  V30 39 1 1 35
M  V30 40 1 1 36
M  V30 41 1 5 37
M  V30 42 1 6 38
M  V30 43 1 8 39
M  V30 44 1 11 40
M  V30 45 1 12 41
M  V30 46 1 15 42
M  V30 47 1 15 43
M  V30 48 1 16 44
M  V30 49 1 16 45
M  V30 50 1 17 46
M  V30 51 1 18 47
M  V30 52 1 18 48
M  V30 53 1 19 49
M  V30 54 1 19 50
M  V30 55 1 21 51
M  V30 56 1 21 52
M  V30 57 1 23 53
M  V30 58 1 24 54
M  V30 59 1 25 55
M  V30 60 1 26 56
M  V30 61 1 27 57
M  V30 62 1 28 58
M  V30 63 1 28 59
M  V30 64 1 29 60
M  V30 65 1 29 61
M  V30 66 1 30 62
M  V30 67 1 31 63
M  V30 68 1 34 64
M  V30 END BOND
M  V30 END CTAB
M  END
>  <Dataset>  (748) 
ChEMBL_Kinases

>  <Ligand_Instance>  (748) 
nan

>  <PDB_ID>  (748) 
nan

>  <Standardized_SMILES>  (748) 
NC(=O)c1ccc2[nH]c(-c3ccc(OCCC4CCN(Cc5ccccc5)CC4)cc3)nc2c1

>  <Name>  (748) 
nan

>  <Pocket>  (748) 
nan

>  <ATP_Site>  (748) 
nan

>  <Peripheral>  (748) 
nan

>  <Num_H_Atoms_ProtBoundConf>  (748) 
nan

>  <Num_Resolved_Atoms>  (748) 
nan

>  <Num_Not_Resolved_Atoms>  (748) 
nan

$$$$
CHEMBL399121
     RDKit          3D

  0  0  0  0  0  0  0  0  0  0999 V3000
M  V30 BEGIN CTAB
M  V30 COUNTS 36 38 0 0 0
M  V30 BEGIN ATOM
M  V30 1 C -0.943572 -6.299753 2.085544 0
M  V30 2 O -1.387720 -5.017874 2.480992 0
M  V30 3 C -1.005478 -3.920641 1.722172 0
M  V30 4 C -0.211906 -4.017970 0.598527 0
M  V30 5 C 0.143872 -2.899595 -0.126220 0
M  V30 6 C -0.290971 -1.649988 0.261973 0
M  V30 7 C -0.009236 -0.346732 -0.391332 0 CFG=2
M  V30 8 C 1.130112 -0.409674 -1.355873 0
M  V30 9 C 1.574971 0.974501 -1.655955 0
M  V30 10 O 2.145556 1.195150 -2.766382 0
M  V30 11 C 1.396659 2.100439 -0.751309 0
M  V30 12 C 1.842977 3.359093 -1.036197 0
M  V30 13 O 2.492940 3.625855 -2.211530 0
M  V30 14 C 1.614490 4.357774 -0.092581 0
M  V30 15 C 0.958900 4.081846 1.089599 0
M  V30 16 O 0.752778 5.124702 2.009751 0
M  V30 17 C 0.501690 2.815991 1.392863 0
M  V30 18 C 0.745265 1.863409 0.441344 0
M  V30 19 O 0.326609 0.555427 0.646768 0
M  V30 20 C -1.090649 -1.574630 1.398576 0
M  V30 21 C -1.447046 -2.675065 2.120809 0
M  V30 22 O -2.250960 -2.571535 3.258144 0
M  V30 23 H 0.166904 -6.300308 1.885554 0
M  V30 24 H -1.423248 -6.660979 1.153496 0
M  V30 25 H -1.079321 -7.051773 2.897467 0
M  V30 26 H 0.131341 -4.972200 0.285971 0
M  V30 27 H 0.756542 -2.906590 -1.006679 0
M  V30 28 H -0.904016 -0.006069 -0.927480 0
M  V30 29 H 1.998065 -0.958183 -0.943389 0
M  V30 30 H 0.844897 -0.957681 -2.286582 0
M  V30 31 H 2.050962 3.914479 -3.074399 0
M  V30 32 H 1.941474 5.366115 -0.259414 0
M  V30 33 H 0.182634 4.963534 2.831114 0
M  V30 34 H -0.013119 2.566452 2.305223 0
M  V30 35 H -1.475764 -0.622399 1.771769 0
M  V30 36 H -1.952965 -3.172002 4.042650 0
M  V30 END ATOM
M  V30 BEGIN BOND
M  V30 1 1 1 2
M  V30 2 1 2 3
M  V30 3 2 3 4
M  V30 4 1 4 5
M  V30 5 2 5 6
M  V30 6 1 6 7
M  V30 7 1 7 8
M  V30 8 1 8 9
M  V30 9 2 9 10
M  V30 10 1 9 11
M  V30 11 2 11 12
M  V30 12 1 12 13
M  V30 13 1 12 14
M  V30 14 2 14 15
M  V30 15 1 15 16
M  V30 16 1 15 17
M  V30 17 2 17 18
M  V30 18 1 18 19
M  V30 19 1 6 20
M  V30 20 2 20 21
M  V30 21 1 21 22
M  V30 22 1 21 3
M  V30 23 1 19 7
M  V30 24 1 18 11
M  V30 25 1 1 23
M  V30 26 1 1 24
M  V30 27 1 1 25
M  V30 28 1 4 26
M  V30 29 1 5 27
M  V30 30 1 7 28 CFG=3
M  V30 31 1 8 29
M  V30 32 1 8 30
M  V30 33 1 13 31
M  V30 34 1 14 32
M  V30 35 1 16 33
M  V30 36 1 17 34
M  V30 37 1 20 35
M  V30 38 1 22 36
M  V30 END BOND
M  V30 END CTAB
M  END
>  <Dataset>  (749) 
ChEMBL_Kinases

>  <Ligand_Instance>  (749) 
nan

>  <PDB_ID>  (749) 
nan

>  <Standardized_SMILES>  (749) 
COc1ccc([C@@H]2CC(=O)c3c(O)cc(O)cc3O2)cc1O

>  <Name>  (749) 
HESPERETIN

>  <Pocket>  (749) 
nan

>  <ATP_Site>  (749) 
nan

>  <Peripheral>  (749) 
nan

>  <Num_H_Atoms_ProtBoundConf>  (749) 
nan

>  <Num_Resolved_Atoms>  (749) 
nan

>  <Num_Not_Resolved_Atoms>  (749) 
nan

$$$$
CHEMBL399257
     RDKit          3D

  0  0  0  0  0  0  0  0  0  0999 V3000
M  V30 BEGIN CTAB
M  V30 COUNTS 59 63 0 0 0
M  V30 BEGIN ATOM
M  V30 1 C 2.967238 1.521900 5.837372 0
M  V30 2 N 3.851221 0.425291 5.649673 0
M  V30 3 C 3.335409 -0.833453 6.128828 0
M  V30 4 C 4.521635 0.340495 4.396836 0
M  V30 5 C 3.639499 0.230382 3.216764 0
M  V30 6 C 3.135673 1.290966 2.483780 0
M  V30 7 C 2.316044 1.053701 1.394749 0
M  V30 8 N 1.971145 -0.186372 0.996366 0
M  V30 9 C 1.202361 -0.639805 -0.013843 0
M  V30 10 C 0.529612 0.240070 -0.967402 0
M  V30 11 C 1.264241 1.103159 -1.756328 0
M  V30 12 C 0.577774 1.914442 -2.643940 0
M  V30 13 N -0.762040 1.845181 -2.716624 0
M  V30 14 C -1.478940 1.006417 -1.950333 0
M  V30 15 N -2.874738 0.949958 -2.042649 0
M  V30 16 C -3.712661 0.069045 -1.250209 0
M  V30 17 C -3.344654 -1.356916 -1.510960 0
M  V30 18 C -4.609484 -2.069021 -1.940651 0
M  V30 19 C -5.724255 -1.195607 -1.402450 0
M  V30 20 C -5.158998 0.190971 -1.595886 0
M  V30 21 N -0.829790 0.201587 -1.072963 0
M  V30 22 C 1.195772 -2.018731 0.049257 0
M  V30 23 C 0.480188 -2.905830 -0.864757 0
M  V30 24 C 0.740529 -2.975424 -2.218852 0
M  V30 25 C 0.027790 -3.840530 -3.044737 0
M  V30 26 C -0.956660 -4.644374 -2.505911 0
M  V30 27 F -1.696835 -5.513204 -3.236336 0
M  V30 28 C -1.232512 -4.586134 -1.137715 0
M  V30 29 C -0.516138 -3.719974 -0.322209 0
M  V30 30 N 1.968702 -2.373624 1.107085 0
M  V30 31 C 2.449111 -1.240511 1.694035 0
M  V30 32 C 3.279750 -1.035836 2.799706 0
M  V30 33 H 2.169791 1.218021 6.576814 0
M  V30 34 H 3.521646 2.340559 6.381093 0
M  V30 35 H 2.436379 1.880834 4.957964 0
M  V30 36 H 2.433382 -1.183375 5.624140 0
M  V30 37 H 3.141293 -0.716619 7.218151 0
M  V30 38 H 4.133068 -1.598703 6.035356 0
M  V30 39 H 5.182481 -0.544210 4.432896 0
M  V30 40 H 5.118347 1.277936 4.282752 0
M  V30 41 H 3.414537 2.286482 2.806041 0
M  V30 42 H 1.924748 1.905006 0.823825 0
M  V30 43 H 2.323682 1.174429 -1.715622 0
M  V30 44 H 1.086503 2.627327 -3.306302 0
M  V30 45 H -3.376736 1.583918 -2.731160 0
M  V30 46 H -3.557935 0.393541 -0.192336 0
M  V30 47 H -2.623191 -1.405922 -2.340910 0
M  V30 48 H -2.937481 -1.765625 -0.561414 0
M  V30 49 H -4.642677 -3.099723 -1.550022 0
M  V30 50 H -4.710156 -2.120066 -3.047566 0
M  V30 51 H -5.895954 -1.443918 -0.347323 0
M  V30 52 H -6.616539 -1.372907 -2.047543 0
M  V30 53 H -5.695237 0.870145 -0.869668 0
M  V30 54 H -5.327052 0.507385 -2.651654 0
M  V30 55 H 1.508516 -2.349115 -2.641701 0
M  V30 56 H 0.204954 -3.919155 -4.101302 0
M  V30 57 H -2.009036 -5.210013 -0.667741 0
M  V30 58 H -0.737120 -3.679118 0.749634 0
M  V30 59 H 3.642668 -1.920271 3.333447 0
M  V30 END ATOM
M  V30 BEGIN BOND
M  V30 1 1 1 2
M  V30 2 1 2 3
M  V30 3 1 2 4
M  V30 4 1 4 5
M  V30 5 1 5 6
M  V30 6 2 6 7
M  V30 7 1 7 8
M  V30 8 1 8 9
M  V30 9 1 9 10
M  V30 10 2 10 11
M  V30 11 1 11 12
M  V30 12 2 12 13
M  V30 13 1 13 14
M  V30 14 1 14 15
M  V30 15 1 15 16
M  V30 16 1 16 17
M  V30 17 1 17 18
M  V30 18 1 18 19
M  V30 19 1 19 20
M  V30 20 2 14 21
M  V30 21 2 9 22
M  V30 22 1 22 23
M  V30 23 2 23 24
M  V30 24 1 24 25
M  V30 25 2 25 26
M  V30 26 1 26 27
M  V30 27 1 26 28
M  V30 28 2 28 29
M  V30 29 1 22 30
M  V30 30 2 30 31
M  V30 31 1 31 32
M  V30 32 2 32 5
M  V30 33 1 31 8
M  V30 34 1 21 10
M  V30 35 1 29 23
M  V30 36 1 20 16
M  V30 37 1 1 33
M  V30 38 1 1 34
M  V30 39 1 1 35
M  V30 40 1 3 36
M  V30 41 1 3 37
M  V30 42 1 3 38
M  V30 43 1 4 39
M  V30 44 1 4 40
M  V30 45 1 6 41
M  V30 46 1 7 42
M  V30 47 1 11 43
M  V30 48 1 12 44
M  V30 49 1 15 45
M  V30 50 1 16 46
M  V30 51 1 17 47
M  V30 52 1 17 48
M  V30 53 1 18 49
M  V30 54 1 18 50
M  V30 55 1 19 51
M  V30 56 1 19 52
M  V30 57 1 20 53
M  V30 58 1 20 54
M  V30 59 1 24 55
M  V30 60 1 25 56
M  V30 61 1 28 57
M  V30 62 1 29 58
M  V30 63 1 32 59
M  V30 END BOND
M  V30 END CTAB
M  END
>  <Dataset>  (750) 
ChEMBL_Kinases

>  <Ligand_Instance>  (750) 
nan

>  <PDB_ID>  (750) 
nan

>  <Standardized_SMILES>  (750) 
CN(C)Cc1ccn2c(-c3ccnc(NC4CCCC4)n3)c(-c3ccc(F)cc3)nc2c1

>  <Name>  (750) 
nan

>  <Pocket>  (750) 
nan

>  <ATP_Site>  (750) 
nan

>  <Peripheral>  (750) 
nan

>  <Num_H_Atoms_ProtBoundConf>  (750) 
nan

>  <Num_Resolved_Atoms>  (750) 
nan

>  <Num_Not_Resolved_Atoms>  (750) 
nan

$$$$
CHEMBL4865259
     RDKit          3D

  0  0  0  0  0  0  0  0  0  0999 V3000
M  V30 BEGIN CTAB
M  V30 COUNTS 45 47 0 0 0
M  V30 BEGIN ATOM
M  V30 1 C 3.901621 -3.238231 0.062868 0
M  V30 2 O 3.084635 -2.176714 -0.364396 0
M  V30 3 C 2.932623 -2.031763 -1.778691 0
M  V30 4 N 3.195051 -2.431539 -3.021001 0
M  V30 5 N 2.556493 -1.613824 -3.862002 0
M  V30 6 C 2.848515 -2.038387 -5.218515 0
M  V30 7 C 1.926896 -0.740966 -3.013890 0
M  V30 8 C 2.115917 -0.934566 -1.554645 0
M  V30 9 C 1.242908 0.238195 -1.316368 0
M  V30 10 O 1.505364 -0.013473 -0.074195 0
M  V30 11 N 0.376117 1.363835 -1.567730 0
M  V30 12 C 0.137927 1.769886 -0.197193 0
M  V30 13 C 0.967791 2.673968 0.409549 0
M  V30 14 C 0.630240 2.969367 1.713097 0
M  V30 15 C -0.476116 2.331464 2.235689 0
M  V30 16 C -1.309005 1.422972 1.626048 0
M  V30 17 C -2.471371 0.748277 2.172019 0
M  V30 18 N -3.627327 0.880620 1.502506 0
M  V30 19 N -4.593926 0.207923 2.115276 0
M  V30 20 C -3.986201 -0.344549 3.190739 0
M  V30 21 N -2.668323 -0.037541 3.269537 0
M  V30 22 C -1.608233 -0.351449 4.177540 0
M  V30 23 C -0.620160 -1.360330 3.566238 0
M  V30 24 C -2.188723 -1.095686 5.375140 0
M  V30 25 O -2.781341 -2.261173 4.902613 0
M  V30 26 N -0.953690 1.151638 0.342737 0
M  V30 27 H 4.935238 -2.990946 -0.267711 0
M  V30 28 H 3.554382 -4.205254 -0.408109 0
M  V30 29 H 3.830790 -3.382653 1.168187 0
M  V30 30 H 2.470561 -3.058058 -5.411006 0
M  V30 31 H 3.928195 -1.959071 -5.444365 0
M  V30 32 H 2.353700 -1.334852 -5.954074 0
M  V30 33 H 1.459825 -0.153329 -3.877836 0
M  V30 34 H 0.469711 1.181291 -2.584763 0
M  V30 35 H 1.801346 3.116845 -0.072451 0
M  V30 36 H 1.193420 3.657176 2.315759 0
M  V30 37 H -0.769356 2.548906 3.278318 0
M  V30 38 H -4.451307 -0.967129 3.931240 0
M  V30 39 H -1.104899 0.526524 4.588783 0
M  V30 40 H -0.006088 -0.919779 2.790378 0
M  V30 41 H -0.068492 -1.832184 4.407124 0
M  V30 42 H -1.270263 -2.170753 3.136335 0
M  V30 43 H -2.888548 -0.442499 5.942150 0
M  V30 44 H -1.313569 -1.402036 5.978286 0
M  V30 45 H -3.433495 -2.673157 5.510932 0
M  V30 END ATOM
M  V30 BEGIN BOND
M  V30 1 1 1 2
M  V30 2 1 2 3
M  V30 3 2 3 4
M  V30 4 1 4 5
M  V30 5 1 5 6
M  V30 6 1 5 7
M  V30 7 2 7 8
M  V30 8 1 8 9
M  V30 9 2 9 10
M  V30 10 1 9 11
M  V30 11 1 11 12
M  V30 12 2 12 13
M  V30 13 1 13 14
M  V30 14 2 14 15
M  V30 15 1 15 16
M  V30 16 1 16 17
M  V30 17 2 17 18
M  V30 18 1 18 19
M  V30 19 2 19 20
M  V30 20 1 20 21
M  V30 21 1 21 22
M  V30 22 1 22 23
M  V30 23 1 22 24
M  V30 24 1 24 25
M  V30 25 2 16 26
M  V30 26 1 8 3
M  V30 27 1 26 12
M  V30 28 1 21 17
M  V30 29 1 1 27
M  V30 30 1 1 28
M  V30 31 1 1 29
M  V30 32 1 6 30
M  V30 33 1 6 31
M  V30 34 1 6 32
M  V30 35 1 7 33
M  V30 36 1 11 34
M  V30 37 1 13 35
M  V30 38 1 14 36
M  V30 39 1 15 37
M  V30 40 1 20 38
M  V30 41 1 22 39
M  V30 42 1 23 40
M  V30 43 1 23 41
M  V30 44 1 23 42
M  V30 45 1 24 43
M  V30 46 1 24 44
M  V30 47 1 25 45
M  V30 END BOND
M  V30 END CTAB
M  END
>  <Dataset>  (751) 
ChEMBL_Kinases

>  <Ligand_Instance>  (751) 
nan

>  <PDB_ID>  (751) 
nan

>  <Standardized_SMILES>  (751) 
COc1nn(C)cc1C(=O)Nc1cccc(-c2nncn2C(C)CO)n1

>  <Name>  (751) 
nan

>  <Pocket>  (751) 
nan

>  <ATP_Site>  (751) 
nan

>  <Peripheral>  (751) 
nan

>  <Num_H_Atoms_ProtBoundConf>  (751) 
nan

>  <Num_Resolved_Atoms>  (751) 
nan

>  <Num_Not_Resolved_Atoms>  (751) 
nan

$$$$
CHEMBL4865268
     RDKit          3D

  0  0  0  0  0  0  0  0  0  0999 V3000
M  V30 BEGIN CTAB
M  V30 COUNTS 47 49 0 0 0
M  V30 BEGIN ATOM
M  V30 1 C -1.880399 -0.284321 2.393422 0
M  V30 2 C -0.745413 -0.836921 1.612023 0
M  V30 3 C 0.494971 -0.234349 1.627798 0
M  V30 4 C 1.554573 -0.739981 0.906119 0
M  V30 5 N 2.769668 -0.010374 1.021949 0
M  V30 6 C 2.956492 1.038791 0.057323 0
M  V30 7 O 2.150427 1.361061 -0.864870 0
M  V30 8 C 4.147085 1.939694 -0.024250 0
M  V30 9 O 5.065422 1.638338 0.957247 0
M  V30 10 C 3.625002 3.326181 0.079881 0
M  V30 11 C 3.445245 4.260476 -0.922249 0
M  V30 12 C 2.944316 5.483405 -0.578268 0
M  V30 13 F 2.777436 6.380945 -1.577192 0
M  V30 14 C 2.606377 5.848206 0.699321 0
M  V30 15 C 2.787961 4.911741 1.694993 0
M  V30 16 F 2.442952 5.302613 2.957342 0
M  V30 17 C 3.296445 3.655235 1.380212 0
M  V30 18 C 1.329899 -1.875783 0.163594 0
M  V30 19 C 0.089991 -2.475677 0.149585 0
M  V30 20 C -0.994757 -1.974444 0.876562 0
M  V30 21 C -2.262968 -2.686519 0.790780 0
M  V30 22 C -3.525667 -2.165791 0.613584 0
M  V30 23 N -4.605381 -2.937993 0.553249 0
M  V30 24 C -4.497437 -4.287638 0.666136 0
M  V30 25 N -5.738470 -4.976837 0.581924 0
M  V30 26 C -3.259599 -4.853844 0.844010 0
M  V30 27 C -3.208867 -6.300503 0.957903 0
M  V30 28 O -4.275426 -6.953594 0.890118 0
M  V30 29 O -2.086372 -7.077280 1.138894 0
M  V30 30 C -2.133356 -4.066125 0.908279 0
M  V30 31 H -1.473268 0.201459 3.312478 0
M  V30 32 H -2.360100 0.525180 1.818472 0
M  V30 33 H -2.566219 -1.093283 2.714200 0
M  V30 34 H 0.575194 0.652662 2.239806 0
M  V30 35 H 3.526448 -0.138304 1.704659 0
M  V30 36 H 4.629593 1.834388 -1.005534 0
M  V30 37 H 4.701226 1.522738 1.858606 0
M  V30 38 H 3.728510 3.909716 -1.890925 0
M  V30 39 H 2.210727 6.834408 0.924867 0
M  V30 40 H 3.381180 3.034933 2.261312 0
M  V30 41 H 2.180787 -2.244741 -0.389201 0
M  V30 42 H 0.006799 -3.376441 -0.471319 0
M  V30 43 H -3.559631 -1.105239 0.530245 0
M  V30 44 H -6.527790 -4.864213 1.260085 0
M  V30 45 H -5.890083 -5.650570 -0.211343 0
M  V30 46 H -2.064403 -7.804601 1.857725 0
M  V30 47 H -1.179036 -4.591076 1.052046 0
M  V30 END ATOM
M  V30 BEGIN BOND
M  V30 1 1 1 2
M  V30 2 2 2 3
M  V30 3 1 3 4
M  V30 4 1 4 5
M  V30 5 1 5 6
M  V30 6 2 6 7
M  V30 7 1 6 8
M  V30 8 1 8 9
M  V30 9 1 8 10
M  V30 10 2 10 11
M  V30 11 1 11 12
M  V30 12 1 12 13
M  V30 13 2 12 14
M  V30 14 1 14 15
M  V30 15 1 15 16
M  V30 16 2 15 17
M  V30 17 2 4 18
M  V30 18 1 18 19
M  V30 19 2 19 20
M  V30 20 1 20 21
M  V30 21 2 21 22
M  V30 22 1 22 23
M  V30 23 2 23 24
M  V30 24 1 24 25
M  V30 25 1 24 26
M  V30 26 1 26 27
M  V30 27 2 27 28
M  V30 28 1 27 29
M  V30 29 2 26 30
M  V30 30 1 20 2
M  V30 31 1 30 21
M  V30 32 1 17 10
M  V30 33 1 1 31
M  V30 34 1 1 32
M  V30 35 1 1 33
M  V30 36 1 3 34
M  V30 37 1 5 35
M  V30 38 1 8 36
M  V30 39 1 9 37
M  V30 40 1 11 38
M  V30 41 1 14 39
M  V30 42 1 17 40
M  V30 43 1 18 41
M  V30 44 1 19 42
M  V30 45 1 22 43
M  V30 46 1 25 44
M  V30 47 1 25 45
M  V30 48 1 29 46
M  V30 49 1 30 47
M  V30 END BOND
M  V30 END CTAB
M  END
>  <Dataset>  (752) 
ChEMBL_Kinases

>  <Ligand_Instance>  (752) 
nan

>  <PDB_ID>  (752) 
nan

>  <Standardized_SMILES>  (752) 
Cc1cc(NC(=O)C(O)c2cc(F)cc(F)c2)ccc1-c1cnc(N)c(C(=O)O)c1

>  <Name>  (752) 
nan

>  <Pocket>  (752) 
nan

>  <ATP_Site>  (752) 
nan

>  <Peripheral>  (752) 
nan

>  <Num_H_Atoms_ProtBoundConf>  (752) 
nan

>  <Num_Resolved_Atoms>  (752) 
nan

>  <Num_Not_Resolved_Atoms>  (752) 
nan

$$$$
CHEMBL4865305
     RDKit          3D

  0  0  0  0  0  0  0  0  0  0999 V3000
M  V30 BEGIN CTAB
M  V30 COUNTS 58 61 0 0 0
M  V30 BEGIN ATOM
M  V30 1 C 0.917876 -0.161298 5.496099 0
M  V30 2 O 0.676500 -0.276565 4.117312 0
M  V30 3 C 1.630068 -0.685221 3.211278 0
M  V30 4 C 2.854886 -1.001995 3.731644 0
M  V30 5 C 3.861484 -1.422880 2.895281 0
M  V30 6 C 3.684060 -1.540139 1.533672 0
M  V30 7 C 2.402832 -1.196671 1.076392 0
M  V30 8 C 1.342047 -0.767759 1.843542 0
M  V30 9 N 0.043040 -0.391322 1.421102 0
M  V30 10 C -0.473642 -0.407076 0.104985 0
M  V30 11 N 0.215413 -0.866941 -0.981124 0
M  V30 12 C -0.284450 -0.854255 -2.218063 0
M  V30 13 C -1.548791 -0.351200 -2.373103 0
M  V30 14 C -2.082783 -0.310960 -3.708719 0
M  V30 15 N -1.562484 -0.730360 -4.959195 0
M  V30 16 O -3.069480 0.029094 -4.381575 0
M  V30 17 C -2.302729 0.127658 -1.330600 0
M  V30 18 N -3.619101 0.648152 -1.421548 0
M  V30 19 C -4.925330 0.341626 -0.954854 0
M  V30 20 C -5.362037 1.431988 -0.205636 0
M  V30 21 C -6.642138 1.350589 0.362101 0
M  V30 22 C -7.419812 0.235224 0.178277 0
M  V30 23 C -6.989918 -0.846344 -0.563087 0
M  V30 24 C -5.738329 -0.750484 -1.110427 0
M  V30 25 C -5.109772 -1.819070 -1.926381 0
M  V30 26 O -4.152560 -2.472455 -1.144769 0
M  V30 27 N -1.693815 0.058412 -0.158394 0
M  V30 28 C 4.676965 -1.983290 0.536108 0
M  V30 29 N 5.988286 -1.705710 0.957235 0
M  V30 30 C 6.729747 -0.911050 0.000402 0
M  V30 31 C 6.261519 -1.377646 2.295753 0
M  V30 32 C 5.239387 -1.799348 3.314346 0
M  V30 33 H 1.455809 -1.019734 5.921501 0
M  V30 34 H 1.353709 0.826422 5.770345 0
M  V30 35 H -0.079650 -0.159925 6.027804 0
M  V30 36 H 3.118689 -0.954673 4.756886 0
M  V30 37 H 2.232129 -1.277482 0.018729 0
M  V30 38 H -0.614775 -0.055024 2.161677 0
M  V30 39 H 0.279478 -1.228086 -3.083765 0
M  V30 40 H -0.554211 -0.500100 -4.903149 0
M  V30 41 H -0.521536 -0.517145 -4.960106 0
M  V30 42 H -3.448225 1.477303 -2.019630 0
M  V30 43 H -4.896908 2.376167 0.039935 0
M  V30 44 H -7.105036 2.143125 0.973483 0
M  V30 45 H -8.423026 0.135473 0.604819 0
M  V30 46 H -7.528084 -1.772555 -0.762838 0
M  V30 47 H -5.943069 -2.566603 -2.094526 0
M  V30 48 H -4.740239 -1.491780 -2.900237 0
M  V30 49 H -4.402379 -2.377473 -0.183633 0
M  V30 50 H 4.489450 -3.084565 0.356296 0
M  V30 51 H 4.500977 -1.426683 -0.419370 0
M  V30 52 H 7.024929 -1.482415 -0.910656 0
M  V30 53 H 6.066934 -0.078862 -0.341425 0
M  V30 54 H 7.647595 -0.468589 0.411197 0
M  V30 55 H 6.304662 -0.251895 2.365591 0
M  V30 56 H 7.282437 -1.694999 2.617479 0
M  V30 57 H 5.262065 -2.889523 3.521385 0
M  V30 58 H 5.435944 -1.290932 4.281418 0
M  V30 END ATOM
M  V30 BEGIN BOND
M  V30 1 1 1 2
M  V30 2 1 2 3
M  V30 3 2 3 4
M  V30 4 1 4 5
M  V30 5 2 5 6
M  V30 6 1 6 7
M  V30 7 2 7 8
M  V30 8 1 8 9
M  V30 9 1 9 10
M  V30 10 2 10 11
M  V30 11 1 11 12
M  V30 12 2 12 13
M  V30 13 1 13 14
M  V30 14 1 14 15
M  V30 15 2 14 16
M  V30 16 1 13 17
M  V30 17 1 17 18
M  V30 18 1 18 19
M  V30 19 2 19 20
M  V30 20 1 20 21
M  V30 21 2 21 22
M  V30 22 1 22 23
M  V30 23 2 23 24
M  V30 24 1 24 25
M  V30 25 1 25 26
M  V30 26 2 17 27
M  V30 27 1 6 28
M  V30 28 1 28 29
M  V30 29 1 29 30
M  V30 30 1 29 31
M  V30 31 1 31 32
M  V30 32 1 8 3
M  V30 33 1 27 10
M  V30 34 1 32 5
M  V30 35 1 24 19
M  V30 36 1 1 33
M  V30 37 1 1 34
M  V30 38 1 1 35
M  V30 39 1 4 36
M  V30 40 1 7 37
M  V30 41 1 9 38
M  V30 42 1 12 39
M  V30 43 1 15 40
M  V30 44 1 15 41
M  V30 45 1 18 42
M  V30 46 1 20 43
M  V30 47 1 21 44
M  V30 48 1 22 45
M  V30 49 1 23 46
M  V30 50 1 25 47
M  V30 51 1 25 48
M  V30 52 1 26 49
M  V30 53 1 28 50
M  V30 54 1 28 51
M  V30 55 1 30 52
M  V30 56 1 30 53
M  V30 57 1 30 54
M  V30 58 1 31 55
M  V30 59 1 31 56
M  V30 60 1 32 57
M  V30 61 1 32 58
M  V30 END BOND
M  V30 END CTAB
M  END
>  <Dataset>  (753) 
ChEMBL_Kinases

>  <Ligand_Instance>  (753) 
nan

>  <PDB_ID>  (753) 
nan

>  <Standardized_SMILES>  (753) 
COc1cc2c(cc1Nc1ncc(C(N)=O)c(Nc3ccccc3CO)n1)CN(C)CC2

>  <Name>  (753) 
nan

>  <Pocket>  (753) 
nan

>  <ATP_Site>  (753) 
nan

>  <Peripheral>  (753) 
nan

>  <Num_H_Atoms_ProtBoundConf>  (753) 
nan

>  <Num_Resolved_Atoms>  (753) 
nan

>  <Num_Not_Resolved_Atoms>  (753) 
nan

$$$$
CHEMBL4865331
     RDKit          3D

  0  0  0  0  0  0  0  0  0  0999 V3000
M  V30 BEGIN CTAB
M  V30 COUNTS 67 73 0 0 0
M  V30 BEGIN ATOM
M  V30 1 C 2.738355 2.164709 3.344433 0
M  V30 2 C 2.797021 0.968463 4.234543 0
M  V30 3 C 1.463523 0.211449 4.233786 0
M  V30 4 N 3.836900 0.036309 3.929675 0
M  V30 5 C 4.529000 -0.661726 4.863065 0
M  V30 6 N 5.444908 -1.461052 4.276786 0
M  V30 7 N 5.331892 -1.267953 2.966273 0
M  V30 8 C 4.348471 -0.353406 2.771641 0
M  V30 9 C 3.940300 0.109760 1.467604 0
M  V30 10 C 4.793326 1.015787 0.836251 0
M  V30 11 C 4.524112 1.534531 -0.405824 0
M  V30 12 C 3.380472 1.176097 -1.093091 0
M  V30 13 N 2.766154 1.428475 -2.259222 0
M  V30 14 N 1.644013 0.754972 -2.357178 0
M  V30 15 C 1.452762 0.004192 -1.234671 0
M  V30 16 C 0.269177 -0.837563 -1.102746 0
M  V30 17 C -0.125958 -1.618130 -2.166970 0
M  V30 18 C -1.234091 -2.434416 -2.106175 0
M  V30 19 N -1.672254 -3.254470 -3.182745 0
M  V30 20 C -2.842635 -4.113547 -3.178728 0
M  V30 21 C -3.794337 -3.500615 -4.217173 0
M  V30 22 O -3.128278 -3.689389 -5.440223 0
M  V30 23 C -1.991503 -2.922522 -5.526713 0
M  V30 24 C -1.002502 -3.353643 -4.462367 0
M  V30 25 C -1.910026 -2.417387 -0.926840 0
M  V30 26 C -1.536541 -1.645639 0.154349 0
M  V30 27 N -2.235206 -1.617772 1.396205 0
M  V30 28 C -2.451247 -2.501105 2.389830 0
M  V30 29 N -3.200443 -1.924320 3.347727 0
M  V30 30 C -3.484077 -0.657703 2.993931 0
M  V30 31 C -4.289593 0.361308 3.751188 0
M  V30 32 C -4.050499 1.804401 3.484698 0
M  V30 33 C -5.275465 1.139098 2.866650 0
M  V30 34 C -2.871103 -0.466469 1.756968 0
M  V30 35 C -0.426017 -0.830050 0.088032 0
M  V30 36 C 2.553027 0.279422 -0.448755 0
M  V30 37 C 2.794390 -0.257246 0.793044 0
M  V30 38 H 2.097175 2.018041 2.450238 0
M  V30 39 H 2.265712 2.998346 3.902500 0
M  V30 40 H 3.765114 2.505753 3.112261 0
M  V30 41 H 2.897466 1.342086 5.295564 0
M  V30 42 H 0.796171 0.551434 5.049659 0
M  V30 43 H 1.658786 -0.895436 4.289907 0
M  V30 44 H 0.949096 0.451128 3.273487 0
M  V30 45 H 4.437369 -0.651557 5.943521 0
M  V30 46 H 5.729881 1.385299 1.262975 0
M  V30 47 H 5.175824 2.242340 -0.916126 0
M  V30 48 H 3.198814 2.095136 -2.950460 0
M  V30 49 H 0.468089 -1.567316 -3.059271 0
M  V30 50 H -2.595498 -5.126545 -3.565122 0
M  V30 51 H -3.395759 -4.126680 -2.243764 0
M  V30 52 H -3.859340 -2.405277 -4.010659 0
M  V30 53 H -4.766468 -3.988543 -4.248556 0
M  V30 54 H -1.508377 -3.201439 -6.502495 0
M  V30 55 H -2.149680 -1.842808 -5.554255 0
M  V30 56 H -0.821020 -4.455852 -4.639602 0
M  V30 57 H -0.049838 -2.821082 -4.531826 0
M  V30 58 H -2.789833 -2.990032 -0.711107 0
M  V30 59 H -2.030349 -3.497251 2.311048 0
M  V30 60 H -4.684374 0.008704 4.704084 0
M  V30 61 H -3.203200 2.052154 2.786726 0
M  V30 62 H -4.249499 2.508779 4.311087 0
M  V30 63 H -6.257639 1.423901 3.288597 0
M  V30 64 H -5.231271 0.962077 1.770968 0
M  V30 65 H -2.949491 0.495965 1.240647 0
M  V30 66 H -0.112839 -0.216378 0.920297 0
M  V30 67 H 2.139711 -0.958011 1.287197 0
M  V30 END ATOM
M  V30 BEGIN BOND
M  V30 1 1 1 2
M  V30 2 1 2 3
M  V30 3 1 2 4
M  V30 4 1 4 5
M  V30 5 2 5 6
M  V30 6 1 6 7
M  V30 7 2 7 8
M  V30 8 1 8 9
M  V30 9 2 9 10
M  V30 10 1 10 11
M  V30 11 2 11 12
M  V30 12 1 12 13
M  V30 13 1 13 14
M  V30 14 2 14 15
M  V30 15 1 15 16
M  V30 16 2 16 17
M  V30 17 1 17 18
M  V30 18 1 18 19
M  V30 19 1 19 20
M  V30 20 1 20 21
M  V30 21 1 21 22
M  V30 22 1 22 23
M  V30 23 1 23 24
M  V30 24 2 18 25
M  V30 25 1 25 26
M  V30 26 1 26 27
M  V30 27 1 27 28
M  V30 28 2 28 29
M  V30 29 1 29 30
M  V30 30 1 30 31
M  V30 31 1 31 32
M  V30 32 1 32 33
M  V30 33 2 30 34
M  V30 34 2 26 35
M  V30 35 1 15 36
M  V30 36 2 36 37
M  V30 37 1 8 4
M  V30 38 1 37 9
M  V30 39 1 36 12
M  V30 40 1 35 16
M  V30 41 1 24 19
M  V30 42 1 34 27
M  V30 43 1 33 31
M  V30 44 1 1 38
M  V30 45 1 1 39
M  V30 46 1 1 40
M  V30 47 1 2 41
M  V30 48 1 3 42
M  V30 49 1 3 43
M  V30 50 1 3 44
M  V30 51 1 5 45
M  V30 52 1 10 46
M  V30 53 1 11 47
M  V30 54 1 13 48
M  V30 55 1 17 49
M  V30 56 1 20 50
M  V30 57 1 20 51
M  V30 58 1 21 52
M  V30 59 1 21 53
M  V30 60 1 23 54
M  V30 61 1 23 55
M  V30 62 1 24 56
M  V30 63 1 24 57
M  V30 64 1 25 58
M  V30 65 1 28 59
M  V30 66 1 31 60
M  V30 67 1 32 61
M  V30 68 1 32 62
M  V30 69 1 33 63
M  V30 70 1 33 64
M  V30 71 1 34 65
M  V30 72 1 35 66
M  V30 73 1 37 67
M  V30 END BOND
M  V30 END CTAB
M  END
>  <Dataset>  (754) 
ChEMBL_Kinases

>  <Ligand_Instance>  (754) 
nan

>  <PDB_ID>  (754) 
nan

>  <Standardized_SMILES>  (754) 
CC(C)n1cnnc1-c1ccc2[nH]nc(-c3cc(N4CCOCC4)cc(-n4cnc(C5CC5)c4)c3)c2c1

>  <Name>  (754) 
nan

>  <Pocket>  (754) 
nan

>  <ATP_Site>  (754) 
nan

>  <Peripheral>  (754) 
nan

>  <Num_H_Atoms_ProtBoundConf>  (754) 
nan

>  <Num_Resolved_Atoms>  (754) 
nan

>  <Num_Not_Resolved_Atoms>  (754) 
nan

$$$$
CHEMBL4865335
     RDKit          3D

  0  0  0  0  0  0  0  0  0  0999 V3000
M  V30 BEGIN CTAB
M  V30 COUNTS 30 32 0 0 0
M  V30 BEGIN ATOM
M  V30 1 C -2.143047 -1.994788 2.376999 0
M  V30 2 N -0.929156 -2.779058 2.249394 0
M  V30 3 C -0.347818 -3.455168 3.385429 0
M  V30 4 C -0.372592 -2.832556 0.924505 0
M  V30 5 N -0.271725 -3.833317 -0.000587 0
M  V30 6 C 0.306181 -3.531293 -1.181636 0
M  V30 7 C 0.806496 -2.288866 -1.537067 0
M  V30 8 C 0.683030 -1.299875 -0.569768 0
M  V30 9 C 1.168993 0.063191 -0.859313 0
M  V30 10 C 1.777224 0.561611 -1.971503 0
M  V30 11 N 1.999277 1.867780 -1.716848 0
M  V30 12 C 1.551978 2.192258 -0.497597 0
M  V30 13 C 1.494367 3.321528 0.291893 0
M  V30 14 C 0.951691 3.360454 1.561405 0
M  V30 15 C 0.444077 2.171472 2.038832 0
M  V30 16 N 0.507080 1.083752 1.260804 0
M  V30 17 N 1.034028 1.077426 0.045567 0
M  V30 18 N 0.106535 -1.632446 0.590801 0
M  V30 19 H -2.089806 -1.100980 1.693191 0
M  V30 20 H -2.191788 -1.516969 3.397502 0
M  V30 21 H -3.016331 -2.607439 2.165979 0
M  V30 22 H 0.768352 -3.377098 3.388410 0
M  V30 23 H -0.670710 -4.525109 3.328140 0
M  V30 24 H -0.757081 -2.986264 4.298098 0
M  V30 25 H 0.340665 -4.385200 -1.842402 0
M  V30 26 H 1.257590 -2.121101 -2.506518 0
M  V30 27 H 2.009267 -0.018509 -2.850731 0
M  V30 28 H 1.894704 4.249031 -0.090409 0
M  V30 29 H 0.908124 4.250628 2.178565 0
M  V30 30 H -0.016732 2.069763 3.031771 0
M  V30 END ATOM
M  V30 BEGIN BOND
M  V30 1 1 1 2
M  V30 2 1 2 3
M  V30 3 1 2 4
M  V30 4 2 4 5
M  V30 5 1 5 6
M  V30 6 2 6 7
M  V30 7 1 7 8
M  V30 8 1 8 9
M  V30 9 2 9 10
M  V30 10 1 10 11
M  V30 11 2 11 12
M  V30 12 1 12 13
M  V30 13 2 13 14
M  V30 14 1 14 15
M  V30 15 2 15 16
M  V30 16 1 16 17
M  V30 17 2 8 18
M  V30 18 1 18 4
M  V30 19 1 17 9
M  V30 20 1 17 12
M  V30 21 1 1 19
M  V30 22 1 1 20
M  V30 23 1 1 21
M  V30 24 1 3 22
M  V30 25 1 3 23
M  V30 26 1 3 24
M  V30 27 1 6 25
M  V30 28 1 7 26
M  V30 29 1 10 27
M  V30 30 1 13 28
M  V30 31 1 14 29
M  V30 32 1 15 30
M  V30 END BOND
M  V30 END CTAB
M  END
>  <Dataset>  (755) 
ChEMBL_Kinases

>  <Ligand_Instance>  (755) 
nan

>  <PDB_ID>  (755) 
nan

>  <Standardized_SMILES>  (755) 
CN(C)c1nccc(-c2cnc3cccnn23)n1

>  <Name>  (755) 
nan

>  <Pocket>  (755) 
nan

>  <ATP_Site>  (755) 
nan

>  <Peripheral>  (755) 
nan

>  <Num_H_Atoms_ProtBoundConf>  (755) 
nan

>  <Num_Resolved_Atoms>  (755) 
nan

>  <Num_Not_Resolved_Atoms>  (755) 
nan

$$$$
CHEMBL4865349
     RDKit          3D

  0  0  0  0  0  0  0  0  0  0999 V3000
M  V30 BEGIN CTAB
M  V30 COUNTS 66 69 0 0 0
M  V30 BEGIN ATOM
M  V30 1 C 3.159719 -1.647090 3.323662 0
M  V30 2 O 2.897137 -0.558959 2.497336 0
M  V30 3 C 1.914721 0.380002 2.687169 0
M  V30 4 O 1.351701 -0.019319 3.770070 0
M  V30 5 N 1.503444 1.561397 1.952872 0
M  V30 6 N 0.428895 2.184361 2.582293 0
M  V30 7 C -0.866766 1.965580 2.366157 0
M  V30 8 C -1.817397 1.269773 1.579297 0
M  V30 9 C -1.545113 0.400832 0.445808 0 CFG=1
M  V30 10 C -2.930757 -0.165903 0.047897 0
M  V30 11 C -3.401335 0.033213 -1.307860 0
M  V30 12 C -2.406940 -0.127314 -2.421831 0
M  V30 13 C -0.981880 -0.112353 -1.821724 0 CFG=2
M  V30 14 O -0.737924 -1.259234 -1.128122 0
M  V30 15 C 0.255245 -2.093461 -1.453557 0
M  V30 16 C 0.227111 -3.323177 -0.577110 0
M  V30 17 C -0.553764 -4.349703 -1.125541 0
M  V30 18 C -0.749330 -5.577306 -0.530227 0
M  V30 19 C -1.585958 -6.633697 -1.153782 0
M  V30 20 F -1.591343 -6.358370 -2.529989 0
M  V30 21 F -2.916732 -6.470929 -0.759825 0
M  V30 22 F -1.132062 -7.894055 -0.932927 0
M  V30 23 C -0.138600 -5.811406 0.681907 0
M  V30 24 C 0.631851 -4.803026 1.227073 0
M  V30 25 C 1.295682 -5.031659 2.535025 0
M  V30 26 F 0.679996 -6.125437 3.157561 0
M  V30 27 F 2.640175 -5.207227 2.429034 0
M  V30 28 F 0.958774 -3.946106 3.347641 0
M  V30 29 C 0.829629 -3.575870 0.635408 0
M  V30 30 C -1.110327 1.045648 -0.851923 0 CFG=2
M  V30 31 C -0.017855 1.971915 -0.888337 0
M  V30 32 C -0.116567 3.272955 -0.437034 0
M  V30 33 C 0.889891 4.220970 -0.491736 0
M  V30 34 C 2.095366 3.843253 -1.041300 0
M  V30 35 C 2.278570 2.558005 -1.517676 0
M  V30 36 C 1.217997 1.649808 -1.431157 0
M  V30 37 N -1.414104 2.813848 3.299831 0
M  V30 38 N -0.506307 3.444479 3.968841 0
M  V30 39 C 0.710989 3.076288 3.545718 0
M  V30 40 O 1.799848 3.506939 3.992692 0
M  V30 41 H 4.238324 -1.558956 3.651968 0
M  V30 42 H 2.489118 -1.784080 4.173061 0
M  V30 43 H 3.171125 -2.563239 2.676668 0
M  V30 44 H 2.196415 1.537796 1.171965 0
M  V30 45 H -2.609065 2.020869 1.194543 0
M  V30 46 H -2.497748 0.654865 2.277958 0
M  V30 47 H -0.921349 -0.452511 0.714220 0
M  V30 48 H -3.658405 0.240809 0.777533 0
M  V30 49 H -2.881646 -1.259861 0.312037 0
M  V30 50 H -3.943719 0.989893 -1.437811 0
M  V30 51 H -4.194117 -0.744037 -1.526061 0
M  V30 52 H -2.423285 0.768258 -3.062264 0
M  V30 53 H -2.572202 -0.991710 -3.081337 0
M  V30 54 H -0.310549 0.090571 -2.675180 0
M  V30 55 H 1.239005 -1.596951 -1.191654 0
M  V30 56 H 0.374623 -2.445291 -2.468494 0
M  V30 57 H -1.076033 -4.253457 -2.083834 0
M  V30 58 H -0.255144 -6.754630 1.197744 0
M  V30 59 H 1.401490 -2.750875 0.985038 0
M  V30 60 H -2.030792 1.704705 -1.095948 0
M  V30 61 H -1.063304 3.616132 0.006776 0
M  V30 62 H 0.735474 5.215319 -0.119534 0
M  V30 63 H 2.937317 4.534519 -1.119406 0
M  V30 64 H 3.232130 2.277622 -1.945405 0
M  V30 65 H 1.444233 0.672485 -1.827917 0
M  V30 66 H -0.710793 4.149788 4.740936 0
M  V30 END ATOM
M  V30 BEGIN BOND
M  V30 1 1 1 2
M  V30 2 1 2 3
M  V30 3 2 3 4
M  V30 4 1 3 5
M  V30 5 1 5 6
M  V30 6 1 6 7
M  V30 7 1 7 8
M  V30 8 1 8 9
M  V30 9 1 9 10
M  V30 10 1 10 11
M  V30 11 1 11 12
M  V30 12 1 12 13
M  V30 13 1 13 14
M  V30 14 1 14 15
M  V30 15 1 15 16
M  V30 16 2 16 17
M  V30 17 1 17 18
M  V30 18 1 18 19
M  V30 19 1 19 20
M  V30 20 1 19 21
M  V30 21 1 19 22
M  V30 22 2 18 23
M  V30 23 1 23 24
M  V30 24 1 24 25
M  V30 25 1 25 26
M  V30 26 1 25 27
M  V30 27 1 25 28
M  V30 28 2 24 29
M  V30 29 1 13 30
M  V30 30 1 30 31
M  V30 31 2 31 32
M  V30 32 1 32 33
M  V30 33 2 33 34
M  V30 34 1 34 35
M  V30 35 2 35 36
M  V30 36 2 7 37
M  V30 37 1 37 38
M  V30 38 1 38 39
M  V30 39 2 39 40
M  V30 40 1 39 6
M  V30 41 1 30 9
M  V30 42 1 36 31
M  V30 43 1 29 16
M  V30 44 1 1 41
M  V30 45 1 1 42
M  V30 46 1 1 43
M  V30 47 1 5 44
M  V30 48 1 8 45
M  V30 49 1 8 46
M  V30 50 1 9 47 CFG=1
M  V30 51 1 10 48
M  V30 52 1 10 49
M  V30 53 1 11 50
M  V30 54 1 11 51
M  V30 55 1 12 52
M  V30 56 1 12 53
M  V30 57 1 13 54 CFG=3
M  V30 58 1 15 55
M  V30 59 1 15 56
M  V30 60 1 17 57
M  V30 61 1 23 58
M  V30 62 1 29 59
M  V30 63 1 30 60 CFG=3
M  V30 64 1 32 61
M  V30 65 1 33 62
M  V30 66 1 34 63
M  V30 67 1 35 64
M  V30 68 1 36 65
M  V30 69 1 38 66
M  V30 END BOND
M  V30 END CTAB
M  END
>  <Dataset>  (756) 
ChEMBL_Kinases

>  <Ligand_Instance>  (756) 
nan

>  <PDB_ID>  (756) 
nan

>  <Standardized_SMILES>  (756) 
COC(=O)Nn1c(C[C@H]2CCC[C@H](OCc3cc(C(F)(F)F)cc(C(F)(F)F)c3)[C@@H]2c2ccccc2)n[nH]c1=O

>  <Name>  (756) 
nan

>  <Pocket>  (756) 
nan

>  <ATP_Site>  (756) 
nan

>  <Peripheral>  (756) 
nan

>  <Num_H_Atoms_ProtBoundConf>  (756) 
nan

>  <Num_Resolved_Atoms>  (756) 
nan

>  <Num_Not_Resolved_Atoms>  (756) 
nan

$$$$
CHEMBL4865373
     RDKit          3D

  0  0  0  0  0  0  0  0  0  0999 V3000
M  V30 BEGIN CTAB
M  V30 COUNTS 45 47 0 0 0
M  V30 BEGIN ATOM
M  V30 1 C -0.209249 -4.267731 -1.022496 0
M  V30 2 N 1.187681 -4.388817 -0.636476 0
M  V30 3 C 2.092557 -4.004907 -1.664783 0
M  V30 4 C 2.484551 -2.681551 -1.715982 0
M  V30 5 C 3.352779 -2.137388 -2.642542 0
M  V30 6 O 3.671527 -0.784958 -2.590077 0
M  V30 7 C 3.117828 0.048894 -1.596946 0
M  V30 8 C 3.761932 0.218842 -0.386542 0
M  V30 9 F 4.923063 -0.391333 -0.106692 0
M  V30 10 C 3.194719 1.042702 0.567965 0
M  V30 11 C 1.998418 1.661821 0.259844 0
M  V30 12 N 1.274299 2.549960 1.138847 0
M  V30 13 C 0.338630 1.870321 1.971185 0
M  V30 14 O 0.279532 0.628571 1.824652 0
M  V30 15 N -0.522029 2.436880 2.934702 0
M  V30 16 C -1.413259 1.654877 3.705065 0
M  V30 17 C -1.203258 1.058639 4.911814 0
M  V30 18 C -2.205758 0.334432 5.501948 0
M  V30 19 C -3.442689 0.181621 4.912531 0
M  V30 20 C -3.665472 0.782314 3.688964 0
M  V30 21 C -5.012284 0.594194 3.085935 0
M  V30 22 F -5.483058 -0.669275 3.418426 0
M  V30 23 F -4.961671 0.606776 1.691591 0
M  V30 24 F -5.899513 1.579360 3.507489 0
M  V30 25 C -2.656274 1.527166 3.066762 0
M  V30 26 C 1.358599 1.487546 -0.953844 0
M  V30 27 C 1.905709 0.669526 -1.923006 0
M  V30 28 F 1.312109 0.472039 -3.123280 0
M  V30 29 N 3.832366 -3.019808 -3.557324 0
M  V30 30 C 3.471206 -4.315391 -3.536152 0
M  V30 31 N 2.626442 -4.812625 -2.623679 0
M  V30 32 H -0.517976 -4.955906 -1.810658 0
M  V30 33 H -0.851829 -4.377995 -0.103371 0
M  V30 34 H -0.424583 -3.226608 -1.399794 0
M  V30 35 H 1.642624 -4.709841 0.267547 0
M  V30 36 H 2.085158 -1.984869 -0.967174 0
M  V30 37 H 3.611979 1.244772 1.542943 0
M  V30 38 H 1.312201 3.601002 1.275131 0
M  V30 39 H -0.450868 3.494515 3.038362 0
M  V30 40 H -0.217909 1.229121 5.294577 0
M  V30 41 H -1.965370 -0.113673 6.466417 0
M  V30 42 H -4.227900 -0.399827 5.399930 0
M  V30 43 H -2.954425 1.950352 2.106431 0
M  V30 44 H 0.423118 1.952918 -1.233740 0
M  V30 45 H 3.855178 -5.009662 -4.264355 0
M  V30 END ATOM
M  V30 BEGIN BOND
M  V30 1 1 1 2
M  V30 2 1 2 3
M  V30 3 2 3 4
M  V30 4 1 4 5
M  V30 5 1 5 6
M  V30 6 1 6 7
M  V30 7 2 7 8
M  V30 8 1 8 9
M  V30 9 1 8 10
M  V30 10 2 10 11
M  V30 11 1 11 12
M  V30 12 1 12 13
M  V30 13 2 13 14
M  V30 14 1 13 15
M  V30 15 1 15 16
M  V30 16 2 16 17
M  V30 17 1 17 18
M  V30 18 2 18 19
M  V30 19 1 19 20
M  V30 20 1 20 21
M  V30 21 1 21 22
M  V30 22 1 21 23
M  V30 23 1 21 24
M  V30 24 2 20 25
M  V30 25 1 11 26
M  V30 26 2 26 27
M  V30 27 1 27 28
M  V30 28 2 5 29
M  V30 29 1 29 30
M  V30 30 2 30 31
M  V30 31 1 31 3
M  V30 32 1 27 7
M  V30 33 1 25 16
M  V30 34 1 1 32
M  V30 35 1 1 33
M  V30 36 1 1 34
M  V30 37 1 2 35
M  V30 38 1 4 36
M  V30 39 1 10 37
M  V30 40 1 12 38
M  V30 41 1 15 39
M  V30 42 1 17 40
M  V30 43 1 18 41
M  V30 44 1 19 42
M  V30 45 1 25 43
M  V30 46 1 26 44
M  V30 47 1 30 45
M  V30 END BOND
M  V30 END CTAB
M  END
>  <Dataset>  (757) 
ChEMBL_Kinases

>  <Ligand_Instance>  (757) 
nan

>  <PDB_ID>  (757) 
nan

>  <Standardized_SMILES>  (757) 
CNc1cc(Oc2c(F)cc(NC(=O)Nc3cccc(C(F)(F)F)c3)cc2F)ncn1

>  <Name>  (757) 
nan

>  <Pocket>  (757) 
nan

>  <ATP_Site>  (757) 
nan

>  <Peripheral>  (757) 
nan

>  <Num_H_Atoms_ProtBoundConf>  (757) 
nan

>  <Num_Resolved_Atoms>  (757) 
nan

>  <Num_Not_Resolved_Atoms>  (757) 
nan

$$$$
CHEMBL4865377
     RDKit          3D

  0  0  0  0  0  0  0  0  0  0999 V3000
M  V30 BEGIN CTAB
M  V30 COUNTS 42 44 0 0 0
M  V30 BEGIN ATOM
M  V30 1 N 1.671069 -5.097788 2.713231 0
M  V30 2 C 1.867063 -4.039292 2.293331 0
M  V30 3 C 2.107244 -2.727341 1.795045 0
M  V30 4 C 3.397567 -2.295911 1.913417 0
M  V30 5 N 3.719833 -1.094021 1.442204 0
M  V30 6 C 2.812679 -0.287755 0.851175 0
M  V30 7 N 3.095007 0.988476 0.302481 0
M  V30 8 C 2.816644 2.247756 -0.259624 0
M  V30 9 C 1.687954 2.256730 -1.229429 0
M  V30 10 C 2.005305 1.969974 -2.532689 0
M  V30 11 N 1.015705 1.883907 -3.451895 0
M  V30 12 C -0.261498 2.081327 -3.068406 0
M  V30 13 C -0.570345 2.372443 -1.743856 0
M  V30 14 C 0.414443 2.474151 -0.756568 0
M  V30 15 C 0.016223 2.870991 0.610125 0
M  V30 16 F 0.603038 4.121493 0.822043 0
M  V30 17 F -1.343164 2.996154 0.683307 0
M  V30 18 F 0.477955 2.057222 1.591180 0
M  V30 19 C 1.548243 -0.795388 0.773730 0
M  V30 20 C 1.096347 -2.009488 1.220536 0
M  V30 21 N -0.248051 -2.413874 1.119972 0
M  V30 22 C -0.970964 -3.540303 1.590375 0 CFG=1
M  V30 23 C -1.120413 -3.507827 3.105600 0
M  V30 24 C -2.428933 -2.756179 2.865331 0 CFG=2
M  V30 25 O -3.430984 -3.126514 3.747886 0
M  V30 26 C -2.461040 -3.439665 1.505902 0
M  V30 27 H 4.222440 -2.815731 2.352975 0
M  V30 28 H 4.167417 1.051810 0.340196 0
M  V30 29 H 3.688868 2.700774 -0.786622 0
M  V30 30 H 2.565785 3.019248 0.532344 0
M  V30 31 H 3.022225 1.812359 -2.842444 0
M  V30 32 H -1.076062 2.016228 -3.792555 0
M  V30 33 H -1.623150 2.523399 -1.487823 0
M  V30 34 H 0.789704 -0.174319 0.282675 0
M  V30 35 H -0.856273 -1.768933 0.587843 0
M  V30 36 H -0.571924 -4.507100 1.190407 0
M  V30 37 H -1.259369 -4.519689 3.508881 0
M  V30 38 H -0.367675 -2.886172 3.616324 0
M  V30 39 H -2.266228 -1.665016 2.804708 0
M  V30 40 H -4.222943 -2.559325 3.561143 0
M  V30 41 H -2.979415 -4.417510 1.541760 0
M  V30 42 H -2.885436 -2.791848 0.717500 0
M  V30 END ATOM
M  V30 BEGIN BOND
M  V30 1 3 1 2
M  V30 2 1 2 3
M  V30 3 2 3 4
M  V30 4 1 4 5
M  V30 5 2 5 6
M  V30 6 1 6 7
M  V30 7 1 7 8
M  V30 8 1 8 9
M  V30 9 2 9 10
M  V30 10 1 10 11
M  V30 11 2 11 12
M  V30 12 1 12 13
M  V30 13 2 13 14
M  V30 14 1 14 15
M  V30 15 1 15 16
M  V30 16 1 15 17
M  V30 17 1 15 18
M  V30 18 1 6 19
M  V30 19 2 19 20
M  V30 20 1 20 21
M  V30 21 1 21 22
M  V30 22 1 22 23
M  V30 23 1 23 24
M  V30 24 1 24 25
M  V30 25 1 24 26
M  V30 26 1 20 3
M  V30 27 1 26 22
M  V30 28 1 14 9
M  V30 29 1 4 27
M  V30 30 1 7 28
M  V30 31 1 8 29
M  V30 32 1 8 30
M  V30 33 1 10 31
M  V30 34 1 12 32
M  V30 35 1 13 33
M  V30 36 1 19 34
M  V30 37 1 21 35
M  V30 38 1 22 36 CFG=1
M  V30 39 1 23 37
M  V30 40 1 23 38
M  V30 41 1 24 39 CFG=3
M  V30 42 1 25 40
M  V30 43 1 26 41
M  V30 44 1 26 42
M  V30 END BOND
M  V30 END CTAB
M  END
>  <Dataset>  (758) 
ChEMBL_Kinases

>  <Ligand_Instance>  (758) 
nan

>  <PDB_ID>  (758) 
nan

>  <Standardized_SMILES>  (758) 
N#Cc1cnc(NCc2cnccc2C(F)(F)F)cc1N[C@H]1C[C@H](O)C1

>  <Name>  (758) 
nan

>  <Pocket>  (758) 
nan

>  <ATP_Site>  (758) 
nan

>  <Peripheral>  (758) 
nan

>  <Num_H_Atoms_ProtBoundConf>  (758) 
nan

>  <Num_Resolved_Atoms>  (758) 
nan

>  <Num_Not_Resolved_Atoms>  (758) 
nan

$$$$
CHEMBL4865383
     RDKit          3D

  0  0  0  0  0  0  0  0  0  0999 V3000
M  V30 BEGIN CTAB
M  V30 COUNTS 37 40 0 0 0
M  V30 BEGIN ATOM
M  V30 1 O 0.293769 -4.584545 3.744852 0
M  V30 2 C 0.835035 -3.913593 2.680577 0
M  V30 3 C 1.633064 -2.813568 2.873678 0
M  V30 4 C 2.185059 -2.128338 1.803887 0
M  V30 5 C 1.932609 -2.553605 0.513575 0
M  V30 6 N 2.460676 -1.907331 -0.657182 0
M  V30 7 C 3.488183 -2.283246 -1.467831 0
M  V30 8 N 3.604632 -1.351359 -2.435136 0
M  V30 9 C 2.674231 -0.404193 -2.246192 0
M  V30 10 C 2.318167 0.757363 -2.891738 0
M  V30 11 N 1.313046 1.531381 -2.463740 0
M  V30 12 C 0.604094 1.201311 -1.374890 0
M  V30 13 N -0.455902 2.044137 -0.947348 0
M  V30 14 C -1.338012 1.911667 0.157449 0
M  V30 15 C -2.316297 2.848827 0.409377 0
M  V30 16 C -3.183076 2.744748 1.471529 0
M  V30 17 F -4.113243 3.715671 1.639373 0
M  V30 18 C -3.107744 1.681027 2.342365 0
M  V30 19 O -4.002690 1.617048 3.399994 0
M  V30 20 C -2.148864 0.709474 2.143002 0
M  V30 21 F -2.059811 -0.344600 2.989823 0
M  V30 22 C -1.312750 0.873920 1.060923 0
M  V30 23 N 0.964289 0.068240 -0.759556 0
M  V30 24 C 1.945289 -0.741047 -1.128909 0
M  V30 25 C 1.131065 -3.659481 0.303612 0
M  V30 26 C 0.583638 -4.337192 1.393959 0
M  V30 27 H 0.861708 -5.136132 4.367360 0
M  V30 28 H 1.835754 -2.472815 3.898641 0
M  V30 29 H 2.811845 -1.266017 1.929174 0
M  V30 30 H 4.067288 -3.180011 -1.309435 0
M  V30 31 H 2.852555 1.077631 -3.776687 0
M  V30 32 H -0.625701 2.913078 -1.538130 0
M  V30 33 H -2.415346 3.712336 -0.255204 0
M  V30 34 H -3.988243 0.870643 4.081988 0
M  V30 35 H -0.586989 0.082425 0.960429 0
M  V30 36 H 0.901561 -4.033854 -0.674723 0
M  V30 37 H -0.045242 -5.206426 1.204109 0
M  V30 END ATOM
M  V30 BEGIN BOND
M  V30 1 1 1 2
M  V30 2 2 2 3
M  V30 3 1 3 4
M  V30 4 2 4 5
M  V30 5 1 5 6
M  V30 6 1 6 7
M  V30 7 2 7 8
M  V30 8 1 8 9
M  V30 9 2 9 10
M  V30 10 1 10 11
M  V30 11 2 11 12
M  V30 12 1 12 13
M  V30 13 1 13 14
M  V30 14 2 14 15
M  V30 15 1 15 16
M  V30 16 1 16 17
M  V30 17 2 16 18
M  V30 18 1 18 19
M  V30 19 1 18 20
M  V30 20 1 20 21
M  V30 21 2 20 22
M  V30 22 1 12 23
M  V30 23 2 23 24
M  V30 24 1 5 25
M  V30 25 2 25 26
M  V30 26 1 26 2
M  V30 27 1 24 6
M  V30 28 1 24 9
M  V30 29 1 22 14
M  V30 30 1 1 27
M  V30 31 1 3 28
M  V30 32 1 4 29
M  V30 33 1 7 30
M  V30 34 1 10 31
M  V30 35 1 13 32
M  V30 36 1 15 33
M  V30 37 1 19 34
M  V30 38 1 22 35
M  V30 39 1 25 36
M  V30 40 1 26 37
M  V30 END BOND
M  V30 END CTAB
M  END
>  <Dataset>  (759) 
ChEMBL_Kinases

>  <Ligand_Instance>  (759) 
nan

>  <PDB_ID>  (759) 
nan

>  <Standardized_SMILES>  (759) 
Oc1ccc(-n2cnc3cnc(Nc4cc(F)c(O)c(F)c4)nc32)cc1

>  <Name>  (759) 
nan

>  <Pocket>  (759) 
nan

>  <ATP_Site>  (759) 
nan

>  <Peripheral>  (759) 
nan

>  <Num_H_Atoms_ProtBoundConf>  (759) 
nan

>  <Num_Resolved_Atoms>  (759) 
nan

>  <Num_Not_Resolved_Atoms>  (759) 
nan

$$$$
CHEMBL96773
     RDKit          3D

  0  0  0  0  0  0  0  0  0  0999 V3000
M  V30 BEGIN CTAB
M  V30 COUNTS 61 61 0 0 0
M  V30 BEGIN ATOM
M  V30 1 C 4.441571 -4.379827 0.114263 0
M  V30 2 C 3.112141 -3.944425 0.645372 0
M  V30 3 C 3.203255 -2.846508 1.673902 0
M  V30 4 C 3.863509 -1.654471 1.030551 0
M  V30 5 C 4.006376 -0.492980 1.972888 0
M  V30 6 C 2.705385 0.011319 2.507453 0
M  V30 7 C 1.777405 0.487487 1.399756 0
M  V30 8 C 2.371053 1.595394 0.608137 0
M  V30 9 C 1.487839 2.089174 -0.491317 0
M  V30 10 C 1.207653 1.028279 -1.486323 0
M  V30 11 C 0.401700 1.437777 -2.654027 0
M  V30 12 C -0.952348 1.963930 -2.508868 0
M  V30 13 C -1.991146 1.067693 -1.914075 0
M  V30 14 C -1.790995 0.609979 -0.547042 0
M  V30 15 O -1.354365 0.391628 0.599844 0
M  V30 16 O -2.853472 -0.197763 -0.182649 0
M  V30 17 C -2.936482 -0.779722 1.070896 0
M  V30 18 C -4.172537 -1.622886 1.266888 0
M  V30 19 C -4.275685 -2.757408 0.304646 0
M  V30 20 O -4.313775 -2.302996 -1.015636 0
M  V30 21 C -4.127310 -2.173185 2.677045 0
M  V30 22 O -5.468248 -2.576290 2.874607 0
M  V30 23 C -6.324491 -1.860658 2.016952 0
M  V30 24 O -7.543765 -2.216805 2.067307 0
M  V30 25 C -5.453931 -0.864199 1.294723 0
M  V30 26 H 4.251869 -5.360864 -0.411901 0
M  V30 27 H 4.896673 -3.729029 -0.631507 0
M  V30 28 H 5.131022 -4.661784 0.948509 0
M  V30 29 H 2.642816 -4.847899 1.124920 0
M  V30 30 H 2.453300 -3.679335 -0.201372 0
M  V30 31 H 2.175171 -2.549714 1.941937 0
M  V30 32 H 3.795543 -3.193559 2.522893 0
M  V30 33 H 4.895728 -1.969604 0.756117 0
M  V30 34 H 3.363862 -1.396039 0.079698 0
M  V30 35 H 4.602882 0.288742 1.484454 0
M  V30 36 H 4.600493 -0.850999 2.837164 0
M  V30 37 H 2.911299 0.880753 3.150207 0
M  V30 38 H 2.187985 -0.773648 3.058374 0
M  V30 39 H 1.410305 -0.318324 0.786082 0
M  V30 40 H 0.908295 0.941362 1.962819 0
M  V30 41 H 3.371873 1.268979 0.183134 0
M  V30 42 H 2.683472 2.452768 1.283106 0
M  V30 43 H 0.569142 2.517677 -0.023960 0
M  V30 44 H 2.009099 2.962346 -0.994168 0
M  V30 45 H 0.801872 0.133685 -0.981546 0
M  V30 46 H 2.231464 0.671089 -1.841034 0
M  V30 47 H 1.060702 2.113254 -3.291843 0
M  V30 48 H 0.331098 0.516936 -3.323851 0
M  V30 49 H -1.002369 2.993383 -2.060328 0
M  V30 50 H -1.332273 2.168549 -3.566466 0
M  V30 51 H -2.966053 1.632743 -2.017040 0
M  V30 52 H -2.153414 0.180950 -2.585879 0
M  V30 53 H -2.923490 -0.063762 1.908701 0
M  V30 54 H -2.085966 -1.477261 1.211407 0
M  V30 55 H -3.504735 -3.541095 0.459530 0
M  V30 56 H -5.248477 -3.258432 0.491442 0
M  V30 57 H -3.542760 -2.746411 -1.481886 0
M  V30 58 H -3.837593 -1.357303 3.379528 0
M  V30 59 H -3.395307 -2.983349 2.700948 0
M  V30 60 H -5.892312 -0.661340 0.298690 0
M  V30 61 H -5.448372 0.023381 1.953258 0
M  V30 END ATOM
M  V30 BEGIN BOND
M  V30 1 1 1 2
M  V30 2 1 2 3
M  V30 3 1 3 4
M  V30 4 1 4 5
M  V30 5 1 5 6
M  V30 6 1 6 7
M  V30 7 1 7 8
M  V30 8 1 8 9
M  V30 9 1 9 10
M  V30 10 1 10 11
M  V30 11 1 11 12
M  V30 12 1 12 13
M  V30 13 1 13 14
M  V30 14 2 14 15
M  V30 15 1 14 16
M  V30 16 1 16 17
M  V30 17 1 17 18
M  V30 18 1 18 19
M  V30 19 1 19 20
M  V30 20 1 18 21
M  V30 21 1 21 22
M  V30 22 1 22 23
M  V30 23 2 23 24
M  V30 24 1 23 25
M  V30 25 1 25 18
M  V30 26 1 1 26
M  V30 27 1 1 27
M  V30 28 1 1 28
M  V30 29 1 2 29
M  V30 30 1 2 30
M  V30 31 1 3 31
M  V30 32 1 3 32
M  V30 33 1 4 33
M  V30 34 1 4 34
M  V30 35 1 5 35
M  V30 36 1 5 36
M  V30 37 1 6 37
M  V30 38 1 6 38
M  V30 39 1 7 39
M  V30 40 1 7 40
M  V30 41 1 8 41
M  V30 42 1 8 42
M  V30 43 1 9 43
M  V30 44 1 9 44
M  V30 45 1 10 45
M  V30 46 1 10 46
M  V30 47 1 11 47
M  V30 48 1 11 48
M  V30 49 1 12 49
M  V30 50 1 12 50
M  V30 51 1 13 51
M  V30 52 1 13 52
M  V30 53 1 17 53
M  V30 54 1 17 54
M  V30 55 1 19 55
M  V30 56 1 19 56
M  V30 57 1 20 57
M  V30 58 1 21 58
M  V30 59 1 21 59
M  V30 60 1 25 60
M  V30 61 1 25 61
M  V30 END BOND
M  V30 END CTAB
M  END
>  <Dataset>  (760) 
ChEMBL_Kinases

>  <Ligand_Instance>  (760) 
nan

>  <PDB_ID>  (760) 
nan

>  <Standardized_SMILES>  (760) 
CCCCCCCCCCCCCC(=O)OCC1(CO)COC(=O)C1

>  <Name>  (760) 
nan

>  <Pocket>  (760) 
nan

>  <ATP_Site>  (760) 
nan

>  <Peripheral>  (760) 
nan

>  <Num_H_Atoms_ProtBoundConf>  (760) 
nan

>  <Num_Resolved_Atoms>  (760) 
nan

>  <Num_Not_Resolved_Atoms>  (760) 
nan

$$$$
CHEMBL96225
     RDKit          3D

  0  0  0  0  0  0  0  0  0  0999 V3000
M  V30 BEGIN CTAB
M  V30 COUNTS 55 59 0 0 0
M  V30 BEGIN ATOM
M  V30 1 O 1.505674 -3.631905 -0.274489 0
M  V30 2 C 1.074613 -2.510744 -0.646540 0
M  V30 3 C 0.910103 -1.285112 0.119502 0
M  V30 4 C 1.541719 -0.065101 0.063729 0
M  V30 5 C 1.185868 0.957841 0.914532 0
M  V30 6 C 1.911867 2.204532 0.785334 0
M  V30 7 C 3.009168 2.267932 1.608189 0
M  V30 8 C 3.812191 3.386351 1.617593 0
M  V30 9 C 3.548219 4.469914 0.812762 0
M  V30 10 F 4.322679 5.605365 0.790616 0
M  V30 11 C 2.432517 4.451670 -0.047366 0
M  V30 12 C 1.676994 3.307204 -0.006369 0
M  V30 13 Cl 0.244912 3.134373 -1.032347 0
M  V30 14 C 0.175644 0.806039 1.865389 0
M  V30 15 C -0.476943 -0.429212 1.936090 0
M  V30 16 C -0.107690 -1.446319 1.075580 0
M  V30 17 N -1.528089 -0.574357 2.908584 0
M  V30 18 C -2.149810 -1.870255 2.904737 0
M  V30 19 C -1.596135 -2.704477 3.878034 0
M  V30 20 Cl -0.342102 -2.292816 5.016538 0
M  V30 21 C -2.069572 -4.010125 3.984676 0
M  V30 22 C -3.067966 -4.466616 3.143717 0
M  V30 23 C -3.602271 -3.611453 2.182287 0
M  V30 24 C -3.144637 -2.314565 2.062560 0
M  V30 25 Cl -3.722221 -1.143207 0.900227 0
M  V30 26 C -1.891894 0.508596 3.771252 0
M  V30 27 O -2.821424 0.186833 4.539493 0
M  V30 28 N -1.191461 1.734345 3.646588 0
M  V30 29 C -0.117223 1.973337 2.712225 0
M  V30 30 N 0.715741 -2.532265 -2.025092 0
M  V30 31 C 0.770808 -3.607772 -2.962021 0
M  V30 32 C -0.476617 -3.719084 -3.816598 0
M  V30 33 N -1.535059 -2.997774 -3.128236 0
M  V30 34 C -1.194232 -1.578401 -3.225505 0
M  V30 35 C 0.202141 -1.354067 -2.696837 0
M  V30 36 H 2.301891 -0.054094 -0.698855 0
M  V30 37 H 3.344312 1.485385 2.303332 0
M  V30 38 H 4.710161 3.524184 2.243307 0
M  V30 39 H 2.144763 5.247299 -0.713431 0
M  V30 40 H -0.667014 -2.380857 1.198430 0
M  V30 41 H -1.691423 -4.720072 4.718244 0
M  V30 42 H -3.462680 -5.455653 3.188136 0
M  V30 43 H -4.385708 -3.891629 1.483232 0
M  V30 44 H -1.513709 2.469660 4.298861 0
M  V30 45 H 0.832460 2.201811 3.275904 0
M  V30 46 H -0.359272 2.876676 2.092893 0
M  V30 47 H 0.771819 -4.565864 -2.356323 0
M  V30 48 H 1.686787 -3.577961 -3.586051 0
M  V30 49 H -0.331850 -3.239585 -4.807284 0
M  V30 50 H -0.827699 -4.766969 -3.914062 0
M  V30 51 H -2.463498 -3.142359 -3.555686 0
M  V30 52 H -1.261403 -1.199307 -4.253642 0
M  V30 53 H -1.946786 -1.039211 -2.616532 0
M  V30 54 H 0.885934 -1.084606 -3.549005 0
M  V30 55 H 0.172485 -0.476490 -2.023059 0
M  V30 END ATOM
M  V30 BEGIN BOND
M  V30 1 2 1 2
M  V30 2 1 2 3
M  V30 3 2 3 4
M  V30 4 1 4 5
M  V30 5 1 5 6
M  V30 6 2 6 7
M  V30 7 1 7 8
M  V30 8 2 8 9
M  V30 9 1 9 10
M  V30 10 1 9 11
M  V30 11 2 11 12
M  V30 12 1 12 13
M  V30 13 2 5 14
M  V30 14 1 14 15
M  V30 15 2 15 16
M  V30 16 1 15 17
M  V30 17 1 17 18
M  V30 18 2 18 19
M  V30 19 1 19 20
M  V30 20 1 19 21
M  V30 21 2 21 22
M  V30 22 1 22 23
M  V30 23 2 23 24
M  V30 24 1 24 25
M  V30 25 1 17 26
M  V30 26 2 26 27
M  V30 27 1 26 28
M  V30 28 1 28 29
M  V30 29 1 2 30
M  V30 30 1 30 31
M  V30 31 1 31 32
M  V30 32 1 32 33
M  V30 33 1 33 34
M  V30 34 1 34 35
M  V30 35 1 16 3
M  V30 36 1 24 18
M  V30 37 1 35 30
M  V30 38 1 12 6
M  V30 39 1 29 14
M  V30 40 1 4 36
M  V30 41 1 7 37
M  V30 42 1 8 38
M  V30 43 1 11 39
M  V30 44 1 16 40
M  V30 45 1 21 41
M  V30 46 1 22 42
M  V30 47 1 23 43
M  V30 48 1 28 44
M  V30 49 1 29 45
M  V30 50 1 29 46
M  V30 51 1 31 47
M  V30 52 1 31 48
M  V30 53 1 32 49
M  V30 54 1 32 50
M  V30 55 1 33 51
M  V30 56 1 34 52
M  V30 57 1 34 53
M  V30 58 1 35 54
M  V30 59 1 35 55
M  V30 END BOND
M  V30 END CTAB
M  END
>  <Dataset>  (761) 
ChEMBL_Kinases

>  <Ligand_Instance>  (761) 
nan

>  <PDB_ID>  (761) 
nan

>  <Standardized_SMILES>  (761) 
O=C(c1cc(-c2ccc(F)cc2Cl)c2c(c1)N(c1c(Cl)cccc1Cl)C(=O)NC2)N1CCNCC1

>  <Name>  (761) 
nan

>  <Pocket>  (761) 
nan

>  <ATP_Site>  (761) 
nan

>  <Peripheral>  (761) 
nan

>  <Num_H_Atoms_ProtBoundConf>  (761) 
nan

>  <Num_Resolved_Atoms>  (761) 
nan

>  <Num_Not_Resolved_Atoms>  (761) 
nan

$$$$
CHEMBL4865418
     RDKit          3D

  0  0  0  0  0  0  0  0  0  0999 V3000
M  V30 BEGIN CTAB
M  V30 COUNTS 68 73 0 0 0
M  V30 BEGIN ATOM
M  V30 1 C 1.907152 -2.076790 6.152615 0
M  V30 2 C 3.201942 -1.895468 5.876208 0
M  V30 3 C 3.637629 -0.781311 4.979134 0
M  V30 4 N 2.494125 -0.025185 4.523704 0
M  V30 5 C 1.940717 1.046622 5.113731 0
M  V30 6 O 2.295128 1.618098 6.180057 0
M  V30 7 C 0.871954 1.452219 4.342389 0
M  V30 8 C -0.082127 2.444902 4.377827 0
M  V30 9 N -0.996125 2.515396 3.400883 0
M  V30 10 C -1.071327 1.680390 2.355164 0
M  V30 11 N -2.078350 1.838830 1.371514 0
M  V30 12 C -2.295531 1.062290 0.228712 0
M  V30 13 C -1.578991 -0.017200 -0.181097 0
M  V30 14 C -1.830680 -0.758885 -1.323811 0
M  V30 15 C -2.884900 -0.395048 -2.126358 0
M  V30 16 C -3.646354 0.693647 -1.757970 0
M  V30 17 C -3.342959 1.374478 -0.625263 0
M  V30 18 C -4.797641 1.099338 -2.624833 0
M  V30 19 N -5.329698 -0.049175 -3.326458 0
M  V30 20 C -5.929474 -0.987141 -2.399092 0
M  V30 21 C -4.316567 -0.688873 -4.137753 0
M  V30 22 C -3.153539 -1.190925 -3.350871 0
M  V30 23 C -1.975662 -1.687491 -4.100525 0
M  V30 24 C -2.871648 -2.657754 -3.318251 0
M  V30 25 N -0.132423 0.731214 2.352111 0
M  V30 26 C 0.810036 0.585008 3.275068 0
M  V30 27 N 1.821727 -0.324047 3.402325 0
M  V30 28 C 2.039183 -1.371864 2.451006 0
M  V30 29 C 1.558478 -2.657555 2.608161 0
M  V30 30 C 1.846707 -3.571545 1.603711 0
M  V30 31 C 2.588445 -3.219304 0.479786 0
M  V30 32 C 3.051343 -1.919313 0.361910 0
M  V30 33 C 3.860388 -1.441635 -0.813511 0
M  V30 34 C 2.849370 -0.937829 -1.824670 0
M  V30 35 C 4.689473 -0.261749 -0.349060 0
M  V30 36 O 4.643075 -2.476956 -1.296137 0
M  V30 37 N 2.763671 -1.051567 1.340387 0
M  V30 38 H 1.367846 -1.305221 5.620996 0
M  V30 39 H 1.640519 -2.896139 6.806589 0
M  V30 40 H 4.064162 -2.461949 6.216842 0
M  V30 41 H 4.166049 -1.266486 4.112854 0
M  V30 42 H 4.399638 -0.137015 5.463953 0
M  V30 43 H -0.064588 3.145106 5.202041 0
M  V30 44 H -2.743706 2.652865 1.535922 0
M  V30 45 H -0.750819 -0.352172 0.392948 0
M  V30 46 H -1.223838 -1.609798 -1.598203 0
M  V30 47 H -3.995221 2.229102 -0.399177 0
M  V30 48 H -4.505531 1.865845 -3.380220 0
M  V30 49 H -5.597005 1.448656 -1.939534 0
M  V30 50 H -6.113026 -1.923727 -2.952442 0
M  V30 51 H -6.889116 -0.554689 -2.060400 0
M  V30 52 H -5.262415 -1.232921 -1.554977 0
M  V30 53 H -4.019568 -0.010567 -4.940253 0
M  V30 54 H -4.807650 -1.577895 -4.613719 0
M  V30 55 H -0.958306 -1.505769 -3.688841 0
M  V30 56 H -2.047545 -1.777610 -5.204579 0
M  V30 57 H -3.565394 -3.303604 -3.891507 0
M  V30 58 H -2.408188 -3.081094 -2.391364 0
M  V30 59 H 0.985534 -2.897456 3.493714 0
M  V30 60 H 1.485248 -4.589201 1.694381 0
M  V30 61 H 2.816364 -3.919776 -0.302459 0
M  V30 62 H 1.870115 -0.678426 -1.350329 0
M  V30 63 H 2.588765 -1.711941 -2.583287 0
M  V30 64 H 3.186040 0.006371 -2.326332 0
M  V30 65 H 4.109807 0.250057 0.444572 0
M  V30 66 H 4.736195 0.448945 -1.208923 0
M  V30 67 H 5.697123 -0.571351 -0.007243 0
M  V30 68 H 4.464741 -2.560827 -2.277002 0
M  V30 END ATOM
M  V30 BEGIN BOND
M  V30 1 2 1 2
M  V30 2 1 2 3
M  V30 3 1 3 4
M  V30 4 1 4 5
M  V30 5 2 5 6
M  V30 6 1 5 7
M  V30 7 2 7 8
M  V30 8 1 8 9
M  V30 9 2 9 10
M  V30 10 1 10 11
M  V30 11 1 11 12
M  V30 12 2 12 13
M  V30 13 1 13 14
M  V30 14 2 14 15
M  V30 15 1 15 16
M  V30 16 2 16 17
M  V30 17 1 16 18
M  V30 18 1 18 19
M  V30 19 1 19 20
M  V30 20 1 19 21
M  V30 21 1 21 22
M  V30 22 1 22 23
M  V30 23 1 23 24
M  V30 24 1 10 25
M  V30 25 2 25 26
M  V30 26 1 26 27
M  V30 27 1 27 28
M  V30 28 2 28 29
M  V30 29 1 29 30
M  V30 30 2 30 31
M  V30 31 1 31 32
M  V30 32 1 32 33
M  V30 33 1 33 34
M  V30 34 1 33 35
M  V30 35 1 33 36
M  V30 36 2 32 37
M  V30 37 1 27 4
M  V30 38 1 37 28
M  V30 39 1 26 7
M  V30 40 1 17 12
M  V30 41 1 24 22
M  V30 42 1 22 15
M  V30 43 1 1 38
M  V30 44 1 1 39
M  V30 45 1 2 40
M  V30 46 1 3 41
M  V30 47 1 3 42
M  V30 48 1 8 43
M  V30 49 1 11 44
M  V30 50 1 13 45
M  V30 51 1 14 46
M  V30 52 1 17 47
M  V30 53 1 18 48
M  V30 54 1 18 49
M  V30 55 1 20 50
M  V30 56 1 20 51
M  V30 57 1 20 52
M  V30 58 1 21 53
M  V30 59 1 21 54
M  V30 60 1 23 55
M  V30 61 1 23 56
M  V30 62 1 24 57
M  V30 63 1 24 58
M  V30 64 1 29 59
M  V30 65 1 30 60
M  V30 66 1 31 61
M  V30 67 1 34 62
M  V30 68 1 34 63
M  V30 69 1 34 64
M  V30 70 1 35 65
M  V30 71 1 35 66
M  V30 72 1 35 67
M  V30 73 1 36 68
M  V30 END BOND
M  V30 END CTAB
M  END
>  <Dataset>  (762) 
ChEMBL_Kinases

>  <Ligand_Instance>  (762) 
nan

>  <PDB_ID>  (762) 
nan

>  <Standardized_SMILES>  (762) 
C=CCn1c(=O)c2cnc(Nc3ccc4c(c3)CN(C)CC43CC3)nc2n1-c1cccc(C(C)(C)O)n1

>  <Name>  (762) 
nan

>  <Pocket>  (762) 
nan

>  <ATP_Site>  (762) 
nan

>  <Peripheral>  (762) 
nan

>  <Num_H_Atoms_ProtBoundConf>  (762) 
nan

>  <Num_Resolved_Atoms>  (762) 
nan

>  <Num_Not_Resolved_Atoms>  (762) 
nan

$$$$
CHEMBL96763
     RDKit          3D

  0  0  0  0  0  0  0  0  0  0999 V3000
M  V30 BEGIN CTAB
M  V30 COUNTS 54 58 0 0 0
M  V30 BEGIN ATOM
M  V30 1 O 1.631589 -5.104055 0.745967 0
M  V30 2 C 1.645865 -3.861198 0.675016 0
M  V30 3 N 2.917803 -3.262377 0.615204 0
M  V30 4 C 3.064192 -1.831449 0.530913 0
M  V30 5 C 1.771361 -1.112232 0.516193 0
M  V30 6 C 1.847961 0.264343 0.436368 0
M  V30 7 C 3.119293 0.975550 0.370187 0
M  V30 8 C 3.856928 1.438390 1.435180 0
M  V30 9 C 5.036618 2.087496 1.135577 0
M  V30 10 C 5.534764 2.310409 -0.116130 0
M  V30 11 C 4.771391 1.834091 -1.159582 0
M  V30 12 C 3.571237 1.169872 -0.939457 0
M  V30 13 Cl 2.710241 0.621434 -2.362608 0
M  V30 14 C 0.719851 1.061024 0.413913 0
M  V30 15 C -0.543427 0.463288 0.473483 0
M  V30 16 C -1.843993 1.181610 0.458950 0
M  V30 17 C -2.758558 0.764322 -0.647077 0
M  V30 18 C -4.194843 0.659968 -0.194052 0
M  V30 19 N -4.600319 1.752735 0.649209 0
M  V30 20 C -3.728961 1.961304 1.776246 0
M  V30 21 C -2.608440 0.941313 1.767442 0
M  V30 22 C -0.633651 -0.913438 0.553593 0
M  V30 23 C 0.512512 -1.675991 0.573741 0
M  V30 24 N 0.470344 -3.090501 0.655012 0
M  V30 25 C -0.772405 -3.780440 0.719408 0
M  V30 26 C -1.517518 -4.145996 1.813337 0
M  V30 27 Cl -0.811317 -3.682363 3.346388 0
M  V30 28 C -2.706159 -4.817248 1.626040 0
M  V30 29 C -3.162801 -5.129167 0.368692 0
M  V30 30 C -2.431694 -4.772268 -0.743839 0
M  V30 31 C -1.230388 -4.093971 -0.556893 0
M  V30 32 Cl -0.401410 -3.700512 -2.064457 0
M  V30 33 H 3.822063 -3.792294 0.626997 0
M  V30 34 H 3.595444 -1.509922 1.472188 0
M  V30 35 H 3.693071 -1.628547 -0.362268 0
M  V30 36 H 3.458840 1.258693 2.401223 0
M  V30 37 H 5.611457 2.449493 1.993867 0
M  V30 38 H 6.468875 2.827374 -0.287685 0
M  V30 39 H 5.138033 1.993882 -2.174987 0
M  V30 40 H 0.700123 2.140870 0.352903 0
M  V30 41 H -1.726372 2.290769 0.393419 0
M  V30 42 H -2.448572 -0.234944 -1.028357 0
M  V30 43 H -2.681570 1.476813 -1.498373 0
M  V30 44 H -4.822865 0.722401 -1.119718 0
M  V30 45 H -4.435973 -0.314417 0.250590 0
M  V30 46 H -5.537251 1.474545 1.048973 0
M  V30 47 H -4.251784 1.990711 2.752641 0
M  V30 48 H -3.248500 2.966140 1.648059 0
M  V30 49 H -1.921414 1.126694 2.615131 0
M  V30 50 H -3.010846 -0.082638 1.740708 0
M  V30 51 H -1.585657 -1.429976 0.602239 0
M  V30 52 H -3.236864 -5.071418 2.541207 0
M  V30 53 H -4.090416 -5.650626 0.274822 0
M  V30 54 H -2.834930 -5.041001 -1.706848 0
M  V30 END ATOM
M  V30 BEGIN BOND
M  V30 1 2 1 2
M  V30 2 1 2 3
M  V30 3 1 3 4
M  V30 4 1 4 5
M  V30 5 2 5 6
M  V30 6 1 6 7
M  V30 7 2 7 8
M  V30 8 1 8 9
M  V30 9 2 9 10
M  V30 10 1 10 11
M  V30 11 2 11 12
M  V30 12 1 12 13
M  V30 13 1 6 14
M  V30 14 2 14 15
M  V30 15 1 15 16
M  V30 16 1 16 17
M  V30 17 1 17 18
M  V30 18 1 18 19
M  V30 19 1 19 20
M  V30 20 1 20 21
M  V30 21 1 15 22
M  V30 22 2 22 23
M  V30 23 1 23 24
M  V30 24 1 24 25
M  V30 25 2 25 26
M  V30 26 1 26 27
M  V30 27 1 26 28
M  V30 28 2 28 29
M  V30 29 1 29 30
M  V30 30 2 30 31
M  V30 31 1 31 32
M  V30 32 1 24 2
M  V30 33 1 31 25
M  V30 34 1 23 5
M  V30 35 1 12 7
M  V30 36 1 21 16
M  V30 37 1 3 33
M  V30 38 1 4 34
M  V30 39 1 4 35
M  V30 40 1 8 36
M  V30 41 1 9 37
M  V30 42 1 10 38
M  V30 43 1 11 39
M  V30 44 1 14 40
M  V30 45 1 16 41
M  V30 46 1 17 42
M  V30 47 1 17 43
M  V30 48 1 18 44
M  V30 49 1 18 45
M  V30 50 1 19 46
M  V30 51 1 20 47
M  V30 52 1 20 48
M  V30 53 1 21 49
M  V30 54 1 21 50
M  V30 55 1 22 51
M  V30 56 1 28 52
M  V30 57 1 29 53
M  V30 58 1 30 54
M  V30 END BOND
M  V30 END CTAB
M  END
>  <Dataset>  (763) 
ChEMBL_Kinases

>  <Ligand_Instance>  (763) 
nan

>  <PDB_ID>  (763) 
nan

>  <Standardized_SMILES>  (763) 
O=C1NCc2c(-c3ccccc3Cl)cc(C3CCNCC3)cc2N1c1c(Cl)cccc1Cl

>  <Name>  (763) 
nan

>  <Pocket>  (763) 
nan

>  <ATP_Site>  (763) 
nan

>  <Peripheral>  (763) 
nan

>  <Num_H_Atoms_ProtBoundConf>  (763) 
nan

>  <Num_Resolved_Atoms>  (763) 
nan

>  <Num_Not_Resolved_Atoms>  (763) 
nan

$$$$
CHEMBL4865444
     RDKit          3D

  0  0  0  0  0  0  0  0  0  0999 V3000
M  V30 BEGIN CTAB
M  V30 COUNTS 64 68 0 0 0
M  V30 BEGIN ATOM
M  V30 1 C 4.278040 -2.542740 1.149017 0
M  V30 2 O 3.953262 -1.154149 1.116922 0
M  V30 3 C 3.915579 -0.384175 2.264655 0
M  V30 4 C 4.164549 -0.797519 3.583455 0
M  V30 5 C 4.076852 0.125929 4.629768 0
M  V30 6 C 3.745222 1.430456 4.332382 0
M  V30 7 F 3.663104 2.327411 5.369365 0
M  V30 8 C 3.494240 1.864891 3.027931 0
M  V30 9 C 3.584856 0.936462 1.996872 0
M  V30 10 C 3.286416 1.522690 0.701795 0
M  V30 11 C 4.245454 2.003347 -0.152146 0
M  V30 12 C 3.830772 2.530044 -1.389133 0
M  V30 13 N 2.538838 2.574315 -1.749091 0
M  V30 14 C 1.598625 2.095524 -0.891838 0
M  V30 15 N 0.265598 2.057449 -1.077242 0
M  V30 16 C -0.305768 1.501944 0.029452 0
M  V30 17 C -1.744144 1.241514 0.259534 0
M  V30 18 C -2.062998 0.704642 1.422943 0
M  V30 19 C -3.534737 0.439515 1.650034 0
M  V30 20 C -4.003470 -0.114931 0.297651 0
M  V30 21 N -2.997461 -0.946142 -0.250811 0
M  V30 22 C -3.377536 -1.446448 -1.563702 0
M  V30 23 C -2.176544 -2.090611 -2.217740 0
M  V30 24 C -1.730937 -3.275173 -1.438558 0
M  V30 25 C -2.651762 -4.474377 -1.613510 0
M  V30 26 C -2.083268 -5.582660 -0.798252 0
M  V30 27 O -0.857373 -5.775949 -1.059850 0
M  V30 28 O -2.322317 -6.558167 0.182925 0
M  V30 29 C -1.574966 -2.922542 0.002516 0
M  V30 30 C -2.622795 -2.043210 0.606140 0
M  V30 31 C -4.079803 1.140505 -0.582576 0
M  V30 32 C -2.682331 1.614674 -0.842382 0
M  V30 33 C 0.748976 1.199384 0.899540 0
M  V30 34 C 1.940992 1.566754 0.333768 0
M  V30 35 H 3.373894 -3.166728 1.313734 0
M  V30 36 H 4.730335 -2.866480 0.193009 0
M  V30 37 H 4.994498 -2.764658 1.967509 0
M  V30 38 H 4.415345 -1.839135 3.681227 0
M  V30 39 H 4.277310 -0.252553 5.614475 0
M  V30 40 H 3.244348 2.911336 2.911510 0
M  V30 41 H 5.268369 1.943141 0.186354 0
M  V30 42 H 4.589843 2.900504 -2.051702 0
M  V30 43 H -0.247296 2.394831 -1.914857 0
M  V30 44 H -1.347634 0.460371 2.190964 0
M  V30 45 H -4.079330 1.340097 1.904549 0
M  V30 46 H -3.592170 -0.328213 2.438325 0
M  V30 47 H -4.995783 -0.532720 0.437667 0
M  V30 48 H -3.661971 -0.578770 -2.178284 0
M  V30 49 H -4.272812 -2.115558 -1.532937 0
M  V30 50 H -1.363442 -1.307563 -2.151447 0
M  V30 51 H -2.392491 -2.300274 -3.276605 0
M  V30 52 H -0.717768 -3.639840 -1.779769 0
M  V30 53 H -3.677636 -4.304644 -1.293871 0
M  V30 54 H -2.567824 -4.773268 -2.704562 0
M  V30 55 H -1.811747 -6.504430 1.073858 0
M  V30 56 H -0.553543 -2.499574 0.167844 0
M  V30 57 H -1.584280 -3.882842 0.568500 0
M  V30 58 H -2.250305 -1.647060 1.558369 0
M  V30 59 H -3.512894 -2.689084 0.857633 0
M  V30 60 H -4.624966 1.917267 0.026549 0
M  V30 61 H -4.678728 1.005721 -1.484878 0
M  V30 62 H -2.284267 1.294760 -1.824600 0
M  V30 63 H -2.667314 2.724499 -0.868854 0
M  V30 64 H 0.677558 0.746827 1.874171 0
M  V30 END ATOM
M  V30 BEGIN BOND
M  V30 1 1 1 2
M  V30 2 1 2 3
M  V30 3 2 3 4
M  V30 4 1 4 5
M  V30 5 2 5 6
M  V30 6 1 6 7
M  V30 7 1 6 8
M  V30 8 2 8 9
M  V30 9 1 9 10
M  V30 10 2 10 11
M  V30 11 1 11 12
M  V30 12 2 12 13
M  V30 13 1 13 14
M  V30 14 1 14 15
M  V30 15 1 15 16
M  V30 16 1 16 17
M  V30 17 2 17 18
M  V30 18 1 18 19
M  V30 19 1 19 20
M  V30 20 1 20 21
M  V30 21 1 21 22
M  V30 22 1 22 23
M  V30 23 1 23 24
M  V30 24 1 24 25
M  V30 25 1 25 26
M  V30 26 2 26 27
M  V30 27 1 26 28
M  V30 28 1 24 29
M  V30 29 1 29 30
M  V30 30 1 20 31
M  V30 31 1 31 32
M  V30 32 2 16 33
M  V30 33 1 33 34
M  V30 34 1 9 3
M  V30 35 1 34 10
M  V30 36 2 34 14
M  V30 37 1 32 17
M  V30 38 1 30 21
M  V30 39 1 1 35
M  V30 40 1 1 36
M  V30 41 1 1 37
M  V30 42 1 4 38
M  V30 43 1 5 39
M  V30 44 1 8 40
M  V30 45 1 11 41
M  V30 46 1 12 42
M  V30 47 1 15 43
M  V30 48 1 18 44
M  V30 49 1 19 45
M  V30 50 1 19 46
M  V30 51 1 20 47
M  V30 52 1 22 48
M  V30 53 1 22 49
M  V30 54 1 23 50
M  V30 55 1 23 51
M  V30 56 1 24 52
M  V30 57 1 25 53
M  V30 58 1 25 54
M  V30 59 1 28 55
M  V30 60 1 29 56
M  V30 61 1 29 57
M  V30 62 1 30 58
M  V30 63 1 30 59
M  V30 64 1 31 60
M  V30 65 1 31 61
M  V30 66 1 32 62
M  V30 67 1 32 63
M  V30 68 1 33 64
M  V30 END BOND
M  V30 END CTAB
M  END
>  <Dataset>  (764) 
ChEMBL_Kinases

>  <Ligand_Instance>  (764) 
nan

>  <PDB_ID>  (764) 
nan

>  <Standardized_SMILES>  (764) 
COc1ccc(F)cc1-c1ccnc2[nH]c(C3=CCC(N4CCC(CC(=O)O)CC4)CC3)cc12

>  <Name>  (764) 
nan

>  <Pocket>  (764) 
nan

>  <ATP_Site>  (764) 
nan

>  <Peripheral>  (764) 
nan

>  <Num_H_Atoms_ProtBoundConf>  (764) 
nan

>  <Num_Resolved_Atoms>  (764) 
nan

>  <Num_Not_Resolved_Atoms>  (764) 
nan

$$$$
CHEMBL4865487
     RDKit          3D

  0  0  0  0  0  0  0  0  0  0999 V3000
M  V30 BEGIN CTAB
M  V30 COUNTS 49 52 0 0 0
M  V30 BEGIN ATOM
M  V30 1 C 0.004681 -2.390370 5.311967 0
M  V30 2 C -0.537126 -3.551859 4.466851 0
M  V30 3 C 0.439442 -3.832115 3.371750 0
M  V30 4 C 0.472434 -3.266790 2.098481 0
M  V30 5 C 1.529547 -3.769729 1.353081 0
M  V30 6 N 1.825736 -3.387758 0.009488 0
M  V30 7 C 0.914170 -2.454100 -0.561635 0
M  V30 8 N 1.145430 -1.122872 -0.377065 0
M  V30 9 C 0.336136 -0.188665 -0.870231 0
M  V30 10 N 0.392330 1.228098 -0.806033 0
M  V30 11 C 0.285131 1.857341 0.512029 0 CFG=1
M  V30 12 C 1.407911 1.497648 1.427739 0
M  V30 13 C 0.164242 3.320419 0.347066 0
M  V30 14 C 0.810672 4.380378 0.939952 0
M  V30 15 C 0.505906 5.683384 0.621973 0
M  V30 16 C -0.469067 5.951093 -0.311960 0
M  V30 17 F -0.732526 7.261217 -0.588942 0
M  V30 18 C -1.147976 4.930144 -0.937099 0
M  V30 19 C -0.826604 3.608279 -0.603406 0
M  V30 20 N -0.749709 -0.612107 -1.578166 0
M  V30 21 C -1.003544 -1.924060 -1.777399 0
M  V30 22 C -2.103237 -2.351539 -2.501647 0
M  V30 23 C -2.336917 -3.704160 -2.695236 0
M  V30 24 Cl -3.768196 -4.062365 -3.633425 0
M  V30 25 C -1.468820 -4.649003 -2.163773 0
M  V30 26 C -0.359532 -4.264916 -1.435074 0
M  V30 27 C -0.179776 -2.909430 -1.276673 0
M  V30 28 N 2.123044 -4.639877 2.199595 0
M  V30 29 N 1.504187 -4.679118 3.353509 0
M  V30 30 H 0.643758 -2.873102 6.098776 0
M  V30 31 H -0.865690 -1.879889 5.740408 0
M  V30 32 H 0.602035 -1.769740 4.599232 0
M  V30 33 H -0.715008 -4.453580 5.088070 0
M  V30 34 H -1.520012 -3.258919 4.071322 0
M  V30 35 H -0.289454 -2.528977 1.830092 0
M  V30 36 H 2.673395 -3.835687 -0.391211 0
M  V30 37 H 0.503745 1.832667 -1.652469 0
M  V30 38 H -0.672739 1.513485 1.009870 0
M  V30 39 H 2.269220 2.192256 1.368738 0
M  V30 40 H 1.863053 0.497491 1.181781 0
M  V30 41 H 1.059606 1.418796 2.486325 0
M  V30 42 H 1.553318 4.048141 1.654276 0
M  V30 43 H 1.092710 6.410526 1.160910 0
M  V30 44 H -1.880689 5.241879 -1.641279 0
M  V30 45 H -1.434513 2.907620 -1.168561 0
M  V30 46 H -2.756178 -1.557039 -2.898807 0
M  V30 47 H -1.729521 -5.696580 -2.365147 0
M  V30 48 H 0.299326 -5.020403 -1.033160 0
M  V30 49 H 1.718569 -5.253564 4.210718 0
M  V30 END ATOM
M  V30 BEGIN BOND
M  V30 1 1 1 2
M  V30 2 1 2 3
M  V30 3 2 3 4
M  V30 4 1 4 5
M  V30 5 1 5 6
M  V30 6 1 6 7
M  V30 7 2 7 8
M  V30 8 1 8 9
M  V30 9 1 9 10
M  V30 10 1 10 11
M  V30 11 1 11 12
M  V30 12 1 11 13
M  V30 13 2 13 14
M  V30 14 1 14 15
M  V30 15 2 15 16
M  V30 16 1 16 17
M  V30 17 1 16 18
M  V30 18 2 18 19
M  V30 19 2 9 20
M  V30 20 1 20 21
M  V30 21 2 21 22
M  V30 22 1 22 23
M  V30 23 1 23 24
M  V30 24 2 23 25
M  V30 25 1 25 26
M  V30 26 2 26 27
M  V30 27 2 5 28
M  V30 28 1 28 29
M  V30 29 1 29 3
M  V30 30 1 27 7
M  V30 31 1 19 13
M  V30 32 1 27 21
M  V30 33 1 1 30
M  V30 34 1 1 31
M  V30 35 1 1 32
M  V30 36 1 2 33
M  V30 37 1 2 34
M  V30 38 1 4 35
M  V30 39 1 6 36
M  V30 40 1 10 37
M  V30 41 1 11 38 CFG=1
M  V30 42 1 12 39
M  V30 43 1 12 40
M  V30 44 1 12 41
M  V30 45 1 14 42
M  V30 46 1 15 43
M  V30 47 1 18 44
M  V30 48 1 19 45
M  V30 49 1 22 46
M  V30 50 1 25 47
M  V30 51 1 26 48
M  V30 52 1 29 49
M  V30 END BOND
M  V30 END CTAB
M  END
>  <Dataset>  (765) 
ChEMBL_Kinases

>  <Ligand_Instance>  (765) 
nan

>  <PDB_ID>  (765) 
nan

>  <Standardized_SMILES>  (765) 
CCc1cc(Nc2nc(N[C@@H](C)c3ccc(F)cc3)nc3cc(Cl)ccc23)n[nH]1

>  <Name>  (765) 
nan

>  <Pocket>  (765) 
nan

>  <ATP_Site>  (765) 
nan

>  <Peripheral>  (765) 
nan

>  <Num_H_Atoms_ProtBoundConf>  (765) 
nan

>  <Num_Resolved_Atoms>  (765) 
nan

>  <Num_Not_Resolved_Atoms>  (765) 
nan

$$$$
CHEMBL96741
     RDKit          3D

  0  0  0  0  0  0  0  0  0  0999 V3000
M  V30 BEGIN CTAB
M  V30 COUNTS 38 41 0 0 0
M  V30 BEGIN ATOM
M  V30 1 F 1.333517 -2.346108 6.628279 0
M  V30 2 C 1.264481 -2.130030 5.279310 0
M  V30 3 C 0.387326 -2.930495 4.553393 0
M  V30 4 C 0.311313 -2.718875 3.201306 0
M  V30 5 C 1.090286 -1.741780 2.625215 0
M  V30 6 C 0.980970 -1.558689 1.182577 0
M  V30 7 N 1.321216 -2.548465 0.311896 0
M  V30 8 C 1.139121 -2.141600 -0.947227 0
M  V30 9 N 0.676229 -0.875051 -0.900619 0
M  V30 10 C 0.341281 -0.049455 -2.061106 0
M  V30 11 C -1.103665 -0.223723 -2.460780 0
M  V30 12 C -1.620051 -1.550106 -2.851990 0
M  V30 13 C -1.379110 -0.578699 -3.950974 0
M  V30 14 C 0.580045 -0.519590 0.396552 0
M  V30 15 C 0.121447 0.754689 0.941835 0
M  V30 16 C 1.085993 1.762308 0.825530 0
M  V30 17 C 0.833324 3.057115 1.281796 0
M  V30 18 N -0.377965 3.268360 1.830282 0
M  V30 19 C -1.333787 2.329262 1.961573 0
M  V30 20 C -1.095344 1.057564 1.518255 0
M  V30 21 C 1.948527 -0.968088 3.379226 0
M  V30 22 C 2.065749 -1.138074 4.745500 0
M  V30 23 H -0.208129 -3.686014 5.042081 0
M  V30 24 H -0.383771 -3.354054 2.647876 0
M  V30 25 H 1.332404 -2.732554 -1.841388 0
M  V30 26 H 0.520098 1.033858 -1.839405 0
M  V30 27 H 0.958606 -0.304294 -2.921527 0
M  V30 28 H -1.796209 0.532274 -2.053832 0
M  V30 29 H -0.970889 -2.418395 -2.722177 0
M  V30 30 H -2.684986 -1.744265 -2.539474 0
M  V30 31 H -0.467472 -0.778671 -4.577758 0
M  V30 32 H -2.234855 -0.053748 -4.438086 0
M  V30 33 H 2.078697 1.643383 0.389943 0
M  V30 34 H 1.560866 3.840690 1.201833 0
M  V30 35 H -2.303628 2.526055 2.409413 0
M  V30 36 H -1.774614 0.217611 1.561991 0
M  V30 37 H 2.553705 -0.202278 2.895138 0
M  V30 38 H 2.723996 -0.551203 5.377726 0
M  V30 END ATOM
M  V30 BEGIN BOND
M  V30 1 1 1 2
M  V30 2 2 2 3
M  V30 3 1 3 4
M  V30 4 2 4 5
M  V30 5 1 5 6
M  V30 6 1 6 7
M  V30 7 2 7 8
M  V30 8 1 8 9
M  V30 9 1 9 10
M  V30 10 1 10 11
M  V30 11 1 11 12
M  V30 12 1 12 13
M  V30 13 1 9 14
M  V30 14 1 14 15
M  V30 15 2 15 16
M  V30 16 1 16 17
M  V30 17 2 17 18
M  V30 18 1 18 19
M  V30 19 2 19 20
M  V30 20 1 5 21
M  V30 21 2 21 22
M  V30 22 1 22 2
M  V30 23 2 14 6
M  V30 24 1 20 15
M  V30 25 1 13 11
M  V30 26 1 3 23
M  V30 27 1 4 24
M  V30 28 1 8 25
M  V30 29 1 10 26
M  V30 30 1 10 27
M  V30 31 1 11 28
M  V30 32 1 12 29
M  V30 33 1 12 30
M  V30 34 1 13 31
M  V30 35 1 13 32
M  V30 36 1 16 33
M  V30 37 1 17 34
M  V30 38 1 19 35
M  V30 39 1 20 36
M  V30 40 1 21 37
M  V30 41 1 22 38
M  V30 END BOND
M  V30 END CTAB
M  END
>  <Dataset>  (766) 
ChEMBL_Kinases

>  <Ligand_Instance>  (766) 
nan

>  <PDB_ID>  (766) 
nan

>  <Standardized_SMILES>  (766) 
Fc1ccc(-c2ncn(CC3CC3)c2-c2ccncc2)cc1

>  <Name>  (766) 
nan

>  <Pocket>  (766) 
nan

>  <ATP_Site>  (766) 
nan

>  <Peripheral>  (766) 
nan

>  <Num_H_Atoms_ProtBoundConf>  (766) 
nan

>  <Num_Resolved_Atoms>  (766) 
nan

>  <Num_Not_Resolved_Atoms>  (766) 
nan

$$$$
CHEMBL4865491
     RDKit          3D

  0  0  0  0  0  0  0  0  0  0999 V3000
M  V30 BEGIN CTAB
M  V30 COUNTS 40 43 0 0 0
M  V30 BEGIN ATOM
M  V30 1 O 2.800419 1.175820 4.197723 0
M  V30 2 S 2.458213 0.510889 2.919206 0
M  V30 3 O 2.085149 -0.924568 3.260588 0
M  V30 4 N 3.763162 0.452041 1.821367 0
M  V30 5 C 3.674338 -0.312545 0.638457 0
M  V30 6 C 3.195689 -1.609610 0.458773 0
M  V30 7 C 3.203287 -2.165941 -0.804269 0
M  V30 8 C 3.667837 -1.492548 -1.914533 0
M  V30 9 Cl 3.643537 -2.269314 -3.483560 0
M  V30 10 C 4.151125 -0.197981 -1.766180 0
M  V30 11 Cl 4.734444 0.646018 -3.163710 0
M  V30 12 C 4.140327 0.349806 -0.504047 0
M  V30 13 C 1.017806 1.196048 2.182039 0
M  V30 14 C 0.796603 2.554010 2.241136 0
M  V30 15 C -0.335620 3.105154 1.663441 0
M  V30 16 C -1.248434 2.282427 1.023425 0
M  V30 17 C -1.057725 0.908014 0.944465 0
M  V30 18 C -2.017619 0.039934 0.271042 0
M  V30 19 N -2.611726 0.237740 -0.920003 0
M  V30 20 N -3.431067 -0.758716 -1.225717 0
M  V30 21 C -3.398205 -1.671240 -0.210218 0
M  V30 22 C -4.060186 -2.887155 -0.024480 0
M  V30 23 C -3.824679 -3.620721 1.137722 0
M  V30 24 F -4.433743 -4.812267 1.385335 0
M  V30 25 C -2.942973 -3.125458 2.074484 0
M  V30 26 C -2.304406 -1.914592 1.855338 0
M  V30 27 C -2.507965 -1.161486 0.725396 0
M  V30 28 C 0.083273 0.407085 1.534132 0
M  V30 29 H 4.625632 0.993440 2.045309 0
M  V30 30 H 2.855883 -2.058267 1.367272 0
M  V30 31 H 2.816529 -3.182856 -0.881107 0
M  V30 32 H 4.535997 1.369152 -0.471514 0
M  V30 33 H 1.535255 3.163566 2.751308 0
M  V30 34 H -0.472353 4.185080 1.733051 0
M  V30 35 H -2.120078 2.739400 0.583179 0
M  V30 36 H -4.014526 -0.841799 -2.103303 0
M  V30 37 H -4.750843 -3.268536 -0.765188 0
M  V30 38 H -2.729006 -3.671633 3.003686 0
M  V30 39 H -1.628880 -1.567104 2.606714 0
M  V30 40 H 0.309007 -0.649731 1.519070 0
M  V30 END ATOM
M  V30 BEGIN BOND
M  V30 1 2 1 2
M  V30 2 2 2 3
M  V30 3 1 2 4
M  V30 4 1 4 5
M  V30 5 2 5 6
M  V30 6 1 6 7
M  V30 7 2 7 8
M  V30 8 1 8 9
M  V30 9 1 8 10
M  V30 10 1 10 11
M  V30 11 2 10 12
M  V30 12 1 2 13
M  V30 13 2 13 14
M  V30 14 1 14 15
M  V30 15 2 15 16
M  V30 16 1 16 17
M  V30 17 1 17 18
M  V30 18 2 18 19
M  V30 19 1 19 20
M  V30 20 1 20 21
M  V30 21 2 21 22
M  V30 22 1 22 23
M  V30 23 1 23 24
M  V30 24 2 23 25
M  V30 25 1 25 26
M  V30 26 2 26 27
M  V30 27 2 17 28
M  V30 28 1 12 5
M  V30 29 1 28 13
M  V30 30 1 27 18
M  V30 31 1 27 21
M  V30 32 1 4 29
M  V30 33 1 6 30
M  V30 34 1 7 31
M  V30 35 1 12 32
M  V30 36 1 14 33
M  V30 37 1 15 34
M  V30 38 1 16 35
M  V30 39 1 20 36
M  V30 40 1 22 37
M  V30 41 1 25 38
M  V30 42 1 26 39
M  V30 43 1 28 40
M  V30 END BOND
M  V30 END CTAB
M  END
>  <Dataset>  (767) 
ChEMBL_Kinases

>  <Ligand_Instance>  (767) 
nan

>  <PDB_ID>  (767) 
nan

>  <Standardized_SMILES>  (767) 
O=S(=O)(Nc1ccc(Cl)c(Cl)c1)c1cccc(-c2n[nH]c3cc(F)ccc23)c1

>  <Name>  (767) 
nan

>  <Pocket>  (767) 
nan

>  <ATP_Site>  (767) 
nan

>  <Peripheral>  (767) 
nan

>  <Num_H_Atoms_ProtBoundConf>  (767) 
nan

>  <Num_Resolved_Atoms>  (767) 
nan

>  <Num_Not_Resolved_Atoms>  (767) 
nan

$$$$
CHEMBL4865565
     RDKit          3D

  0  0  0  0  0  0  0  0  0  0999 V3000
M  V30 BEGIN CTAB
M  V30 COUNTS 45 46 0 0 0
M  V30 BEGIN ATOM
M  V30 1 C -0.213058 -4.360421 1.451927 0
M  V30 2 O -1.030431 -3.475940 2.129565 0
M  V30 3 C -1.226891 -2.142075 1.957294 0
M  V30 4 C -0.526835 -1.498170 0.958222 0
M  V30 5 C -0.722744 -0.157647 0.783638 0
M  V30 6 N -0.103477 0.665113 -0.176034 0
M  V30 7 C 0.828860 0.327734 -1.157682 0
M  V30 8 O 1.249980 -0.879179 -1.305351 0
M  V30 9 C 1.773739 0.333526 -2.250053 0 CFG=2
M  V30 10 N 2.035094 -1.105017 -2.554459 0
M  V30 11 C 3.081939 0.941002 -1.925954 0
M  V30 12 C 3.178159 2.344537 -1.503751 0
M  V30 13 C 4.688242 2.648731 -1.276854 0
M  V30 14 C 2.488229 2.752064 -0.245106 0
M  V30 15 C -1.579573 0.596714 1.545635 0
M  V30 16 C -2.268359 -0.105352 2.549009 0
M  V30 17 C -2.108378 -1.469522 2.772151 0
M  V30 18 C -2.853683 -2.140292 3.831649 0
M  V30 19 C -4.202303 -1.886482 3.993255 0
M  V30 20 C -4.836493 -2.560159 5.018955 0
M  V30 21 N -4.144674 -3.409563 5.797397 0
M  V30 22 N -2.858313 -3.636046 5.624564 0
M  V30 23 C -2.163598 -3.019123 4.645958 0
M  V30 24 H 0.155528 -5.146256 2.167568 0
M  V30 25 H 0.699429 -3.824065 1.116813 0
M  V30 26 H -0.650636 -4.817199 0.544347 0
M  V30 27 H 0.158790 -2.025914 0.325709 0
M  V30 28 H -0.149626 1.662799 -0.435238 0
M  V30 29 H 1.341950 0.705363 -3.214917 0
M  V30 30 H 1.937577 -1.318872 -3.547731 0
M  V30 31 H 3.001930 -1.374620 -2.267506 0
M  V30 32 H 3.633784 0.309530 -1.153734 0
M  V30 33 H 3.775823 0.823045 -2.823055 0
M  V30 34 H 2.842240 3.031603 -2.307020 0
M  V30 35 H 5.091549 1.735033 -0.773613 0
M  V30 36 H 4.799145 3.460672 -0.528205 0
M  V30 37 H 5.183793 2.861763 -2.227302 0
M  V30 38 H 2.301046 1.879287 0.409421 0
M  V30 39 H 1.550237 3.283031 -0.386994 0
M  V30 40 H 3.152796 3.417598 0.395128 0
M  V30 41 H -1.779450 1.663236 1.457489 0
M  V30 42 H -2.960005 0.384960 3.199578 0
M  V30 43 H -4.749555 -1.200835 3.361038 0
M  V30 44 H -5.888072 -2.409571 5.201727 0
M  V30 45 H -1.104870 -3.238026 4.542667 0
M  V30 END ATOM
M  V30 BEGIN BOND
M  V30 1 1 1 2
M  V30 2 1 2 3
M  V30 3 2 3 4
M  V30 4 1 4 5
M  V30 5 1 5 6
M  V30 6 1 6 7
M  V30 7 2 7 8
M  V30 8 1 7 9
M  V30 9 1 9 10
M  V30 10 1 9 11
M  V30 11 1 11 12
M  V30 12 1 12 13
M  V30 13 1 12 14
M  V30 14 2 5 15
M  V30 15 1 15 16
M  V30 16 2 16 17
M  V30 17 1 17 18
M  V30 18 2 18 19
M  V30 19 1 19 20
M  V30 20 2 20 21
M  V30 21 1 21 22
M  V30 22 2 22 23
M  V30 23 1 17 3
M  V30 24 1 23 18
M  V30 25 1 1 24
M  V30 26 1 1 25
M  V30 27 1 1 26
M  V30 28 1 4 27
M  V30 29 1 6 28
M  V30 30 1 9 29 CFG=3
M  V30 31 1 10 30
M  V30 32 1 10 31
M  V30 33 1 11 32
M  V30 34 1 11 33
M  V30 35 1 12 34
M  V30 36 1 13 35
M  V30 37 1 13 36
M  V30 38 1 13 37
M  V30 39 1 14 38
M  V30 40 1 14 39
M  V30 41 1 14 40
M  V30 42 1 15 41
M  V30 43 1 16 42
M  V30 44 1 19 43
M  V30 45 1 20 44
M  V30 46 1 23 45
M  V30 END BOND
M  V30 END CTAB
M  END
>  <Dataset>  (768) 
ChEMBL_Kinases

>  <Ligand_Instance>  (768) 
nan

>  <PDB_ID>  (768) 
nan

>  <Standardized_SMILES>  (768) 
COc1cc(NC(=O)[C@H](N)CC(C)C)ccc1-c1ccnnc1

>  <Name>  (768) 
nan

>  <Pocket>  (768) 
nan

>  <ATP_Site>  (768) 
nan

>  <Peripheral>  (768) 
nan

>  <Num_H_Atoms_ProtBoundConf>  (768) 
nan

>  <Num_Resolved_Atoms>  (768) 
nan

>  <Num_Not_Resolved_Atoms>  (768) 
nan

$$$$
CHEMBL96653
     RDKit          3D

  0  0  0  0  0  0  0  0  0  0999 V3000
M  V30 BEGIN CTAB
M  V30 COUNTS 57 61 0 0 0
M  V30 BEGIN ATOM
M  V30 1 C 4.488248 -3.613367 2.235708 0
M  V30 2 N 3.894560 -2.405572 1.843583 0
M  V30 3 C 3.511871 -1.486687 2.840717 0
M  V30 4 C 2.236341 -0.748361 2.478428 0
M  V30 5 C 1.834702 -1.192120 1.095288 0
M  V30 6 C 0.568815 -0.621033 0.629285 0
M  V30 7 C 0.366729 0.735929 0.495507 0
M  V30 8 C -0.854066 1.251330 0.047765 0
M  V30 9 C -0.998217 2.717499 -0.071022 0
M  V30 10 C -0.632487 3.202743 -1.322718 0
M  V30 11 C -0.699738 4.544991 -1.621250 0
M  V30 12 C -1.150537 5.407703 -0.617951 0
M  V30 13 F -1.237979 6.735789 -0.852050 0
M  V30 14 C -1.510437 4.925906 0.615381 0
M  V30 15 C -1.444126 3.579068 0.918368 0
M  V30 16 Cl -1.869526 2.854998 2.433272 0
M  V30 17 C -1.899057 0.425598 -0.276061 0
M  V30 18 C -1.681973 -0.944039 -0.136484 0
M  V30 19 C -0.484518 -1.453006 0.302859 0
M  V30 20 N -2.740235 -1.835434 -0.461811 0
M  V30 21 C -2.562512 -3.231903 -0.334638 0
M  V30 22 C -2.823056 -3.997825 0.789429 0
M  V30 23 Cl -3.434080 -3.144159 2.191094 0
M  V30 24 C -2.610685 -5.361229 0.799218 0
M  V30 25 C -2.126596 -5.920029 -0.365979 0
M  V30 26 C -1.850699 -5.204165 -1.511935 0
M  V30 27 C -2.074874 -3.826925 -1.493412 0
M  V30 28 Cl -1.710562 -2.953466 -2.973154 0
M  V30 29 C -4.002541 -1.380711 -0.921084 0
M  V30 30 O -4.974849 -2.116897 -1.223878 0
M  V30 31 N -4.151868 0.042074 -1.039637 0
M  V30 32 C -3.156009 1.024517 -0.740305 0
M  V30 33 C 3.012731 -0.898587 0.189499 0
M  V30 34 C 4.089681 -1.917448 0.535460 0
M  V30 35 H 5.394318 -3.533380 2.869051 0
M  V30 36 H 4.629654 -4.257587 1.354044 0
M  V30 37 H 3.744306 -4.152783 2.892637 0
M  V30 38 H 3.277133 -2.068363 3.769341 0
M  V30 39 H 4.349962 -0.789895 3.095422 0
M  V30 40 H 2.527421 0.330457 2.375328 0
M  V30 41 H 1.441362 -0.869731 3.241223 0
M  V30 42 H 1.774229 -2.305151 1.126495 0
M  V30 43 H 1.215505 1.357830 0.760817 0
M  V30 44 H -0.277141 2.589314 -2.138174 0
M  V30 45 H -0.423903 4.967351 -2.586136 0
M  V30 46 H -1.870091 5.568150 1.432870 0
M  V30 47 H -0.377595 -2.529483 0.390457 0
M  V30 48 H -2.820199 -5.944931 1.688095 0
M  V30 49 H -1.938132 -6.999298 -0.418133 0
M  V30 50 H -1.470740 -5.687457 -2.405705 0
M  V30 51 H -5.067895 0.436788 -1.375877 0
M  V30 52 H -3.032038 1.650212 -1.646809 0
M  V30 53 H -3.518929 1.698220 0.054707 0
M  V30 54 H 2.743103 -0.957067 -0.884776 0
M  V30 55 H 3.410714 0.095548 0.480718 0
M  V30 56 H 3.928413 -2.779802 -0.175364 0
M  V30 57 H 5.100108 -1.527874 0.313370 0
M  V30 END ATOM
M  V30 BEGIN BOND
M  V30 1 1 1 2
M  V30 2 1 2 3
M  V30 3 1 3 4
M  V30 4 1 4 5
M  V30 5 1 5 6
M  V30 6 2 6 7
M  V30 7 1 7 8
M  V30 8 1 8 9
M  V30 9 2 9 10
M  V30 10 1 10 11
M  V30 11 2 11 12
M  V30 12 1 12 13
M  V30 13 1 12 14
M  V30 14 2 14 15
M  V30 15 1 15 16
M  V30 16 2 8 17
M  V30 17 1 17 18
M  V30 18 2 18 19
M  V30 19 1 18 20
M  V30 20 1 20 21
M  V30 21 2 21 22
M  V30 22 1 22 23
M  V30 23 1 22 24
M  V30 24 2 24 25
M  V30 25 1 25 26
M  V30 26 2 26 27
M  V30 27 1 27 28
M  V30 28 1 20 29
M  V30 29 2 29 30
M  V30 30 1 29 31
M  V30 31 1 31 32
M  V30 32 1 5 33
M  V30 33 1 33 34
M  V30 34 1 34 2
M  V30 35 1 19 6
M  V30 36 1 27 21
M  V30 37 1 15 9
M  V30 38 1 32 17
M  V30 39 1 1 35
M  V30 40 1 1 36
M  V30 41 1 1 37
M  V30 42 1 3 38
M  V30 43 1 3 39
M  V30 44 1 4 40
M  V30 45 1 4 41
M  V30 46 1 5 42
M  V30 47 1 7 43
M  V30 48 1 10 44
M  V30 49 1 11 45
M  V30 50 1 14 46
M  V30 51 1 19 47
M  V30 52 1 24 48
M  V30 53 1 25 49
M  V30 54 1 26 50
M  V30 55 1 31 51
M  V30 56 1 32 52
M  V30 57 1 32 53
M  V30 58 1 33 54
M  V30 59 1 33 55
M  V30 60 1 34 56
M  V30 61 1 34 57
M  V30 END BOND
M  V30 END CTAB
M  END
>  <Dataset>  (769) 
ChEMBL_Kinases

>  <Ligand_Instance>  (769) 
nan

>  <PDB_ID>  (769) 
nan

>  <Standardized_SMILES>  (769) 
CN1CCC(c2cc(-c3ccc(F)cc3Cl)c3c(c2)N(c2c(Cl)cccc2Cl)C(=O)NC3)CC1

>  <Name>  (769) 
nan

>  <Pocket>  (769) 
nan

>  <ATP_Site>  (769) 
nan

>  <Peripheral>  (769) 
nan

>  <Num_H_Atoms_ProtBoundConf>  (769) 
nan

>  <Num_Resolved_Atoms>  (769) 
nan

>  <Num_Not_Resolved_Atoms>  (769) 
nan

$$$$
CHEMBL4865581
     RDKit          3D

  0  0  0  0  0  0  0  0  0  0999 V3000
M  V30 BEGIN CTAB
M  V30 COUNTS 45 48 0 0 0
M  V30 BEGIN ATOM
M  V30 1 C 3.196416 -4.780873 6.513590 0
M  V30 2 N 3.951346 -4.154205 5.444309 0
M  V30 3 C 5.212205 -4.276258 4.990115 0
M  V30 4 C 5.387812 -3.410704 3.921224 0
M  V30 5 C 4.178035 -2.769757 3.760125 0
M  V30 6 C 3.847099 -1.756009 2.760744 0
M  V30 7 C 4.825677 -1.365183 1.855065 0
M  V30 8 N 4.546533 -0.432062 0.923233 0
M  V30 9 C 3.314347 0.144716 0.845774 0
M  V30 10 C 3.058692 1.097640 -0.119666 0
M  V30 11 C 1.780471 1.656905 -0.155508 0
M  V30 12 C 0.799513 1.258585 0.759827 0
M  V30 13 N -0.474803 1.912421 0.614396 0
M  V30 14 C -1.498309 1.369163 -0.234658 0
M  V30 15 O -1.526265 0.337675 -0.954625 0
M  V30 16 N -2.753419 2.071606 -0.337825 0
M  V30 17 C -3.654301 1.404042 -1.214942 0
M  V30 18 C -4.533412 0.445333 -0.757838 0
M  V30 19 C -5.436738 -0.247915 -1.535338 0
M  V30 20 C -5.400521 0.099315 -2.869161 0
M  V30 21 C -4.577694 1.031141 -3.444407 0
M  V30 22 C -4.598656 1.347499 -4.883115 0
M  V30 23 F -5.575538 0.540722 -5.479987 0
M  V30 24 F -3.371740 1.059308 -5.474657 0
M  V30 25 F -4.980579 2.641823 -5.162603 0
M  V30 26 C -3.707078 1.672950 -2.582519 0
M  V30 27 F -2.845052 2.618975 -3.056190 0
M  V30 28 C 1.058408 0.305899 1.723470 0
M  V30 29 C 2.324979 -0.245161 1.755445 0
M  V30 30 N 2.628690 -1.179614 2.677240 0
M  V30 31 N 3.341163 -3.248268 4.699138 0
M  V30 32 H 2.936159 -4.067496 7.332569 0
M  V30 33 H 3.787800 -5.581576 6.999669 0
M  V30 34 H 2.268250 -5.259222 6.139761 0
M  V30 35 H 5.897901 -4.969570 5.457477 0
M  V30 36 H 6.288998 -3.293558 3.363705 0
M  V30 37 H 5.839480 -1.772267 1.841917 0
M  V30 38 H 3.796796 1.414298 -0.827700 0
M  V30 39 H 1.567010 2.398165 -0.899637 0
M  V30 40 H -0.698795 2.792418 1.113186 0
M  V30 41 H -2.941728 2.964702 0.186553 0
M  V30 42 H -4.504243 0.221478 0.319474 0
M  V30 43 H -6.107225 -0.991114 -1.135405 0
M  V30 44 H -6.091747 -0.408800 -3.559644 0
M  V30 45 H 0.272896 0.029829 2.407566 0
M  V30 END ATOM
M  V30 BEGIN BOND
M  V30 1 1 1 2
M  V30 2 1 2 3
M  V30 3 2 3 4
M  V30 4 1 4 5
M  V30 5 1 5 6
M  V30 6 2 6 7
M  V30 7 1 7 8
M  V30 8 2 8 9
M  V30 9 1 9 10
M  V30 10 2 10 11
M  V30 11 1 11 12
M  V30 12 1 12 13
M  V30 13 1 13 14
M  V30 14 2 14 15
M  V30 15 1 14 16
M  V30 16 1 16 17
M  V30 17 2 17 18
M  V30 18 1 18 19
M  V30 19 2 19 20
M  V30 20 1 20 21
M  V30 21 1 21 22
M  V30 22 1 22 23
M  V30 23 1 22 24
M  V30 24 1 22 25
M  V30 25 2 21 26
M  V30 26 1 26 27
M  V30 27 2 12 28
M  V30 28 1 28 29
M  V30 29 2 29 30
M  V30 30 2 5 31
M  V30 31 1 31 2
M  V30 32 1 30 6
M  V30 33 1 29 9
M  V30 34 1 26 17
M  V30 35 1 1 32
M  V30 36 1 1 33
M  V30 37 1 1 34
M  V30 38 1 3 35
M  V30 39 1 4 36
M  V30 40 1 7 37
M  V30 41 1 10 38
M  V30 42 1 11 39
M  V30 43 1 13 40
M  V30 44 1 16 41
M  V30 45 1 18 42
M  V30 46 1 19 43
M  V30 47 1 20 44
M  V30 48 1 28 45
M  V30 END BOND
M  V30 END CTAB
M  END
>  <Dataset>  (770) 
ChEMBL_Kinases

>  <Ligand_Instance>  (770) 
nan

>  <PDB_ID>  (770) 
nan

>  <Standardized_SMILES>  (770) 
Cn1ccc(-c2cnc3ccc(NC(=O)Nc4cccc(C(F)(F)F)c4F)cc3n2)n1

>  <Name>  (770) 
nan

>  <Pocket>  (770) 
nan

>  <ATP_Site>  (770) 
nan

>  <Peripheral>  (770) 
nan

>  <Num_H_Atoms_ProtBoundConf>  (770) 
nan

>  <Num_Resolved_Atoms>  (770) 
nan

>  <Num_Not_Resolved_Atoms>  (770) 
nan

$$$$
CHEMBL96632
     RDKit          3D

  0  0  0  0  0  0  0  0  0  0999 V3000
M  V30 BEGIN CTAB
M  V30 COUNTS 43 46 0 0 0
M  V30 BEGIN ATOM
M  V30 1 C -2.047252 1.959742 3.169284 0
M  V30 2 O -0.733370 2.217812 2.704197 0
M  V30 3 C -0.025044 1.338270 1.915028 0
M  V30 4 C 1.268694 1.543760 1.431372 0
M  V30 5 C 1.876355 0.569729 0.638334 0
M  V30 6 C 3.237474 0.833780 0.154752 0
M  V30 7 C 4.248631 0.395531 0.990087 0
M  V30 8 C 5.538703 0.629936 0.561596 0
M  V30 9 C 5.821191 1.263944 -0.629425 0
M  V30 10 C 4.745436 1.663893 -1.393286 0
M  V30 11 C 3.428842 1.475615 -1.051918 0
M  V30 12 Cl 2.089112 1.999454 -2.051671 0
M  V30 13 C 1.222221 -0.602170 0.318362 0
M  V30 14 C -0.056838 -0.816743 0.790496 0
M  V30 15 C -0.656939 0.147457 1.574876 0
M  V30 16 N -0.737935 -2.022430 0.464933 0
M  V30 17 C -2.056790 -2.288235 0.928181 0
M  V30 18 C -2.096833 -2.941637 2.148335 0
M  V30 19 Cl -0.648290 -3.399317 3.040522 0
M  V30 20 C -3.344793 -3.241438 2.676945 0
M  V30 21 C -4.547755 -2.920270 2.046145 0
M  V30 22 C -4.438830 -2.270163 0.833899 0
M  V30 23 C -3.221063 -1.951489 0.269247 0
M  V30 24 Cl -3.066928 -1.127380 -1.267039 0
M  V30 25 C -0.083907 -2.989703 -0.345821 0
M  V30 26 O -0.694746 -4.063755 -0.633969 0
M  V30 27 N 1.234329 -2.758301 -0.826977 0
M  V30 28 C 1.967071 -1.556463 -0.527011 0
M  V30 29 H -2.420404 2.862790 3.687728 0
M  V30 30 H -2.080582 1.063482 3.830009 0
M  V30 31 H -2.693154 1.719222 2.297692 0
M  V30 32 H 1.733829 2.476984 1.711706 0
M  V30 33 H 4.045790 -0.103639 1.927997 0
M  V30 34 H 6.350744 0.297349 1.195991 0
M  V30 35 H 6.853902 1.421303 -0.915407 0
M  V30 36 H 4.965467 2.165847 -2.336296 0
M  V30 37 H -1.673074 -0.045360 1.938154 0
M  V30 38 H -3.473776 -3.756803 3.636871 0
M  V30 39 H -5.500588 -3.171466 2.491395 0
M  V30 40 H -5.358813 -1.994741 0.295790 0
M  V30 41 H 1.744404 -3.445807 -1.423970 0
M  V30 42 H 2.866849 -1.881190 0.057517 0
M  V30 43 H 2.393625 -1.076784 -1.435861 0
M  V30 END ATOM
M  V30 BEGIN BOND
M  V30 1 1 1 2
M  V30 2 1 2 3
M  V30 3 2 3 4
M  V30 4 1 4 5
M  V30 5 1 5 6
M  V30 6 2 6 7
M  V30 7 1 7 8
M  V30 8 2 8 9
M  V30 9 1 9 10
M  V30 10 2 10 11
M  V30 11 1 11 12
M  V30 12 2 5 13
M  V30 13 1 13 14
M  V30 14 2 14 15
M  V30 15 1 14 16
M  V30 16 1 16 17
M  V30 17 2 17 18
M  V30 18 1 18 19
M  V30 19 1 18 20
M  V30 20 2 20 21
M  V30 21 1 21 22
M  V30 22 2 22 23
M  V30 23 1 23 24
M  V30 24 1 16 25
M  V30 25 2 25 26
M  V30 26 1 25 27
M  V30 27 1 27 28
M  V30 28 1 15 3
M  V30 29 1 23 17
M  V30 30 1 11 6
M  V30 31 1 28 13
M  V30 32 1 1 29
M  V30 33 1 1 30
M  V30 34 1 1 31
M  V30 35 1 4 32
M  V30 36 1 7 33
M  V30 37 1 8 34
M  V30 38 1 9 35
M  V30 39 1 10 36
M  V30 40 1 15 37
M  V30 41 1 20 38
M  V30 42 1 21 39
M  V30 43 1 22 40
M  V30 44 1 27 41
M  V30 45 1 28 42
M  V30 46 1 28 43
M  V30 END BOND
M  V30 END CTAB
M  END
>  <Dataset>  (771) 
ChEMBL_Kinases

>  <Ligand_Instance>  (771) 
nan

>  <PDB_ID>  (771) 
nan

>  <Standardized_SMILES>  (771) 
COc1cc(-c2ccccc2Cl)c2c(c1)N(c1c(Cl)cccc1Cl)C(=O)NC2

>  <Name>  (771) 
nan

>  <Pocket>  (771) 
nan

>  <ATP_Site>  (771) 
nan

>  <Peripheral>  (771) 
nan

>  <Num_H_Atoms_ProtBoundConf>  (771) 
nan

>  <Num_Resolved_Atoms>  (771) 
nan

>  <Num_Not_Resolved_Atoms>  (771) 
nan

$$$$
CHEMBL4865602
     RDKit          3D

  0  0  0  0  0  0  0  0  0  0999 V3000
M  V30 BEGIN CTAB
M  V30 COUNTS 66 70 0 0 0
M  V30 BEGIN ATOM
M  V30 1 O 3.154805 0.909342 3.499750 0
M  V30 2 C 2.983411 -0.439268 3.809766 0
M  V30 3 C 2.128722 -1.175898 2.805464 0 CFG=1
M  V30 4 O 0.857824 -0.669072 2.685347 0
M  V30 5 C -0.180627 -1.553193 2.924871 0 CFG=1
M  V30 6 C -0.956913 -0.907446 4.082447 0
M  V30 7 C -1.815731 0.168054 3.462587 0
M  V30 8 C -1.299950 0.680559 2.142567 0
M  V30 9 N -1.200823 -0.331119 1.114727 0
M  V30 10 C -2.238652 -0.254305 0.114143 0
M  V30 11 C -2.225600 1.047506 -0.548453 0
M  V30 12 C -3.201596 2.009943 -0.251326 0
M  V30 13 C -3.269142 3.268257 -0.823252 0
M  V30 14 C -2.314750 3.621002 -1.757204 0
M  V30 15 C -1.366277 2.678589 -2.042821 0
M  V30 16 C -1.275037 1.397917 -1.478855 0
M  V30 17 C -0.182515 0.530743 -1.938702 0
M  V30 18 C -0.659479 -0.450814 -2.947487 0
M  V30 19 N -1.050127 -1.743988 -2.971613 0
M  V30 20 N -1.378789 -2.094446 -4.195447 0
M  V30 21 C -1.199328 -1.017976 -4.972261 0
M  V30 22 O -0.770122 -0.047004 -4.211843 0
M  V30 23 C -1.189892 -1.618864 1.788689 0 CFG=1
M  V30 24 C -1.023952 -2.782544 0.929039 0
M  V30 25 C -0.074547 -2.944856 -0.058028 0
M  V30 26 C 0.059538 -4.054239 -0.863988 0
M  V30 27 C -0.820205 -5.101127 -0.683711 0
M  V30 28 C -1.805765 -5.034140 0.278745 0
M  V30 29 C -1.865994 -3.903358 1.028764 0
M  V30 30 C 2.808703 -1.003058 1.495604 0
M  V30 31 C 2.615580 0.279564 0.974708 0
M  V30 32 C 3.147128 0.677350 -0.225461 0
M  V30 33 Cl 2.930181 2.271616 -0.906999 0
M  V30 34 C 3.910981 -0.227437 -0.960188 0
M  V30 35 C 4.101027 -1.492402 -0.445736 0
M  V30 36 Cl 5.046213 -2.686264 -1.307379 0
M  V30 37 C 3.566825 -1.886334 0.756461 0
M  V30 38 H 2.952503 1.442093 4.316231 0
M  V30 39 H 4.017635 -0.874639 3.701845 0
M  V30 40 H 2.695647 -0.624993 4.854064 0
M  V30 41 H 2.198646 -2.242143 3.070321 0
M  V30 42 H 0.187431 -2.552814 3.188272 0
M  V30 43 H -0.327247 -0.585070 4.904156 0
M  V30 44 H -1.653268 -1.706039 4.440445 0
M  V30 45 H -1.752979 1.037151 4.163474 0
M  V30 46 H -2.878677 -0.092884 3.372547 0
M  V30 47 H -2.046037 1.428032 1.810844 0
M  V30 48 H -0.356293 1.278446 2.260728 0
M  V30 49 H -3.199539 -0.358550 0.678709 0
M  V30 50 H -2.183792 -1.069090 -0.594983 0
M  V30 51 H -4.000396 1.810477 0.480909 0
M  V30 52 H -4.030170 3.967477 -0.566535 0
M  V30 53 H -2.317352 4.577773 -2.230870 0
M  V30 54 H -0.616430 2.975142 -2.786241 0
M  V30 55 H 0.602461 1.150994 -2.416839 0
M  V30 56 H 0.343582 0.023866 -1.096649 0
M  V30 57 H -1.359299 -0.898466 -6.041941 0
M  V30 58 H -2.225194 -1.688933 2.208988 0
M  V30 59 H 0.623433 -2.160484 -0.223325 0
M  V30 60 H 0.830302 -4.114178 -1.620996 0
M  V30 61 H -0.768455 -6.000068 -1.284576 0
M  V30 62 H -2.510076 -5.837643 0.444254 0
M  V30 63 H -2.655871 -3.858505 1.794605 0
M  V30 64 H 2.036105 1.079491 1.455377 0
M  V30 65 H 4.350643 0.044662 -1.914837 0
M  V30 66 H 3.654341 -2.846697 1.246337 0
M  V30 END ATOM
M  V30 BEGIN BOND
M  V30 1 1 1 2
M  V30 2 1 2 3
M  V30 3 1 3 4
M  V30 4 1 4 5
M  V30 5 1 5 6
M  V30 6 1 6 7
M  V30 7 1 7 8
M  V30 8 1 8 9
M  V30 9 1 9 10
M  V30 10 1 10 11
M  V30 11 2 11 12
M  V30 12 1 12 13
M  V30 13 2 13 14
M  V30 14 1 14 15
M  V30 15 2 15 16
M  V30 16 1 16 17
M  V30 17 1 17 18
M  V30 18 2 18 19
M  V30 19 1 19 20
M  V30 20 2 20 21
M  V30 21 1 21 22
M  V30 22 1 9 23
M  V30 23 1 23 24
M  V30 24 2 24 25
M  V30 25 1 25 26
M  V30 26 2 26 27
M  V30 27 1 27 28
M  V30 28 2 28 29
M  V30 29 1 3 30
M  V30 30 2 30 31
M  V30 31 1 31 32
M  V30 32 1 32 33
M  V30 33 2 32 34
M  V30 34 1 34 35
M  V30 35 1 35 36
M  V30 36 2 35 37
M  V30 37 1 23 5
M  V30 38 1 29 24
M  V30 39 1 37 30
M  V30 40 1 16 11
M  V30 41 1 22 18
M  V30 42 1 1 38
M  V30 43 1 2 39
M  V30 44 1 2 40
M  V30 45 1 3 41 CFG=1
M  V30 46 1 5 42 CFG=1
M  V30 47 1 6 43
M  V30 48 1 6 44
M  V30 49 1 7 45
M  V30 50 1 7 46
M  V30 51 1 8 47
M  V30 52 1 8 48
M  V30 53 1 10 49
M  V30 54 1 10 50
M  V30 55 1 12 51
M  V30 56 1 13 52
M  V30 57 1 14 53
M  V30 58 1 15 54
M  V30 59 1 17 55
M  V30 60 1 17 56
M  V30 61 1 21 57
M  V30 62 1 23 58 CFG=1
M  V30 63 1 25 59
M  V30 64 1 26 60
M  V30 65 1 27 61
M  V30 66 1 28 62
M  V30 67 1 29 63
M  V30 68 1 31 64
M  V30 69 1 34 65
M  V30 70 1 37 66
M  V30 END BOND
M  V30 END CTAB
M  END
>  <Dataset>  (772) 
ChEMBL_Kinases

>  <Ligand_Instance>  (772) 
nan

>  <PDB_ID>  (772) 
nan

>  <Standardized_SMILES>  (772) 
OC[C@@H](O[C@H]1CCCN(Cc2ccccc2Cc2nnco2)[C@H]1c1ccccc1)c1cc(Cl)cc(Cl)c1

>  <Name>  (772) 
nan

>  <Pocket>  (772) 
nan

>  <ATP_Site>  (772) 
nan

>  <Peripheral>  (772) 
nan

>  <Num_H_Atoms_ProtBoundConf>  (772) 
nan

>  <Num_Resolved_Atoms>  (772) 
nan

>  <Num_Not_Resolved_Atoms>  (772) 
nan

$$$$
CHEMBL4865412
     RDKit          3D

  0  0  0  0  0  0  0  0  0  0999 V3000
M  V30 BEGIN CTAB
M  V30 COUNTS 53 56 0 0 0
M  V30 BEGIN ATOM
M  V30 1 C -0.949750 -2.053791 5.447970 0
M  V30 2 C 0.160946 -1.466692 4.610885 0
M  V30 3 C 0.533744 -2.340827 3.464470 0
M  V30 4 C 1.463444 -2.199527 2.473308 0
M  V30 5 C 1.429689 -3.302878 1.618635 0
M  V30 6 N 2.378369 -3.233021 0.551797 0
M  V30 7 C 1.781975 -2.519974 -0.556785 0
M  V30 8 N 1.885785 -1.173570 -0.565400 0
M  V30 9 C 1.366089 -0.403729 -1.567703 0
M  V30 10 N 1.603255 0.973307 -1.371100 0
M  V30 11 C 1.445657 1.932701 -0.318150 0 CFG=1
M  V30 12 C 2.030240 3.285081 -0.618257 0
M  V30 13 C 0.020249 1.995450 0.144592 0
M  V30 14 C -0.157938 2.212084 1.522503 0
M  V30 15 C -1.425158 2.282496 2.115881 0
M  V30 16 C -2.517883 2.126865 1.288912 0
M  V30 17 O -3.751698 2.201150 1.914526 0
M  V30 18 C -4.900682 2.033451 1.115505 0
M  V30 19 C -2.367107 1.912802 -0.067929 0
M  V30 20 C -1.097807 1.845701 -0.653894 0
M  V30 21 N 0.728171 -1.003810 -2.582444 0
M  V30 22 C 0.594657 -2.353852 -2.624944 0
M  V30 23 C -0.056060 -2.966749 -3.687068 0
M  V30 24 C -0.162150 -4.363883 -3.704664 0
M  V30 25 C 0.379300 -5.102344 -2.671380 0
M  V30 26 C 1.032288 -4.528788 -1.598562 0
M  V30 27 C 1.121599 -3.130344 -1.610020 0
M  V30 28 N 0.470440 -4.099455 2.112780 0
M  V30 29 N -0.059905 -3.539570 3.196704 0
M  V30 30 H -1.546196 -1.257938 5.948477 0
M  V30 31 H -1.686625 -2.643324 4.870465 0
M  V30 32 H -0.532922 -2.771092 6.201154 0
M  V30 33 H 1.014491 -1.316058 5.310815 0
M  V30 34 H -0.165415 -0.464155 4.225383 0
M  V30 35 H 2.063862 -1.278185 2.505270 0
M  V30 36 H 3.344158 -3.616973 0.526552 0
M  V30 37 H 2.005608 1.350030 -2.248993 0
M  V30 38 H 2.041906 1.532531 0.564079 0
M  V30 39 H 2.757979 3.168823 -1.445016 0
M  V30 40 H 2.665915 3.651753 0.250515 0
M  V30 41 H 1.292373 4.089997 -0.758922 0
M  V30 42 H 0.708099 2.338182 2.175166 0
M  V30 43 H -1.455939 2.460072 3.193325 0
M  V30 44 H -4.788069 2.685127 0.221918 0
M  V30 45 H -4.924144 0.989425 0.694991 0
M  V30 46 H -5.850293 2.234663 1.651923 0
M  V30 47 H -3.224724 1.790861 -0.706376 0
M  V30 48 H -0.912926 1.676858 -1.698599 0
M  V30 49 H -0.490681 -2.420584 -4.510304 0
M  V30 50 H -0.660558 -4.872643 -4.514687 0
M  V30 51 H 0.303532 -6.204953 -2.675702 0
M  V30 52 H 1.464555 -5.095174 -0.774621 0
M  V30 53 H -0.817678 -4.059509 3.680618 0
M  V30 END ATOM
M  V30 BEGIN BOND
M  V30 1 1 1 2
M  V30 2 1 2 3
M  V30 3 2 3 4
M  V30 4 1 4 5
M  V30 5 1 5 6
M  V30 6 1 6 7
M  V30 7 2 7 8
M  V30 8 1 8 9
M  V30 9 1 9 10
M  V30 10 1 10 11
M  V30 11 1 11 12
M  V30 12 1 11 13
M  V30 13 2 13 14
M  V30 14 1 14 15
M  V30 15 2 15 16
M  V30 16 1 16 17
M  V30 17 1 17 18
M  V30 18 1 16 19
M  V30 19 2 19 20
M  V30 20 2 9 21
M  V30 21 1 21 22
M  V30 22 2 22 23
M  V30 23 1 23 24
M  V30 24 2 24 25
M  V30 25 1 25 26
M  V30 26 2 26 27
M  V30 27 2 5 28
M  V30 28 1 28 29
M  V30 29 1 29 3
M  V30 30 1 27 7
M  V30 31 1 20 13
M  V30 32 1 27 22
M  V30 33 1 1 30
M  V30 34 1 1 31
M  V30 35 1 1 32
M  V30 36 1 2 33
M  V30 37 1 2 34
M  V30 38 1 4 35
M  V30 39 1 6 36
M  V30 40 1 10 37
M  V30 41 1 11 38 CFG=1
M  V30 42 1 12 39
M  V30 43 1 12 40
M  V30 44 1 12 41
M  V30 45 1 14 42
M  V30 46 1 15 43
M  V30 47 1 18 44
M  V30 48 1 18 45
M  V30 49 1 18 46
M  V30 50 1 19 47
M  V30 51 1 20 48
M  V30 52 1 23 49
M  V30 53 1 24 50
M  V30 54 1 25 51
M  V30 55 1 26 52
M  V30 56 1 29 53
M  V30 END BOND
M  V30 END CTAB
M  END
>  <Dataset>  (773) 
ChEMBL_Kinases

>  <Ligand_Instance>  (773) 
nan

>  <PDB_ID>  (773) 
nan

>  <Standardized_SMILES>  (773) 
CCc1cc(Nc2nc(N[C@@H](C)c3ccc(OC)cc3)nc3ccccc23)n[nH]1

>  <Name>  (773) 
nan

>  <Pocket>  (773) 
nan

>  <ATP_Site>  (773) 
nan

>  <Peripheral>  (773) 
nan

>  <Num_H_Atoms_ProtBoundConf>  (773) 
nan

>  <Num_Resolved_Atoms>  (773) 
nan

>  <Num_Not_Resolved_Atoms>  (773) 
nan

$$$$
CHEMBL403192
     RDKit          3D

  0  0  0  0  0  0  0  0  0  0999 V3000
M  V30 BEGIN CTAB
M  V30 COUNTS 59 62 0 0 0
M  V30 BEGIN ATOM
M  V30 1 C 6.645967 -0.376250 2.146510 0
M  V30 2 O 5.756835 -0.576929 1.076939 0
M  V30 3 C 4.386370 -0.368724 1.118036 0
M  V30 4 C 3.813281 0.073848 2.294076 0
M  V30 5 C 2.426601 0.286375 2.346956 0
M  V30 6 C 1.738525 0.027429 1.184314 0
M  V30 7 C 2.299071 -0.412934 0.007497 0
M  V30 8 C 3.657573 -0.624103 -0.051798 0
M  V30 9 C 4.377440 -1.084009 -1.230010 0
M  V30 10 C 3.724931 -0.882281 -2.552876 0
M  V30 11 C 3.445997 0.586583 -2.841047 0
M  V30 12 C 2.569160 -1.779995 -2.855064 0
M  V30 13 O 4.722788 -1.241714 -3.509077 0
M  V30 14 N 0.311433 0.176007 1.030463 0
M  V30 15 C -0.687476 0.066475 2.067948 0
M  V30 16 C -1.933043 -0.245999 1.530521 0
M  V30 17 C -3.063634 -0.408041 2.319188 0
M  V30 18 C -4.320802 -0.744085 1.658048 0
M  V30 19 C -5.596606 -0.377511 2.065640 0
M  V30 20 C -6.721240 -0.754905 1.368186 0
M  V30 21 C -6.605789 -1.520984 0.225047 0
M  V30 22 N -7.767017 -1.931837 -0.526517 0 CHG=1 VAL=4
M  V30 23 O -7.618215 -2.054478 -1.763736 0
M  V30 24 O -9.008211 -2.188764 0.049127 0 CHG=-1 VAL=1
M  V30 25 C -5.346894 -1.922943 -0.237997 0
M  V30 26 O -5.304427 -2.688191 -1.387678 0
M  V30 27 C -4.188971 -3.199900 -2.032864 0
M  V30 28 C -4.266396 -1.515759 0.499904 0
M  V30 29 C -2.885599 -0.240209 3.684672 0
M  V30 30 C -1.659576 0.069463 4.234628 0
M  V30 31 C -0.551036 0.225146 3.431227 0
M  V30 32 C 0.684304 0.549278 4.130448 0
M  V30 33 O 0.571965 0.682092 5.361946 0
M  V30 34 N 1.999537 0.737743 3.625870 0
M  V30 35 H 6.989953 0.699011 2.176356 0
M  V30 36 H 7.538218 -1.014669 1.977335 0
M  V30 37 H 6.207563 -0.592254 3.145423 0
M  V30 38 H 4.365597 0.273949 3.199647 0
M  V30 39 H 1.672450 -0.580913 -0.839061 0
M  V30 40 H 5.376226 -0.588889 -1.283274 0
M  V30 41 H 4.629065 -2.182315 -1.168133 0
M  V30 42 H 3.590018 1.224462 -1.943899 0
M  V30 43 H 2.405215 0.698599 -3.256725 0
M  V30 44 H 4.104745 1.019224 -3.616107 0
M  V30 45 H 2.315565 -2.511117 -2.073017 0
M  V30 46 H 2.722722 -2.422198 -3.776370 0
M  V30 47 H 1.694245 -1.138396 -3.152975 0
M  V30 48 H 4.315719 -0.969805 -4.392589 0
M  V30 49 H -0.037323 0.382149 0.070115 0
M  V30 50 H -1.967295 -0.351107 0.470359 0
M  V30 51 H -5.625449 0.220092 2.962973 0
M  V30 52 H -7.699086 -0.449113 1.717131 0
M  V30 53 H -4.132064 -2.989535 -3.121749 0
M  V30 54 H -3.232433 -2.991625 -1.512769 0
M  V30 55 H -4.284926 -4.324503 -1.971193 0
M  V30 56 H -3.307166 -1.827421 0.142450 0
M  V30 57 H -3.758892 -0.364210 4.303206 0
M  V30 58 H -1.535183 0.196031 5.283529 0
M  V30 59 H 2.714539 1.229721 4.200360 0
M  V30 END ATOM
M  V30 BEGIN BOND
M  V30 1 1 1 2
M  V30 2 1 2 3
M  V30 3 2 3 4
M  V30 4 1 4 5
M  V30 5 2 5 6
M  V30 6 1 6 7
M  V30 7 2 7 8
M  V30 8 1 8 9
M  V30 9 1 9 10
M  V30 10 1 10 11
M  V30 11 1 10 12
M  V30 12 1 10 13
M  V30 13 1 6 14
M  V30 14 1 14 15
M  V30 15 2 15 16
M  V30 16 1 16 17
M  V30 17 1 17 18
M  V30 18 2 18 19
M  V30 19 1 19 20
M  V30 20 2 20 21
M  V30 21 1 21 22
M  V30 22 2 22 23
M  V30 23 1 22 24
M  V30 24 1 21 25
M  V30 25 1 25 26
M  V30 26 1 26 27
M  V30 27 2 25 28
M  V30 28 2 17 29
M  V30 29 1 29 30
M  V30 30 2 30 31
M  V30 31 1 31 32
M  V30 32 2 32 33
M  V30 33 1 32 34
M  V30 34 1 8 3
M  V30 35 1 31 15
M  V30 36 1 34 5
M  V30 37 1 28 18
M  V30 38 1 1 35
M  V30 39 1 1 36
M  V30 40 1 1 37
M  V30 41 1 4 38
M  V30 42 1 7 39
M  V30 43 1 9 40
M  V30 44 1 9 41
M  V30 45 1 11 42
M  V30 46 1 11 43
M  V30 47 1 11 44
M  V30 48 1 12 45
M  V30 49 1 12 46
M  V30 50 1 12 47
M  V30 51 1 13 48
M  V30 52 1 14 49
M  V30 53 1 16 50
M  V30 54 1 19 51
M  V30 55 1 20 52
M  V30 56 1 27 53
M  V30 57 1 27 54
M  V30 58 1 27 55
M  V30 59 1 28 56
M  V30 60 1 29 57
M  V30 61 1 30 58
M  V30 62 1 34 59
M  V30 END BOND
M  V30 END CTAB
M  END
>  <Dataset>  (774) 
ChEMBL_Kinases

>  <Ligand_Instance>  (774) 
nan

>  <PDB_ID>  (774) 
nan

>  <Standardized_SMILES>  (774) 
COc1cc2c(cc1CC(C)(C)O)Nc1cc(-c3ccc([N+](=O)[O-])c(OC)c3)ccc1C(=O)N2

>  <Name>  (774) 
nan

>  <Pocket>  (774) 
nan

>  <ATP_Site>  (774) 
nan

>  <Peripheral>  (774) 
nan

>  <Num_H_Atoms_ProtBoundConf>  (774) 
nan

>  <Num_Resolved_Atoms>  (774) 
nan

>  <Num_Not_Resolved_Atoms>  (774) 
nan

$$$$
CHEMBL403141
     RDKit          3D

  0  0  0  0  0  0  0  0  0  0999 V3000
M  V30 BEGIN CTAB
M  V30 COUNTS 36 37 0 0 0
M  V30 BEGIN ATOM
M  V30 1 C 1.922328 -2.243524 3.348092 0
M  V30 2 C 3.074740 -2.703355 2.507120 0
M  V30 3 C 3.861355 -3.728668 3.029351 0
M  V30 4 C 4.930072 -4.162106 2.260148 0
M  V30 5 C 5.221492 -3.615726 1.026296 0
M  V30 6 C 4.435370 -2.591665 0.505338 0
M  V30 7 Cl 4.693395 -1.821690 -1.028228 0
M  V30 8 C 3.371087 -2.159480 1.270507 0
M  V30 9 N 2.460947 -1.108558 0.874993 0
M  V30 10 C 1.291780 -1.383644 0.148550 0
M  V30 11 O 0.871069 -2.497976 -0.249296 0
M  V30 12 C 0.506662 -0.194535 -0.154653 0
M  V30 13 C 0.486926 1.134991 0.012376 0
M  V30 14 N -0.517494 1.820864 -0.487773 0
M  V30 15 C -1.440266 1.417858 -1.086103 0
M  V30 16 N -2.577189 2.061355 -1.670080 0
M  V30 17 C -3.749258 2.206901 -0.830055 0
M  V30 18 C -4.870947 2.901760 -1.573245 0
M  V30 19 C -4.261349 0.907056 -0.290385 0
M  V30 20 S -1.090910 -0.470791 -1.133885 0
M  V30 21 H 2.377558 -1.618470 4.169531 0
M  V30 22 H 1.394778 -3.054794 3.852746 0
M  V30 23 H 1.251335 -1.577200 2.805874 0
M  V30 24 H 3.713364 -4.216146 3.979577 0
M  V30 25 H 5.584470 -4.946231 2.588479 0
M  V30 26 H 6.049648 -3.947386 0.423736 0
M  V30 27 H 2.754672 -0.154920 1.176339 0
M  V30 28 H 1.370187 1.419179 0.571440 0
M  V30 29 H -2.601721 2.420541 -2.644254 0
M  V30 30 H -3.439405 2.882695 0.019060 0
M  V30 31 H -5.816474 2.630835 -1.024365 0
M  V30 32 H -4.792359 3.999117 -1.549782 0
M  V30 33 H -4.916422 2.526345 -2.617580 0
M  V30 34 H -3.784648 0.598328 0.662867 0
M  V30 35 H -4.196371 0.095461 -1.032443 0
M  V30 36 H -5.354756 1.046707 -0.065310 0
M  V30 END ATOM
M  V30 BEGIN BOND
M  V30 1 1 1 2
M  V30 2 2 2 3
M  V30 3 1 3 4
M  V30 4 2 4 5
M  V30 5 1 5 6
M  V30 6 1 6 7
M  V30 7 2 6 8
M  V30 8 1 8 9
M  V30 9 1 9 10
M  V30 10 2 10 11
M  V30 11 1 10 12
M  V30 12 2 12 13
M  V30 13 1 13 14
M  V30 14 2 14 15
M  V30 15 1 15 16
M  V30 16 1 16 17
M  V30 17 1 17 18
M  V30 18 1 17 19
M  V30 19 1 15 20
M  V30 20 1 8 2
M  V30 21 1 20 12
M  V30 22 1 1 21
M  V30 23 1 1 22
M  V30 24 1 1 23
M  V30 25 1 3 24
M  V30 26 1 4 25
M  V30 27 1 5 26
M  V30 28 1 9 27
M  V30 29 1 13 28
M  V30 30 1 16 29
M  V30 31 1 17 30
M  V30 32 1 18 31
M  V30 33 1 18 32
M  V30 34 1 18 33
M  V30 35 1 19 34
M  V30 36 1 19 35
M  V30 37 1 19 36
M  V30 END BOND
M  V30 END CTAB
M  END
>  <Dataset>  (775) 
ChEMBL_Kinases

>  <Ligand_Instance>  (775) 
nan

>  <PDB_ID>  (775) 
nan

>  <Standardized_SMILES>  (775) 
Cc1cccc(Cl)c1NC(=O)c1cnc(NC(C)C)s1

>  <Name>  (775) 
nan

>  <Pocket>  (775) 
nan

>  <ATP_Site>  (775) 
nan

>  <Peripheral>  (775) 
nan

>  <Num_H_Atoms_ProtBoundConf>  (775) 
nan

>  <Num_Resolved_Atoms>  (775) 
nan

>  <Num_Not_Resolved_Atoms>  (775) 
nan

$$$$
CHEMBL403140
     RDKit          3D

  0  0  0  0  0  0  0  0  0  0999 V3000
M  V30 BEGIN CTAB
M  V30 COUNTS 33 34 0 0 0
M  V30 BEGIN ATOM
M  V30 1 C -1.727354 -3.647963 3.583072 0
M  V30 2 C -1.022876 -4.970004 3.317637 0
M  V30 3 N -1.036174 -5.274036 1.891371 0
M  V30 4 C -0.341140 -4.153556 1.234465 0
M  V30 5 N 0.673855 -3.915417 0.833374 0
M  V30 6 C 1.220966 -2.872945 0.264721 0
M  V30 7 C 0.423926 -1.853311 0.115651 0
M  V30 8 C 0.147043 -0.437661 -0.339858 0
M  V30 9 O -0.867189 0.258234 -0.294211 0
M  V30 10 N 1.239992 0.261422 -0.945051 0
M  V30 11 C 0.689577 1.561447 -1.266325 0
M  V30 12 C 0.868986 2.538285 -0.279114 0
M  V30 13 C 1.591110 2.243633 1.008921 0
M  V30 14 C 0.363371 3.827936 -0.487684 0
M  V30 15 C -0.300895 4.105887 -1.661444 0
M  V30 16 C -0.474109 3.119209 -2.639942 0
M  V30 17 C 0.029541 1.862214 -2.416811 0
M  V30 18 Cl -0.129571 0.552285 -3.566988 0
M  V30 19 S -1.144764 -2.452295 0.825070 0
M  V30 20 H -2.481831 -3.403534 2.798524 0
M  V30 21 H -1.000559 -2.805098 3.569469 0
M  V30 22 H -2.200108 -3.675721 4.569610 0
M  V30 23 H 0.013539 -4.867754 3.686634 0
M  V30 24 H -1.597995 -5.752205 3.864815 0
M  V30 25 H -1.337018 -5.955776 1.165718 0
M  V30 26 H 2.187328 -2.584503 -0.144494 0
M  V30 27 H 2.204041 -0.136909 -1.093469 0
M  V30 28 H 2.005868 3.168652 1.439360 0
M  V30 29 H 0.848140 1.884061 1.781365 0
M  V30 30 H 2.342151 1.460214 0.920199 0
M  V30 31 H 0.467117 4.632868 0.228518 0
M  V30 32 H -0.737511 5.076031 -1.934679 0
M  V30 33 H -0.976477 3.224238 -3.593316 0
M  V30 END ATOM
M  V30 BEGIN BOND
M  V30 1 1 1 2
M  V30 2 1 2 3
M  V30 3 1 3 4
M  V30 4 2 4 5
M  V30 5 1 5 6
M  V30 6 2 6 7
M  V30 7 1 7 8
M  V30 8 2 8 9
M  V30 9 1 8 10
M  V30 10 1 10 11
M  V30 11 2 11 12
M  V30 12 1 12 13
M  V30 13 1 12 14
M  V30 14 2 14 15
M  V30 15 1 15 16
M  V30 16 2 16 17
M  V30 17 1 17 18
M  V30 18 1 7 19
M  V30 19 1 19 4
M  V30 20 1 17 11
M  V30 21 1 1 20
M  V30 22 1 1 21
M  V30 23 1 1 22
M  V30 24 1 2 23
M  V30 25 1 2 24
M  V30 26 1 3 25
M  V30 27 1 6 26
M  V30 28 1 10 27
M  V30 29 1 13 28
M  V30 30 1 13 29
M  V30 31 1 13 30
M  V30 32 1 14 31
M  V30 33 1 15 32
M  V30 34 1 16 33
M  V30 END BOND
M  V30 END CTAB
M  END
>  <Dataset>  (776) 
ChEMBL_Kinases

>  <Ligand_Instance>  (776) 
nan

>  <PDB_ID>  (776) 
nan

>  <Standardized_SMILES>  (776) 
CCNc1ncc(C(=O)Nc2c(C)cccc2Cl)s1

>  <Name>  (776) 
nan

>  <Pocket>  (776) 
nan

>  <ATP_Site>  (776) 
nan

>  <Peripheral>  (776) 
nan

>  <Num_H_Atoms_ProtBoundConf>  (776) 
nan

>  <Num_Resolved_Atoms>  (776) 
nan

>  <Num_Not_Resolved_Atoms>  (776) 
nan

$$$$
CHEMBL402943
     RDKit          3D

  0  0  0  0  0  0  0  0  0  0999 V3000
M  V30 BEGIN CTAB
M  V30 COUNTS 46 47 0 0 0
M  V30 BEGIN ATOM
M  V30 1 C 2.739080 -5.803800 1.965176 0
M  V30 2 C 3.617346 -5.158788 0.896484 0
M  V30 3 N 3.089249 -3.851003 0.552248 0
M  V30 4 C 3.729995 -3.042492 -0.424241 0
M  V30 5 O 4.761458 -3.524460 -0.958105 0
M  V30 6 C 3.296568 -1.721277 -0.851053 0
M  V30 7 C 4.036983 -1.073252 -1.813358 0
M  V30 8 C 3.656218 0.178473 -2.241350 0
M  V30 9 C 2.539620 0.785123 -1.712373 0
M  V30 10 C 2.155121 2.144169 -2.199870 0
M  V30 11 C 1.760438 0.184350 -0.746923 0
M  V30 12 N 0.626440 0.849437 -0.237575 0
M  V30 13 C -0.316390 0.468477 0.728450 0
M  V30 14 O -0.160678 -0.657310 1.259315 0
M  V30 15 C -1.488650 1.249392 1.200831 0
M  V30 16 S -2.475276 0.377550 2.486181 0
M  V30 17 C -3.702669 1.853262 2.598377 0
M  V30 18 N -4.780456 1.633067 3.577289 0
M  V30 19 C -4.866430 0.410871 4.354115 0
M  V30 20 C -5.008355 -0.818127 3.512324 0
M  V30 21 N -3.242887 2.537208 1.838161 0
M  V30 22 C -2.182924 2.407347 1.076631 0
M  V30 23 C -1.605397 3.342902 0.078313 0
M  V30 24 C 2.194728 -1.057394 -0.367042 0
M  V30 25 H 3.005261 -5.422509 2.976265 0
M  V30 26 H 1.674659 -5.524672 1.812320 0
M  V30 27 H 2.904781 -6.900090 1.977062 0
M  V30 28 H 3.515337 -5.780998 -0.020460 0
M  V30 29 H 4.663174 -5.124680 1.205274 0
M  V30 30 H 2.233033 -3.472335 1.007876 0
M  V30 31 H 4.917590 -1.523139 -2.247156 0
M  V30 32 H 4.212936 0.718455 -2.995607 0
M  V30 33 H 1.088971 2.167416 -2.513732 0
M  V30 34 H 2.321655 2.918740 -1.434462 0
M  V30 35 H 2.751296 2.379627 -3.095165 0
M  V30 36 H 0.420699 1.795822 -0.624908 0
M  V30 37 H -5.373334 2.488652 3.549246 0
M  V30 38 H -3.985452 0.262356 5.005592 0
M  V30 39 H -5.757106 0.517623 4.989186 0
M  V30 40 H -5.480964 -0.575473 2.521384 0
M  V30 41 H -5.723067 -1.505594 4.004432 0
M  V30 42 H -4.066261 -1.400847 3.382912 0
M  V30 43 H -0.591072 3.700487 0.331033 0
M  V30 44 H -2.212897 4.289890 0.017597 0
M  V30 45 H -1.671366 2.857099 -0.913562 0
M  V30 46 H 1.667293 -1.626022 0.380770 0
M  V30 END ATOM
M  V30 BEGIN BOND
M  V30 1 1 1 2
M  V30 2 1 2 3
M  V30 3 1 3 4
M  V30 4 2 4 5
M  V30 5 1 4 6
M  V30 6 2 6 7
M  V30 7 1 7 8
M  V30 8 2 8 9
M  V30 9 1 9 10
M  V30 10 1 9 11
M  V30 11 1 11 12
M  V30 12 1 12 13
M  V30 13 2 13 14
M  V30 14 1 13 15
M  V30 15 1 15 16
M  V30 16 1 16 17
M  V30 17 1 17 18
M  V30 18 1 18 19
M  V30 19 1 19 20
M  V30 20 2 17 21
M  V30 21 1 21 22
M  V30 22 1 22 23
M  V30 23 2 11 24
M  V30 24 1 24 6
M  V30 25 2 22 15
M  V30 26 1 1 25
M  V30 27 1 1 26
M  V30 28 1 1 27
M  V30 29 1 2 28
M  V30 30 1 2 29
M  V30 31 1 3 30
M  V30 32 1 7 31
M  V30 33 1 8 32
M  V30 34 1 10 33
M  V30 35 1 10 34
M  V30 36 1 10 35
M  V30 37 1 12 36
M  V30 38 1 18 37
M  V30 39 1 19 38
M  V30 40 1 19 39
M  V30 41 1 20 40
M  V30 42 1 20 41
M  V30 43 1 20 42
M  V30 44 1 23 43
M  V30 45 1 23 44
M  V30 46 1 23 45
M  V30 47 1 24 46
M  V30 END BOND
M  V30 END CTAB
M  END
>  <Dataset>  (777) 
ChEMBL_Kinases

>  <Ligand_Instance>  (777) 
nan

>  <PDB_ID>  (777) 
nan

>  <Standardized_SMILES>  (777) 
CCNC(=O)c1ccc(C)c(NC(=O)c2sc(NCC)nc2C)c1

>  <Name>  (777) 
nan

>  <Pocket>  (777) 
nan

>  <ATP_Site>  (777) 
nan

>  <Peripheral>  (777) 
nan

>  <Num_H_Atoms_ProtBoundConf>  (777) 
nan

>  <Num_Resolved_Atoms>  (777) 
nan

>  <Num_Not_Resolved_Atoms>  (777) 
nan

$$$$
CHEMBL486452
     RDKit          3D

  0  0  0  0  0  0  0  0  0  0999 V3000
M  V30 BEGIN CTAB
M  V30 COUNTS 51 52 0 0 0
M  V30 BEGIN ATOM
M  V30 1 C 1.493738 -5.982371 2.520164 0
M  V30 2 C 0.823479 -5.450296 1.291431 0
M  V30 3 C 1.088314 -3.950082 1.103840 0
M  V30 4 C 2.536107 -3.655840 0.970042 0
M  V30 5 C 2.881674 -2.205273 0.782050 0
M  V30 6 C 2.423983 -1.338937 1.928386 0
M  V30 7 C 2.820946 0.059404 1.626958 0
M  V30 8 O 3.981680 0.490218 1.853878 0
M  V30 9 O 1.790885 0.815385 1.080866 0
M  V30 10 C 2.043509 2.176202 0.747531 0
M  V30 11 C 0.808885 2.830726 0.161435 0
M  V30 12 C 1.194974 4.238170 -0.236084 0
M  V30 13 O 1.631899 5.006370 0.819221 0
M  V30 14 C -0.371668 2.761819 1.063460 0
M  V30 15 C -1.300169 1.791567 0.424901 0
M  V30 16 C -2.230636 1.007515 0.951255 0
M  V30 17 C -3.049671 0.109239 0.157624 0
M  V30 18 C -2.696460 -0.741053 -0.854122 0
M  V30 19 C -3.636894 -1.506896 -1.505234 0
M  V30 20 C -4.967755 -1.465709 -1.183822 0
M  V30 21 C -5.358160 -0.616159 -0.164128 0
M  V30 22 C -4.400388 0.149891 0.483220 0
M  V30 23 C -0.968397 1.915424 -1.009900 0
M  V30 24 O -1.892257 1.774199 -1.891547 0
M  V30 25 O 0.387569 2.177595 -1.014595 0
M  V30 26 H 0.812817 -6.696451 3.026578 0
M  V30 27 H 2.431179 -6.511387 2.251339 0
M  V30 28 H 1.646034 -5.159071 3.250903 0
M  V30 29 H -0.266721 -5.632004 1.378462 0
M  V30 30 H 1.125870 -6.007519 0.361100 0
M  V30 31 H 0.548183 -3.668353 0.177392 0
M  V30 32 H 0.588912 -3.445649 1.944243 0
M  V30 33 H 3.165869 -4.094770 1.765365 0
M  V30 34 H 2.879675 -4.169512 0.026106 0
M  V30 35 H 2.462682 -1.870957 -0.189361 0
M  V30 36 H 3.984621 -2.135779 0.686612 0
M  V30 37 H 1.377779 -1.470391 2.190022 0
M  V30 38 H 3.020654 -1.633944 2.830651 0
M  V30 39 H 2.826763 2.262418 -0.041276 0
M  V30 40 H 2.421897 2.722717 1.627369 0
M  V30 41 H 1.926223 4.126492 -1.063128 0
M  V30 42 H 0.279062 4.696317 -0.661053 0
M  V30 43 H 1.183175 4.686890 1.647408 0
M  V30 44 H -0.897439 3.752988 1.036086 0
M  V30 45 H -0.157471 2.511641 2.107379 0
M  V30 46 H -2.384668 1.042937 2.035922 0
M  V30 47 H -1.640754 -0.767569 -1.082724 0
M  V30 48 H -3.244831 -2.142506 -2.288141 0
M  V30 49 H -5.652675 -2.094938 -1.737240 0
M  V30 50 H -6.406933 -0.594214 0.077313 0
M  V30 51 H -4.817387 0.774800 1.260501 0
M  V30 END ATOM
M  V30 BEGIN BOND
M  V30 1 1 1 2
M  V30 2 1 2 3
M  V30 3 1 3 4
M  V30 4 1 4 5
M  V30 5 1 5 6
M  V30 6 1 6 7
M  V30 7 2 7 8
M  V30 8 1 7 9
M  V30 9 1 9 10
M  V30 10 1 10 11
M  V30 11 1 11 12
M  V30 12 1 12 13
M  V30 13 1 11 14
M  V30 14 1 14 15
M  V30 15 2 15 16
M  V30 16 1 16 17
M  V30 17 2 17 18
M  V30 18 1 18 19
M  V30 19 2 19 20
M  V30 20 1 20 21
M  V30 21 2 21 22
M  V30 22 1 15 23
M  V30 23 2 23 24
M  V30 24 1 23 25
M  V30 25 1 25 11
M  V30 26 1 22 17
M  V30 27 1 1 26
M  V30 28 1 1 27
M  V30 29 1 1 28
M  V30 30 1 2 29
M  V30 31 1 2 30
M  V30 32 1 3 31
M  V30 33 1 3 32
M  V30 34 1 4 33
M  V30 35 1 4 34
M  V30 36 1 5 35
M  V30 37 1 5 36
M  V30 38 1 6 37
M  V30 39 1 6 38
M  V30 40 1 10 39
M  V30 41 1 10 40
M  V30 42 1 12 41
M  V30 43 1 12 42
M  V30 44 1 13 43
M  V30 45 1 14 44
M  V30 46 1 14 45
M  V30 47 1 16 46
M  V30 48 1 18 47
M  V30 49 1 19 48
M  V30 50 1 20 49
M  V30 51 1 21 50
M  V30 52 1 22 51
M  V30 END BOND
M  V30 END CTAB
M  END
>  <Dataset>  (778) 
ChEMBL_Kinases

>  <Ligand_Instance>  (778) 
nan

>  <PDB_ID>  (778) 
nan

>  <Standardized_SMILES>  (778) 
CCCCCCC(=O)OCC1(CO)C/C(=C/c2ccccc2)C(=O)O1

>  <Name>  (778) 
nan

>  <Pocket>  (778) 
nan

>  <ATP_Site>  (778) 
nan

>  <Peripheral>  (778) 
nan

>  <Num_H_Atoms_ProtBoundConf>  (778) 
nan

>  <Num_Resolved_Atoms>  (778) 
nan

>  <Num_Not_Resolved_Atoms>  (778) 
nan

$$$$
CHEMBL402628
     RDKit          3D

  0  0  0  0  0  0  0  0  0  0999 V3000
M  V30 BEGIN CTAB
M  V30 COUNTS 51 55 0 0 0
M  V30 BEGIN ATOM
M  V30 1 C 0.924695 -4.456738 -4.031177 0
M  V30 2 N 1.554412 -5.263888 -3.005604 0
M  V30 3 C 2.809009 -4.709795 -2.564379 0
M  V30 4 C 2.859455 -4.512508 -1.068190 0
M  V30 5 N 1.725094 -3.728073 -0.670744 0
M  V30 6 C 1.734067 -2.450915 -0.051845 0
M  V30 7 C 2.878693 -1.739638 0.182445 0
M  V30 8 C 2.846445 -0.483992 0.799689 0
M  V30 9 C 1.695328 0.103804 1.201415 0
M  V30 10 C 1.633419 1.407380 1.844828 0
M  V30 11 C 2.804125 2.095482 2.064174 0
M  V30 12 C 2.729507 3.327011 2.673726 0
M  V30 13 N 1.530327 3.797399 3.023645 0
M  V30 14 C 0.364303 3.167810 2.832483 0
M  V30 15 N -0.836388 3.786219 3.257164 0
M  V30 16 C -2.148539 3.292639 3.143938 0
M  V30 17 C -2.537541 2.116699 2.578161 0
M  V30 18 C -3.789764 1.605431 2.452129 0
M  V30 19 C -4.852275 2.343953 2.952197 0
M  V30 20 N -6.156446 2.087651 2.964517 0
M  V30 21 C -7.017798 2.756477 3.406727 0
M  V30 22 S -6.081456 4.289731 4.096623 0
M  V30 23 C -4.464443 3.575357 3.546772 0
M  V30 24 C -3.180431 4.049715 3.650174 0
M  V30 25 N 0.513100 1.986952 2.240240 0
M  V30 26 C 0.557233 -0.633486 0.953772 0
M  V30 27 C 0.545128 -1.891024 0.339987 0
M  V30 28 C 0.479449 -4.393826 -0.977897 0
M  V30 29 C 0.656909 -5.565018 -1.918024 0
M  V30 30 H 1.143423 -3.376000 -3.910160 0
M  V30 31 H 1.343821 -4.770296 -5.007179 0
M  V30 32 H -0.154128 -4.610755 -4.056689 0
M  V30 33 H 3.593071 -5.458041 -2.798330 0
M  V30 34 H 3.028435 -3.801633 -3.131874 0
M  V30 35 H 2.755249 -5.514469 -0.599203 0
M  V30 36 H 3.830958 -4.040647 -0.830802 0
M  V30 37 H 3.833599 -2.150492 -0.113627 0
M  V30 38 H 3.801675 -0.013089 0.935194 0
M  V30 39 H 3.801927 1.779497 1.809918 0
M  V30 40 H 3.565305 3.976557 2.907672 0
M  V30 41 H -0.720154 4.741492 3.717089 0
M  V30 42 H -1.752103 1.469462 2.155181 0
M  V30 43 H -3.978520 0.636468 1.971277 0
M  V30 44 H -8.105225 2.451191 3.369678 0
M  V30 45 H -3.080588 4.992221 4.126963 0
M  V30 46 H -0.416515 -0.262157 1.232020 0
M  V30 47 H -0.416911 -2.402943 0.186781 0
M  V30 48 H -0.302186 -3.686808 -1.372434 0
M  V30 49 H 0.071809 -4.793097 -0.027295 0
M  V30 50 H 0.966189 -6.484612 -1.388162 0
M  V30 51 H -0.337042 -5.769366 -2.368303 0
M  V30 END ATOM
M  V30 BEGIN BOND
M  V30 1 1 1 2
M  V30 2 1 2 3
M  V30 3 1 3 4
M  V30 4 1 4 5
M  V30 5 1 5 6
M  V30 6 2 6 7
M  V30 7 1 7 8
M  V30 8 2 8 9
M  V30 9 1 9 10
M  V30 10 2 10 11
M  V30 11 1 11 12
M  V30 12 2 12 13
M  V30 13 1 13 14
M  V30 14 1 14 15
M  V30 15 1 15 16
M  V30 16 2 16 17
M  V30 17 1 17 18
M  V30 18 2 18 19
M  V30 19 1 19 20
M  V30 20 2 20 21
M  V30 21 1 21 22
M  V30 22 1 22 23
M  V30 23 2 23 24
M  V30 24 2 14 25
M  V30 25 1 9 26
M  V30 26 2 26 27
M  V30 27 1 5 28
M  V30 28 1 28 29
M  V30 29 1 29 2
M  V30 30 1 27 6
M  V30 31 1 25 10
M  V30 32 1 24 16
M  V30 33 1 23 19
M  V30 34 1 1 30
M  V30 35 1 1 31
M  V30 36 1 1 32
M  V30 37 1 3 33
M  V30 38 1 3 34
M  V30 39 1 4 35
M  V30 40 1 4 36
M  V30 41 1 7 37
M  V30 42 1 8 38
M  V30 43 1 11 39
M  V30 44 1 12 40
M  V30 45 1 15 41
M  V30 46 1 17 42
M  V30 47 1 18 43
M  V30 48 1 21 44
M  V30 49 1 24 45
M  V30 50 1 26 46
M  V30 51 1 27 47
M  V30 52 1 28 48
M  V30 53 1 28 49
M  V30 54 1 29 50
M  V30 55 1 29 51
M  V30 END BOND
M  V30 END CTAB
M  END
>  <Dataset>  (779) 
ChEMBL_Kinases

>  <Ligand_Instance>  (779) 
nan

>  <PDB_ID>  (779) 
nan

>  <Standardized_SMILES>  (779) 
CN1CCN(c2ccc(-c3ccnc(Nc4ccc5ncsc5c4)n3)cc2)CC1

>  <Name>  (779) 
nan

>  <Pocket>  (779) 
nan

>  <ATP_Site>  (779) 
nan

>  <Peripheral>  (779) 
nan

>  <Num_H_Atoms_ProtBoundConf>  (779) 
nan

>  <Num_Resolved_Atoms>  (779) 
nan

>  <Num_Not_Resolved_Atoms>  (779) 
nan

$$$$
CHEMBL402617
     RDKit          3D

  0  0  0  0  0  0  0  0  0  0999 V3000
M  V30 BEGIN CTAB
M  V30 COUNTS 62 66 0 0 0
M  V30 BEGIN ATOM
M  V30 1 C 4.208311 -1.026377 6.648185 0
M  V30 2 C 3.774908 -1.397810 5.257477 0
M  V30 3 N 3.296231 -0.270967 4.500639 0
M  V30 4 C 2.790176 -0.124967 3.171810 0
M  V30 5 N 3.501077 0.140405 2.052122 0
M  V30 6 C 2.646623 0.198109 1.004937 0
M  V30 7 C 2.885568 0.436780 -0.319588 0
M  V30 8 C 1.837471 0.448514 -1.226444 0
M  V30 9 C 0.571010 0.215324 -0.753467 0
M  V30 10 C -0.655361 0.192469 -1.577999 0
M  V30 11 N -1.711257 1.017023 -1.462861 0
M  V30 12 C -2.666867 0.734414 -2.363361 0
M  V30 13 C -3.961171 1.363348 -2.593577 0
M  V30 14 C -4.419836 2.427232 -1.849329 0
M  V30 15 F -3.674289 2.946616 -0.850173 0
M  V30 16 C -5.667243 3.018769 -2.086231 0
M  V30 17 C -6.439391 2.498878 -3.103078 0
M  V30 18 C -6.027997 1.435078 -3.878381 0
M  V30 19 C -4.789845 0.899830 -3.592234 0
M  V30 20 F -4.428225 -0.154214 -4.391498 0
M  V30 21 N -2.177969 -0.304665 -3.058551 0
M  V30 22 C -0.960690 -0.664780 -2.614691 0
M  V30 23 C -0.117487 -1.746390 -3.119734 0
M  V30 24 C 0.209838 -2.808823 -2.281245 0
M  V30 25 C 1.004294 -3.838607 -2.740049 0
M  V30 26 C 1.497613 -3.853424 -4.031058 0
M  V30 27 C 1.180293 -2.806023 -4.872322 0
M  V30 28 C 0.375338 -1.754245 -4.420735 0
M  V30 29 C 0.312494 -0.030251 0.598842 0
M  V30 30 C 1.365792 -0.039697 1.495554 0
M  V30 31 N 1.477030 -0.234232 2.819992 0
M  V30 32 S 0.201514 -0.564892 3.908102 0
M  V30 33 O -0.847322 0.529638 3.887937 0
M  V30 34 O 0.691023 -0.651419 5.309002 0
M  V30 35 C -0.619391 -2.086000 3.501491 0
M  V30 36 C 0.365908 -3.243900 3.550229 0
M  V30 37 C -1.684115 -2.380142 4.520529 0
M  V30 38 H 3.617459 -0.182070 7.069720 0
M  V30 39 H 3.959016 -1.902375 7.315049 0
M  V30 40 H 5.266365 -0.722722 6.719619 0
M  V30 41 H 4.686181 -1.767453 4.711558 0
M  V30 42 H 2.981003 -2.170997 5.256552 0
M  V30 43 H 3.251673 0.716828 4.876603 0
M  V30 44 H 3.887542 0.626549 -0.729591 0
M  V30 45 H 1.913081 0.626915 -2.297125 0
M  V30 46 H -1.735726 1.757039 -0.756119 0
M  V30 47 H -5.984745 3.866982 -1.461463 0
M  V30 48 H -7.407469 2.980910 -3.264241 0
M  V30 49 H -6.655905 1.050440 -4.668457 0
M  V30 50 H -0.142761 -2.858766 -1.261349 0
M  V30 51 H 1.243263 -4.658916 -2.054818 0
M  V30 52 H 2.129232 -4.681600 -4.381207 0
M  V30 53 H 1.567627 -2.809757 -5.897502 0
M  V30 54 H 0.120486 -0.924859 -5.077655 0
M  V30 55 H -0.674680 -0.216678 0.997947 0
M  V30 56 H -1.045971 -2.053405 2.497634 0
M  V30 57 H -0.173383 -4.140050 3.186043 0
M  V30 58 H 1.194551 -3.030532 2.859815 0
M  V30 59 H 0.709477 -3.438093 4.595004 0
M  V30 60 H -2.653971 -1.910827 4.312274 0
M  V30 61 H -1.830023 -3.484229 4.573659 0
M  V30 62 H -1.367565 -2.015177 5.521523 0
M  V30 END ATOM
M  V30 BEGIN BOND
M  V30 1 1 1 2
M  V30 2 1 2 3
M  V30 3 1 3 4
M  V30 4 2 4 5
M  V30 5 1 5 6
M  V30 6 2 6 7
M  V30 7 1 7 8
M  V30 8 2 8 9
M  V30 9 1 9 10
M  V30 10 1 10 11
M  V30 11 1 11 12
M  V30 12 1 12 13
M  V30 13 2 13 14
M  V30 14 1 14 15
M  V30 15 1 14 16
M  V30 16 2 16 17
M  V30 17 1 17 18
M  V30 18 2 18 19
M  V30 19 1 19 20
M  V30 20 2 12 21
M  V30 21 1 21 22
M  V30 22 1 22 23
M  V30 23 2 23 24
M  V30 24 1 24 25
M  V30 25 2 25 26
M  V30 26 1 26 27
M  V30 27 2 27 28
M  V30 28 1 9 29
M  V30 29 2 29 30
M  V30 30 1 30 31
M  V30 31 1 31 32
M  V30 32 2 32 33
M  V30 33 2 32 34
M  V30 34 1 32 35
M  V30 35 1 35 36
M  V30 36 1 35 37
M  V30 37 1 31 4
M  V30 38 1 30 6
M  V30 39 2 22 10
M  V30 40 1 28 23
M  V30 41 1 19 13
M  V30 42 1 1 38
M  V30 43 1 1 39
M  V30 44 1 1 40
M  V30 45 1 2 41
M  V30 46 1 2 42
M  V30 47 1 3 43
M  V30 48 1 7 44
M  V30 49 1 8 45
M  V30 50 1 11 46
M  V30 51 1 16 47
M  V30 52 1 17 48
M  V30 53 1 18 49
M  V30 54 1 24 50
M  V30 55 1 25 51
M  V30 56 1 26 52
M  V30 57 1 27 53
M  V30 58 1 28 54
M  V30 59 1 29 55
M  V30 60 1 35 56
M  V30 61 1 36 57
M  V30 62 1 36 58
M  V30 63 1 36 59
M  V30 64 1 37 60
M  V30 65 1 37 61
M  V30 66 1 37 62
M  V30 END BOND
M  V30 END CTAB
M  END
>  <Dataset>  (780) 
ChEMBL_Kinases

>  <Ligand_Instance>  (780) 
nan

>  <PDB_ID>  (780) 
nan

>  <Standardized_SMILES>  (780) 
CCNc1nc2ccc(-c3[nH]c(-c4c(F)cccc4F)nc3-c3ccccc3)cc2n1S(=O)(=O)C(C)C

>  <Name>  (780) 
nan

>  <Pocket>  (780) 
nan

>  <ATP_Site>  (780) 
nan

>  <Peripheral>  (780) 
nan

>  <Num_H_Atoms_ProtBoundConf>  (780) 
nan

>  <Num_Resolved_Atoms>  (780) 
nan

>  <Num_Not_Resolved_Atoms>  (780) 
nan

$$$$
CHEMBL486453
     RDKit          3D

  0  0  0  0  0  0  0  0  0  0999 V3000
M  V30 BEGIN CTAB
M  V30 COUNTS 54 55 0 0 0
M  V30 BEGIN ATOM
M  V30 1 C 2.647463 -4.439032 3.259731 0
M  V30 2 C 2.256877 -3.180501 2.529417 0
M  V30 3 C 1.958650 -2.021575 3.477047 0
M  V30 4 C 1.601554 -0.813068 2.706848 0
M  V30 5 C 2.602863 -0.216055 1.802828 0
M  V30 6 C 3.863295 0.299272 2.385185 0
M  V30 7 C 4.747912 -0.636016 3.113282 0
M  V30 8 C 1.882793 0.863149 1.025093 0
M  V30 9 O 2.242168 2.056540 1.070511 0
M  V30 10 O 0.835341 0.396533 0.297655 0
M  V30 11 C -0.096619 0.954152 -0.513710 0
M  V30 12 C -1.229674 1.762730 -0.024862 0
M  V30 13 C -0.966511 2.918395 0.828574 0
M  V30 14 O -0.385260 2.626387 2.046460 0
M  V30 15 C -2.298304 0.887318 0.657106 0
M  V30 16 C -2.710655 0.092810 -0.564625 0
M  V30 17 C -2.945913 -1.155986 -0.920681 0
M  V30 18 C -3.342217 -1.661465 -2.226176 0
M  V30 19 C -2.795797 -1.304033 -3.439590 0
M  V30 20 C -3.260839 -1.836030 -4.627073 0
M  V30 21 C -4.297171 -2.741265 -4.535626 0
M  V30 22 C -4.881533 -3.133751 -3.334330 0
M  V30 23 C -4.384673 -2.574233 -2.152610 0
M  V30 24 C -2.871010 1.220156 -1.517615 0
M  V30 25 O -3.723272 1.183073 -2.482016 0
M  V30 26 O -1.975937 2.265435 -1.187867 0
M  V30 27 H 2.675246 -5.246332 2.492358 0
M  V30 28 H 3.574026 -4.347206 3.845587 0
M  V30 29 H 1.784137 -4.718073 3.931858 0
M  V30 30 H 1.293184 -3.442903 1.990259 0
M  V30 31 H 2.983432 -2.913245 1.775763 0
M  V30 32 H 2.696045 -1.926401 4.266106 0
M  V30 33 H 1.011415 -2.346244 4.011249 0
M  V30 34 H 1.200435 0.009803 3.378605 0
M  V30 35 H 0.710613 -1.084396 2.058409 0
M  V30 36 H 2.874068 -0.976125 1.000834 0
M  V30 37 H 4.469578 0.685490 1.504397 0
M  V30 38 H 3.706982 1.233542 2.989884 0
M  V30 39 H 4.628937 -0.571762 4.237452 0
M  V30 40 H 4.691181 -1.665599 2.755554 0
M  V30 41 H 5.847827 -0.350045 2.997090 0
M  V30 42 H -0.569799 0.109493 -1.125079 0
M  V30 43 H 0.404940 1.540405 -1.385931 0
M  V30 44 H -0.270879 3.636636 0.303079 0
M  V30 45 H -1.906998 3.526487 0.999171 0
M  V30 46 H -0.575528 1.705035 2.359448 0
M  V30 47 H -1.876533 0.190688 1.374642 0
M  V30 48 H -3.128568 1.475416 1.049130 0
M  V30 49 H -2.793709 -1.803017 -0.041447 0
M  V30 50 H -1.972161 -0.599394 -3.443348 0
M  V30 51 H -2.810372 -1.533898 -5.563611 0
M  V30 52 H -4.664139 -3.162899 -5.469865 0
M  V30 53 H -5.698231 -3.852665 -3.299914 0
M  V30 54 H -4.867699 -2.909183 -1.255936 0
M  V30 END ATOM
M  V30 BEGIN BOND
M  V30 1 1 1 2
M  V30 2 1 2 3
M  V30 3 1 3 4
M  V30 4 1 4 5
M  V30 5 1 5 6
M  V30 6 1 6 7
M  V30 7 1 5 8
M  V30 8 2 8 9
M  V30 9 1 8 10
M  V30 10 1 10 11
M  V30 11 1 11 12
M  V30 12 1 12 13
M  V30 13 1 13 14
M  V30 14 1 12 15
M  V30 15 1 15 16
M  V30 16 2 16 17
M  V30 17 1 17 18
M  V30 18 2 18 19
M  V30 19 1 19 20
M  V30 20 2 20 21
M  V30 21 1 21 22
M  V30 22 2 22 23
M  V30 23 1 16 24
M  V30 24 2 24 25
M  V30 25 1 24 26
M  V30 26 1 26 12
M  V30 27 1 23 18
M  V30 28 1 1 27
M  V30 29 1 1 28
M  V30 30 1 1 29
M  V30 31 1 2 30
M  V30 32 1 2 31
M  V30 33 1 3 32
M  V30 34 1 3 33
M  V30 35 1 4 34
M  V30 36 1 4 35
M  V30 37 1 5 36
M  V30 38 1 6 37
M  V30 39 1 6 38
M  V30 40 1 7 39
M  V30 41 1 7 40
M  V30 42 1 7 41
M  V30 43 1 11 42
M  V30 44 1 11 43
M  V30 45 1 13 44
M  V30 46 1 13 45
M  V30 47 1 14 46
M  V30 48 1 15 47
M  V30 49 1 15 48
M  V30 50 1 17 49
M  V30 51 1 19 50
M  V30 52 1 20 51
M  V30 53 1 21 52
M  V30 54 1 22 53
M  V30 55 1 23 54
M  V30 END BOND
M  V30 END CTAB
M  END
>  <Dataset>  (781) 
ChEMBL_Kinases

>  <Ligand_Instance>  (781) 
nan

>  <PDB_ID>  (781) 
nan

>  <Standardized_SMILES>  (781) 
CCCCC(CC)C(=O)OCC1(CO)C/C(=C/c2ccccc2)C(=O)O1

>  <Name>  (781) 
nan

>  <Pocket>  (781) 
nan

>  <ATP_Site>  (781) 
nan

>  <Peripheral>  (781) 
nan

>  <Num_H_Atoms_ProtBoundConf>  (781) 
nan

>  <Num_Resolved_Atoms>  (781) 
nan

>  <Num_Not_Resolved_Atoms>  (781) 
nan

$$$$
CHEMBL486454
     RDKit          3D

  0  0  0  0  0  0  0  0  0  0999 V3000
M  V30 BEGIN CTAB
M  V30 COUNTS 48 50 0 0 0
M  V30 BEGIN ATOM
M  V30 1 C -1.687658 -5.574758 5.624830 0
M  V30 2 C -0.562716 -4.781588 5.062245 0
M  V30 3 C -0.929584 -3.798417 4.162908 0
M  V30 4 C -0.036810 -2.958266 3.531169 0
M  V30 5 C 1.311438 -3.104819 3.812225 0
M  V30 6 C 2.387600 -2.286056 3.209121 0
M  V30 7 O 3.623366 -2.343888 3.430995 0
M  V30 8 O 1.950824 -1.365282 2.304719 0
M  V30 9 C 2.744323 -0.446994 1.574252 0
M  V30 10 C 1.745428 0.329161 0.739365 0
M  V30 11 C 0.846429 1.111983 1.640786 0
M  V30 12 O 1.569609 2.028443 2.409176 0
M  V30 13 C 2.387387 1.255397 -0.269564 0
M  V30 14 C 1.195218 1.426379 -1.190657 0
M  V30 15 C 0.590778 2.399304 -1.849778 0
M  V30 16 C -0.591172 2.270253 -2.691556 0
M  V30 17 C -0.692271 2.839747 -3.939067 0
M  V30 18 C -1.878448 2.669783 -4.628660 0
M  V30 19 C -2.972349 1.973028 -4.165230 0
M  V30 20 N -4.178255 1.812637 -4.889781 0 CHG=1 VAL=4
M  V30 21 O -4.368772 2.290967 -6.024488 0
M  V30 22 O -5.212527 1.097490 -4.338505 0 CHG=-1 VAL=1
M  V30 23 C -2.865287 1.396636 -2.897054 0
M  V30 24 C -1.674755 1.556855 -2.183380 0
M  V30 25 C 0.756949 0.011356 -1.266273 0
M  V30 26 O 0.181232 -0.471327 -2.307366 0
M  V30 27 O 1.078078 -0.621606 -0.070273 0
M  V30 28 C 1.711053 -4.083009 4.711280 0
M  V30 29 C 0.785902 -4.902555 5.320867 0
M  V30 30 H -2.538452 -4.897150 5.929983 0
M  V30 31 H -2.108430 -6.195087 4.806189 0
M  V30 32 H -1.399934 -6.221029 6.458475 0
M  V30 33 H -1.969905 -3.618393 3.890392 0
M  V30 34 H -0.314650 -2.190572 2.831216 0
M  V30 35 H 3.307261 0.259747 2.194609 0
M  V30 36 H 3.486515 -0.975995 0.920407 0
M  V30 37 H 0.215964 0.433712 2.259831 0
M  V30 38 H 0.175963 1.729691 1.010860 0
M  V30 39 H 1.252500 1.957437 3.350355 0
M  V30 40 H 3.224951 0.768436 -0.764410 0
M  V30 41 H 2.649068 2.241954 0.158959 0
M  V30 42 H 1.115971 3.349440 -1.671328 0
M  V30 43 H 0.139318 3.398413 -4.350261 0
M  V30 44 H -2.005172 3.107999 -5.632300 0
M  V30 45 H -3.722075 0.850639 -2.532118 0
M  V30 46 H -1.734190 1.073016 -1.220080 0
M  V30 47 H 2.726839 -4.276749 4.995343 0
M  V30 48 H 1.027474 -5.693578 6.036299 0
M  V30 END ATOM
M  V30 BEGIN BOND
M  V30 1 1 1 2
M  V30 2 2 2 3
M  V30 3 1 3 4
M  V30 4 2 4 5
M  V30 5 1 5 6
M  V30 6 2 6 7
M  V30 7 1 6 8
M  V30 8 1 8 9
M  V30 9 1 9 10
M  V30 10 1 10 11
M  V30 11 1 11 12
M  V30 12 1 10 13
M  V30 13 1 13 14
M  V30 14 2 14 15
M  V30 15 1 15 16
M  V30 16 2 16 17
M  V30 17 1 17 18
M  V30 18 2 18 19
M  V30 19 1 19 20
M  V30 20 2 20 21
M  V30 21 1 20 22
M  V30 22 1 19 23
M  V30 23 2 23 24
M  V30 24 1 14 25
M  V30 25 2 25 26
M  V30 26 1 25 27
M  V30 27 1 5 28
M  V30 28 2 28 29
M  V30 29 1 29 2
M  V30 30 1 27 10
M  V30 31 1 24 16
M  V30 32 1 1 30
M  V30 33 1 1 31
M  V30 34 1 1 32
M  V30 35 1 3 33
M  V30 36 1 4 34
M  V30 37 1 9 35
M  V30 38 1 9 36
M  V30 39 1 11 37
M  V30 40 1 11 38
M  V30 41 1 12 39
M  V30 42 1 13 40
M  V30 43 1 13 41
M  V30 44 1 15 42
M  V30 45 1 17 43
M  V30 46 1 18 44
M  V30 47 1 23 45
M  V30 48 1 24 46
M  V30 49 1 28 47
M  V30 50 1 29 48
M  V30 END BOND
M  V30 END CTAB
M  END
>  <Dataset>  (782) 
ChEMBL_Kinases

>  <Ligand_Instance>  (782) 
nan

>  <PDB_ID>  (782) 
nan

>  <Standardized_SMILES>  (782) 
Cc1ccc(C(=O)OCC2(CO)C/C(=C/c3ccc([N+](=O)[O-])cc3)C(=O)O2)cc1

>  <Name>  (782) 
nan

>  <Pocket>  (782) 
nan

>  <ATP_Site>  (782) 
nan

>  <Peripheral>  (782) 
nan

>  <Num_H_Atoms_ProtBoundConf>  (782) 
nan

>  <Num_Resolved_Atoms>  (782) 
nan

>  <Num_Not_Resolved_Atoms>  (782) 
nan

$$$$
CHEMBL402468
     RDKit          3D

  0  0  0  0  0  0  0  0  0  0999 V3000
M  V30 BEGIN CTAB
M  V30 COUNTS 26 27 0 0 0
M  V30 BEGIN ATOM
M  V30 1 C -2.459234 -0.831517 3.285736 0
M  V30 2 O -1.182480 -0.243460 3.121172 0
M  V30 3 C -0.573518 -0.260353 1.873535 0
M  V30 4 C 0.705723 -0.668569 1.875198 0
M  V30 5 O 1.212373 -1.004846 3.104348 0
M  V30 6 C 2.568960 -1.038476 3.465628 0
M  V30 7 C 1.420773 -0.716085 0.605006 0
M  V30 8 O 2.617763 -1.102001 0.634307 0
M  V30 9 C 0.815412 -0.341968 -0.668853 0
M  V30 10 C 1.584328 -0.423968 -1.817236 0
M  V30 11 C 0.954593 -0.056698 -2.988207 0
M  V30 12 C -0.358565 0.365464 -3.011872 0
M  V30 13 C -1.083544 0.428910 -1.831519 0
M  V30 14 C -0.500559 0.072433 -0.631617 0
M  V30 15 C -1.232434 0.126654 0.629148 0
M  V30 16 O -2.417299 0.498771 0.669721 0
M  V30 17 H -2.750399 -0.701174 4.365285 0
M  V30 18 H -3.240263 -0.293683 2.708975 0
M  V30 19 H -2.468541 -1.908476 3.042591 0
M  V30 20 H 2.679030 -1.351240 4.544786 0
M  V30 21 H 3.075342 -0.056686 3.365697 0
M  V30 22 H 3.156261 -1.748483 2.814947 0
M  V30 23 H 2.621441 -0.759971 -1.780382 0
M  V30 24 H 1.568738 -0.122993 -3.899840 0
M  V30 25 H -0.816918 0.645889 -3.956372 0
M  V30 26 H -2.121027 0.755598 -1.802038 0
M  V30 END ATOM
M  V30 BEGIN BOND
M  V30 1 1 1 2
M  V30 2 1 2 3
M  V30 3 2 3 4
M  V30 4 1 4 5
M  V30 5 1 5 6
M  V30 6 1 4 7
M  V30 7 2 7 8
M  V30 8 1 7 9
M  V30 9 2 9 10
M  V30 10 1 10 11
M  V30 11 2 11 12
M  V30 12 1 12 13
M  V30 13 2 13 14
M  V30 14 1 14 15
M  V30 15 2 15 16
M  V30 16 1 15 3
M  V30 17 1 14 9
M  V30 18 1 1 17
M  V30 19 1 1 18
M  V30 20 1 1 19
M  V30 21 1 6 20
M  V30 22 1 6 21
M  V30 23 1 6 22
M  V30 24 1 10 23
M  V30 25 1 11 24
M  V30 26 1 12 25
M  V30 27 1 13 26
M  V30 END BOND
M  V30 END CTAB
M  END
>  <Dataset>  (783) 
ChEMBL_Kinases

>  <Ligand_Instance>  (783) 
nan

>  <PDB_ID>  (783) 
nan

>  <Standardized_SMILES>  (783) 
COC1=C(OC)C(=O)c2ccccc2C1=O

>  <Name>  (783) 
nan

>  <Pocket>  (783) 
nan

>  <ATP_Site>  (783) 
nan

>  <Peripheral>  (783) 
nan

>  <Num_H_Atoms_ProtBoundConf>  (783) 
nan

>  <Num_Resolved_Atoms>  (783) 
nan

>  <Num_Not_Resolved_Atoms>  (783) 
nan

$$$$
CHEMBL402443
     RDKit          3D

  0  0  0  0  0  0  0  0  0  0999 V3000
M  V30 BEGIN CTAB
M  V30 COUNTS 27 29 0 0 0
M  V30 BEGIN ATOM
M  V30 1 C -0.800930 -3.484242 0.185919 0
M  V30 2 O -0.368188 -2.154540 0.344886 0
M  V30 3 C 0.388414 -1.827188 1.438566 0
M  V30 4 C 0.716294 -2.784239 2.371363 0
M  V30 5 C 1.466756 -2.525652 3.496525 0
M  V30 6 N 1.880164 -1.257431 3.653155 0
M  V30 7 C 1.569136 -0.314826 2.753254 0
M  V30 8 N 1.848084 0.996441 2.718457 0
M  V30 9 C 1.306948 1.552072 1.623280 0
M  V30 10 C 0.626039 0.581678 0.868345 0
M  V30 11 C -0.063733 0.938252 -0.342834 0
M  V30 12 C -0.325951 0.266594 -1.485176 0
M  V30 13 C -0.953516 0.732632 -2.612335 0
M  V30 14 N -1.358525 2.035658 -2.568486 0
M  V30 15 C -1.124313 2.755584 -1.460604 0
M  V30 16 N -0.505511 2.227809 -0.399899 0
M  V30 17 C 0.828511 -0.541467 1.627515 0
M  V30 18 H 0.070174 -4.184672 0.035966 0
M  V30 19 H -1.327126 -3.853017 1.089306 0
M  V30 20 H -1.414136 -3.588942 -0.731787 0
M  V30 21 H 0.370833 -3.787646 2.218050 0
M  V30 22 H 1.737145 -3.261571 4.243044 0
M  V30 23 H 2.410462 1.484275 3.456347 0
M  V30 24 H 1.433519 2.625868 1.429450 0
M  V30 25 H 0.004312 -0.727677 -1.591720 0
M  V30 26 H -1.127757 0.147287 -3.476134 0
M  V30 27 H -1.441446 3.804600 -1.406221 0
M  V30 END ATOM
M  V30 BEGIN BOND
M  V30 1 1 1 2
M  V30 2 1 2 3
M  V30 3 2 3 4
M  V30 4 1 4 5
M  V30 5 2 5 6
M  V30 6 1 6 7
M  V30 7 1 7 8
M  V30 8 1 8 9
M  V30 9 2 9 10
M  V30 10 1 10 11
M  V30 11 2 11 12
M  V30 12 1 12 13
M  V30 13 2 13 14
M  V30 14 1 14 15
M  V30 15 2 15 16
M  V30 16 1 10 17
M  V30 17 1 17 3
M  V30 18 2 17 7
M  V30 19 1 16 11
M  V30 20 1 1 18
M  V30 21 1 1 19
M  V30 22 1 1 20
M  V30 23 1 4 21
M  V30 24 1 5 22
M  V30 25 1 8 23
M  V30 26 1 9 24
M  V30 27 1 12 25
M  V30 28 1 13 26
M  V30 29 1 15 27
M  V30 END BOND
M  V30 END CTAB
M  END
>  <Dataset>  (784) 
ChEMBL_Kinases

>  <Ligand_Instance>  (784) 
nan

>  <PDB_ID>  (784) 
nan

>  <Standardized_SMILES>  (784) 
COc1ccnc2[nH]cc(-c3ccncn3)c12

>  <Name>  (784) 
nan

>  <Pocket>  (784) 
nan

>  <ATP_Site>  (784) 
nan

>  <Peripheral>  (784) 
nan

>  <Num_H_Atoms_ProtBoundConf>  (784) 
nan

>  <Num_Resolved_Atoms>  (784) 
nan

>  <Num_Not_Resolved_Atoms>  (784) 
nan

$$$$
CHEMBL4865220
     RDKit          3D

  0  0  0  0  0  0  0  0  0  0999 V3000
M  V30 BEGIN CTAB
M  V30 COUNTS 76 80 0 0 0
M  V30 BEGIN ATOM
M  V30 1 C 0.946037 -3.941298 6.963740 0
M  V30 2 C -0.328574 -3.638621 6.786796 0
M  V30 3 C -0.849745 -3.177839 5.520474 0
M  V30 4 O -0.106919 -3.045076 4.524170 0
M  V30 5 N -2.215951 -2.865755 5.375550 0
M  V30 6 C -2.602034 -2.427257 4.085255 0
M  V30 7 C -3.021302 -3.321690 3.127019 0
M  V30 8 C -3.394160 -2.856038 1.866596 0
M  V30 9 C -3.322867 -1.485782 1.635071 0
M  V30 10 C -2.893445 -0.585502 2.621054 0
M  V30 11 N -2.936297 0.721587 2.074394 0
M  V30 12 C -4.144537 1.457570 2.237079 0
M  V30 13 O -5.176922 1.059999 2.836132 0
M  V30 14 O -4.263467 2.743570 1.709147 0
M  V30 15 C -3.262711 3.403019 1.010233 0
M  V30 16 C -2.999711 4.766860 1.600674 0
M  V30 17 C -2.559848 4.744916 3.028880 0
M  V30 18 C -4.292082 5.558880 1.502377 0
M  V30 19 C -2.022294 2.619143 0.847402 0
M  V30 20 C -0.961725 3.168602 0.157413 0
M  V30 21 N 0.191240 2.452930 0.000951 0
M  V30 22 C 0.294100 1.215426 0.518136 0
M  V30 23 N 1.567400 0.671252 0.225129 0
M  V30 24 C 1.838021 -0.374751 -0.728775 0
M  V30 25 C 0.719912 -0.943259 -1.351738 0
M  V30 26 C 0.977947 -1.965066 -2.246060 0
M  V30 27 C 2.224264 -2.460920 -2.568555 0
M  V30 28 N 2.420234 -3.511134 -3.476801 0
M  V30 29 C 1.367981 -4.319607 -4.019058 0
M  V30 30 C 1.243826 -4.054189 -5.505004 0
M  V30 31 N 2.490603 -3.548166 -6.043681 0
M  V30 32 C 2.605884 -2.122845 -5.934931 0
M  V30 33 C 3.612078 -4.226116 -5.451288 0
M  V30 34 C 3.723310 -3.893435 -3.976886 0
M  V30 35 C 3.252216 -1.832688 -1.901794 0
M  V30 36 C 3.144187 -0.805791 -0.988161 0
M  V30 37 O 4.089128 -0.228936 -0.376798 0
M  V30 38 C 5.108300 0.324273 0.220571 0
M  V30 39 N -0.732093 0.646675 1.202146 0
M  V30 40 C -1.874336 1.343156 1.362076 0
M  V30 41 C -2.530960 -1.070739 3.857501 0
M  V30 42 H 1.322469 -4.290946 7.935403 0
M  V30 43 H 1.615633 -3.836564 6.123620 0
M  V30 44 H -1.000982 -3.747973 7.645576 0
M  V30 45 H -2.895459 -2.951120 6.159699 0
M  V30 46 H -3.056160 -4.385049 3.366007 0
M  V30 47 H -3.712251 -3.601864 1.163114 0
M  V30 48 H -3.642540 -1.274937 0.617073 0
M  V30 49 H -3.641307 3.602039 -0.026233 0
M  V30 50 H -2.252044 5.324819 1.009272 0
M  V30 51 H -3.028954 3.974413 3.653742 0
M  V30 52 H -1.436720 4.710381 3.100130 0
M  V30 53 H -2.836025 5.724306 3.492059 0
M  V30 54 H -4.203241 6.554768 1.984361 0
M  V30 55 H -4.564507 5.755129 0.455171 0
M  V30 56 H -5.114437 5.021148 1.992658 0
M  V30 57 H -1.091409 4.176867 -0.244180 0
M  V30 58 H 2.362978 1.093568 0.771416 0
M  V30 59 H -0.275415 -0.590735 -1.134626 0
M  V30 60 H 0.085457 -2.368117 -2.698506 0
M  V30 61 H 0.399999 -4.185472 -3.525152 0
M  V30 62 H 1.625546 -5.415615 -3.931359 0
M  V30 63 H 1.004449 -5.007224 -6.061990 0
M  V30 64 H 0.413115 -3.356321 -5.737585 0
M  V30 65 H 2.463296 -1.693565 -6.948992 0
M  V30 66 H 3.570737 -1.840261 -5.504598 0
M  V30 67 H 1.766862 -1.715356 -5.331075 0
M  V30 68 H 4.542636 -3.889210 -5.938410 0
M  V30 69 H 3.455615 -5.321789 -5.548899 0
M  V30 70 H 4.467418 -3.064485 -3.848813 0
M  V30 71 H 4.044868 -4.801996 -3.391172 0
M  V30 72 H 4.287262 -2.133987 -2.067811 0
M  V30 73 H 4.987777 0.535988 1.337075 0
M  V30 74 H 5.371821 1.343686 -0.207288 0
M  V30 75 H 6.093993 -0.243625 0.185108 0
M  V30 76 H -2.222563 -0.276085 4.516227 0
M  V30 END ATOM
M  V30 BEGIN BOND
M  V30 1 2 1 2
M  V30 2 1 2 3
M  V30 3 2 3 4
M  V30 4 1 3 5
M  V30 5 1 5 6
M  V30 6 2 6 7
M  V30 7 1 7 8
M  V30 8 2 8 9
M  V30 9 1 9 10
M  V30 10 1 10 11
M  V30 11 1 11 12
M  V30 12 2 12 13
M  V30 13 1 12 14
M  V30 14 1 14 15
M  V30 15 1 15 16
M  V30 16 1 16 17
M  V30 17 1 16 18
M  V30 18 1 15 19
M  V30 19 2 19 20
M  V30 20 1 20 21
M  V30 21 2 21 22
M  V30 22 1 22 23
M  V30 23 1 23 24
M  V30 24 2 24 25
M  V30 25 1 25 26
M  V30 26 2 26 27
M  V30 27 1 27 28
M  V30 28 1 28 29
M  V30 29 1 29 30
M  V30 30 1 30 31
M  V30 31 1 31 32
M  V30 32 1 31 33
M  V30 33 1 33 34
M  V30 34 1 27 35
M  V30 35 2 35 36
M  V30 36 1 36 37
M  V30 37 1 37 38
M  V30 38 1 22 39
M  V30 39 2 39 40
M  V30 40 2 10 41
M  V30 41 1 41 6
M  V30 42 1 40 11
M  V30 43 1 40 19
M  V30 44 1 36 24
M  V30 45 1 34 28
M  V30 46 1 1 42
M  V30 47 1 1 43
M  V30 48 1 2 44
M  V30 49 1 5 45
M  V30 50 1 7 46
M  V30 51 1 8 47
M  V30 52 1 9 48
M  V30 53 1 15 49
M  V30 54 1 16 50
M  V30 55 1 17 51
M  V30 56 1 17 52
M  V30 57 1 17 53
M  V30 58 1 18 54
M  V30 59 1 18 55
M  V30 60 1 18 56
M  V30 61 1 20 57
M  V30 62 1 23 58
M  V30 63 1 25 59
M  V30 64 1 26 60
M  V30 65 1 29 61
M  V30 66 1 29 62
M  V30 67 1 30 63
M  V30 68 1 30 64
M  V30 69 1 32 65
M  V30 70 1 32 66
M  V30 71 1 32 67
M  V30 72 1 33 68
M  V30 73 1 33 69
M  V30 74 1 34 70
M  V30 75 1 34 71
M  V30 76 1 35 72
M  V30 77 1 38 73
M  V30 78 1 38 74
M  V30 79 1 38 75
M  V30 80 1 41 76
M  V30 END BOND
M  V30 END CTAB
M  END
>  <Dataset>  (785) 
ChEMBL_Kinases

>  <Ligand_Instance>  (785) 
nan

>  <PDB_ID>  (785) 
nan

>  <Standardized_SMILES>  (785) 
C=CC(=O)Nc1cccc(N2C(=O)OC(C(C)C)c3cnc(Nc4ccc(N5CCN(C)CC5)cc4OC)nc32)c1

>  <Name>  (785) 
nan

>  <Pocket>  (785) 
nan

>  <ATP_Site>  (785) 
nan

>  <Peripheral>  (785) 
nan

>  <Num_H_Atoms_ProtBoundConf>  (785) 
nan

>  <Num_Resolved_Atoms>  (785) 
nan

>  <Num_Not_Resolved_Atoms>  (785) 
nan

$$$$
CHEMBL4864568
     RDKit          3D

  0  0  0  0  0  0  0  0  0  0999 V3000
M  V30 BEGIN CTAB
M  V30 COUNTS 61 64 0 0 0
M  V30 BEGIN ATOM
M  V30 1 C 1.449350 -0.604506 3.821914 0
M  V30 2 O 2.485721 -0.564013 2.859322 0
M  V30 3 C 2.998303 0.724547 2.886683 0
M  V30 4 C 4.096883 0.919618 1.922790 0
M  V30 5 C 5.396975 0.980695 2.434833 0
M  V30 6 C 6.420477 1.189467 1.538205 0
M  V30 7 C 6.282354 1.344108 0.179164 0
M  V30 8 C 5.014879 1.280604 -0.294605 0
M  V30 9 C 3.933216 1.071675 0.553766 0
M  V30 10 N 2.621472 1.003107 0.106303 0
M  V30 11 C 1.271479 1.348055 0.022862 0
M  V30 12 N 0.364094 0.565695 0.679138 0
M  V30 13 C -0.954851 0.858798 0.626570 0
M  V30 14 N -2.113190 0.265480 1.192560 0
M  V30 15 C -2.658424 -1.004035 0.764696 0
M  V30 16 C -1.935950 -1.752228 -0.158801 0
M  V30 17 C -2.332470 -3.008895 -0.635113 0
M  V30 18 C -3.520836 -3.444095 -0.098778 0
M  V30 19 C -4.275689 -2.756985 0.810298 0
M  V30 20 C -3.867897 -1.529152 1.262175 0
M  V30 21 O -4.455581 -0.674425 2.156868 0
M  V30 22 C -5.670700 -0.976887 2.782530 0
M  V30 23 C -3.918614 -4.798994 -0.616292 0
M  V30 24 C -2.631917 -5.621664 -0.444739 0
M  V30 25 N -1.591802 -5.218406 -1.349065 0
M  V30 26 C -1.502612 -6.025303 -2.529171 0
M  V30 27 C -1.567808 -3.813244 -1.614706 0
M  V30 28 N -1.340895 1.928080 -0.079726 0
M  V30 29 C -0.540302 2.758853 -0.756397 0
M  V30 30 C 0.779303 2.418329 -0.671167 0
M  V30 31 C 1.790189 3.212827 -1.336213 0
M  V30 32 N 1.419659 4.369526 -2.046973 0
M  V30 33 O 2.978722 3.373298 -1.606064 0
M  V30 34 H 1.873373 -0.363623 4.830295 0
M  V30 35 H 0.978460 -1.591627 3.885639 0
M  V30 36 H 0.715314 0.181542 3.527440 0
M  V30 37 H 2.135301 1.406610 2.638292 0
M  V30 38 H 3.347867 0.976993 3.925773 0
M  V30 39 H 5.588193 0.865839 3.506171 0
M  V30 40 H 7.402816 1.227193 1.978458 0
M  V30 41 H 7.143358 1.504599 -0.453288 0
M  V30 42 H 4.861626 1.397745 -1.375490 0
M  V30 43 H 2.623352 0.219860 -0.617447 0
M  V30 44 H -2.615254 0.763687 1.961028 0
M  V30 45 H -0.989773 -1.344212 -0.551695 0
M  V30 46 H -5.185598 -3.150806 1.188009 0
M  V30 47 H -6.069799 -1.948776 2.489073 0
M  V30 48 H -6.424414 -0.157071 2.607141 0
M  V30 49 H -5.451199 -1.043886 3.889555 0
M  V30 50 H -4.224591 -4.762473 -1.662447 0
M  V30 51 H -4.646837 -5.232968 0.084053 0
M  V30 52 H -2.821465 -6.695775 -0.496540 0
M  V30 53 H -2.255492 -5.360011 0.587577 0
M  V30 54 H -0.820164 -6.914070 -2.397011 0
M  V30 55 H -1.107708 -5.472150 -3.401041 0
M  V30 56 H -2.519241 -6.428615 -2.799226 0
M  V30 57 H -2.075077 -3.676129 -2.617613 0
M  V30 58 H -0.538703 -3.414387 -1.755371 0
M  V30 59 H -0.799105 3.625615 -1.335074 0
M  V30 60 H 1.142857 5.248612 -2.502843 0
M  V30 61 H 1.280551 4.657739 -3.060856 0
M  V30 END ATOM
M  V30 BEGIN BOND
M  V30 1 1 1 2
M  V30 2 1 2 3
M  V30 3 1 3 4
M  V30 4 2 4 5
M  V30 5 1 5 6
M  V30 6 2 6 7
M  V30 7 1 7 8
M  V30 8 2 8 9
M  V30 9 1 9 10
M  V30 10 1 10 11
M  V30 11 2 11 12
M  V30 12 1 12 13
M  V30 13 1 13 14
M  V30 14 1 14 15
M  V30 15 2 15 16
M  V30 16 1 16 17
M  V30 17 2 17 18
M  V30 18 1 18 19
M  V30 19 2 19 20
M  V30 20 1 20 21
M  V30 21 1 21 22
M  V30 22 1 18 23
M  V30 23 1 23 24
M  V30 24 1 24 25
M  V30 25 1 25 26
M  V30 26 1 25 27
M  V30 27 2 13 28
M  V30 28 1 28 29
M  V30 29 2 29 30
M  V30 30 1 30 31
M  V30 31 1 31 32
M  V30 32 2 31 33
M  V30 33 1 9 4
M  V30 34 1 30 11
M  V30 35 1 20 15
M  V30 36 1 27 17
M  V30 37 1 1 34
M  V30 38 1 1 35
M  V30 39 1 1 36
M  V30 40 1 3 37
M  V30 41 1 3 38
M  V30 42 1 5 39
M  V30 43 1 6 40
M  V30 44 1 7 41
M  V30 45 1 8 42
M  V30 46 1 10 43
M  V30 47 1 14 44
M  V30 48 1 16 45
M  V30 49 1 19 46
M  V30 50 1 22 47
M  V30 51 1 22 48
M  V30 52 1 22 49
M  V30 53 1 23 50
M  V30 54 1 23 51
M  V30 55 1 24 52
M  V30 56 1 24 53
M  V30 57 1 26 54
M  V30 58 1 26 55
M  V30 59 1 26 56
M  V30 60 1 27 57
M  V30 61 1 27 58
M  V30 62 1 29 59
M  V30 63 1 32 60
M  V30 64 1 32 61
M  V30 END BOND
M  V30 END CTAB
M  END
>  <Dataset>  (786) 
ChEMBL_Kinases

>  <Ligand_Instance>  (786) 
nan

>  <PDB_ID>  (786) 
nan

>  <Standardized_SMILES>  (786) 
COCc1ccccc1Nc1nc(Nc2cc3c(cc2OC)CCN(C)C3)ncc1C(N)=O

>  <Name>  (786) 
nan

>  <Pocket>  (786) 
nan

>  <ATP_Site>  (786) 
nan

>  <Peripheral>  (786) 
nan

>  <Num_H_Atoms_ProtBoundConf>  (786) 
nan

>  <Num_Resolved_Atoms>  (786) 
nan

>  <Num_Not_Resolved_Atoms>  (786) 
nan

$$$$
CHEMBL4864618
     RDKit          3D

  0  0  0  0  0  0  0  0  0  0999 V3000
M  V30 BEGIN CTAB
M  V30 COUNTS 58 60 0 0 0
M  V30 BEGIN ATOM
M  V30 1 N -2.272566 -2.851886 5.442043 0
M  V30 2 C -1.990350 -3.262537 4.125675 0
M  V30 3 O -2.195700 -4.437626 4.438330 0
M  V30 4 C -1.622112 -2.375932 3.030666 0
M  V30 5 C -1.561034 -1.042211 3.367783 0
M  V30 6 N -1.223312 -0.198476 2.376786 0
M  V30 7 C -0.964772 -0.648198 1.139141 0
M  V30 8 N -0.606937 0.273564 0.099461 0
M  V30 9 C -0.521754 1.695370 0.381599 0 CFG=1
M  V30 10 C 0.514081 1.900248 1.421925 0
M  V30 11 C 1.188616 3.243127 1.419393 0
M  V30 12 C 1.743225 3.446379 0.000205 0 CFG=2
M  V30 13 O 2.566919 4.526827 -0.076688 0
M  V30 14 C 3.830670 4.351174 -0.546814 0
M  V30 15 C 4.728167 3.443605 0.216498 0
M  V30 16 F 4.251206 2.158036 0.304219 0
M  V30 17 F 5.069690 3.957105 1.453066 0
M  V30 18 F 5.944058 3.336562 -0.474137 0
M  V30 19 C 0.469820 3.687912 -0.827137 0
M  V30 20 C -0.307224 2.407007 -0.922623 0
M  V30 21 N -1.044117 -1.960955 0.884785 0
M  V30 22 C -1.369143 -2.900984 1.782653 0
M  V30 23 N -1.443278 -4.285151 1.469865 0
M  V30 24 C -1.166482 -4.788723 0.145432 0 CFG=2
M  V30 25 C 0.226063 -4.478971 -0.279379 0
M  V30 26 C 0.455884 -4.592796 -1.754226 0
M  V30 27 C -0.663764 -4.116171 -2.615146 0
M  V30 28 C -1.994818 -4.724866 -2.182038 0 CFG=2
M  V30 29 O -3.005978 -4.113067 -2.955774 0
M  V30 30 C -2.216457 -4.196220 -0.768075 0
M  V30 31 H -3.177633 -2.566558 5.908855 0
M  V30 32 H -1.663709 -2.725273 6.285678 0
M  V30 33 H -1.766559 -0.670900 4.357578 0
M  V30 34 H -0.411510 -0.113115 -0.860076 0
M  V30 35 H -1.531824 1.951385 0.819694 0
M  V30 36 H 1.291756 1.118151 1.415137 0
M  V30 37 H 0.026858 1.816023 2.437246 0
M  V30 38 H 0.398991 4.029215 1.571229 0
M  V30 39 H 1.964526 3.246123 2.184114 0
M  V30 40 H 2.123044 2.484410 -0.329386 0
M  V30 41 H 4.312447 5.375449 -0.542487 0
M  V30 42 H 3.776740 4.085478 -1.628292 0
M  V30 43 H -0.084686 4.528976 -0.385124 0
M  V30 44 H 0.797010 3.977550 -1.832310 0
M  V30 45 H -1.305706 2.645079 -1.344000 0
M  V30 46 H 0.195310 1.758352 -1.689827 0
M  V30 47 H -1.707352 -4.945775 2.232115 0
M  V30 48 H -1.335377 -5.878886 0.129735 0
M  V30 49 H 0.887947 -5.265141 0.192231 0
M  V30 50 H 0.573263 -3.529748 0.146302 0
M  V30 51 H 1.359132 -3.983639 -2.006126 0
M  V30 52 H 0.708942 -5.632027 -2.060030 0
M  V30 53 H -0.790550 -3.022396 -2.619330 0
M  V30 54 H -0.440389 -4.445474 -3.653368 0
M  V30 55 H -2.019535 -5.816899 -2.251547 0
M  V30 56 H -3.855917 -4.315995 -2.477107 0
M  V30 57 H -2.192655 -3.110767 -0.851682 0
M  V30 58 H -3.206558 -4.483598 -0.359445 0
M  V30 END ATOM
M  V30 BEGIN BOND
M  V30 1 1 1 2
M  V30 2 2 2 3
M  V30 3 1 2 4
M  V30 4 2 4 5
M  V30 5 1 5 6
M  V30 6 2 6 7
M  V30 7 1 7 8
M  V30 8 1 8 9
M  V30 9 1 9 10
M  V30 10 1 10 11
M  V30 11 1 11 12
M  V30 12 1 12 13
M  V30 13 1 13 14
M  V30 14 1 14 15
M  V30 15 1 15 16
M  V30 16 1 15 17
M  V30 17 1 15 18
M  V30 18 1 12 19
M  V30 19 1 19 20
M  V30 20 1 7 21
M  V30 21 2 21 22
M  V30 22 1 22 23
M  V30 23 1 23 24
M  V30 24 1 24 25
M  V30 25 1 25 26
M  V30 26 1 26 27
M  V30 27 1 27 28
M  V30 28 1 28 29
M  V30 29 1 28 30
M  V30 30 1 22 4
M  V30 31 1 30 24
M  V30 32 1 20 9
M  V30 33 1 1 31
M  V30 34 1 1 32
M  V30 35 1 5 33
M  V30 36 1 8 34
M  V30 37 1 9 35 CFG=1
M  V30 38 1 10 36
M  V30 39 1 10 37
M  V30 40 1 11 38
M  V30 41 1 11 39
M  V30 42 1 12 40 CFG=3
M  V30 43 1 14 41
M  V30 44 1 14 42
M  V30 45 1 19 43
M  V30 46 1 19 44
M  V30 47 1 20 45
M  V30 48 1 20 46
M  V30 49 1 23 47
M  V30 50 1 24 48 CFG=1
M  V30 51 1 25 49
M  V30 52 1 25 50
M  V30 53 1 26 51
M  V30 54 1 26 52
M  V30 55 1 27 53
M  V30 56 1 27 54
M  V30 57 1 28 55 CFG=1
M  V30 58 1 29 56
M  V30 59 1 30 57
M  V30 60 1 30 58
M  V30 END BOND
M  V30 END CTAB
M  END
>  <Dataset>  (787) 
ChEMBL_Kinases

>  <Ligand_Instance>  (787) 
nan

>  <PDB_ID>  (787) 
nan

>  <Standardized_SMILES>  (787) 
NC(=O)c1cnc(N[C@H]2CC[C@H](OCC(F)(F)F)CC2)nc1N[C@@H]1CCC[C@H](O)C1

>  <Name>  (787) 
nan

>  <Pocket>  (787) 
nan

>  <ATP_Site>  (787) 
nan

>  <Peripheral>  (787) 
nan

>  <Num_H_Atoms_ProtBoundConf>  (787) 
nan

>  <Num_Resolved_Atoms>  (787) 
nan

>  <Num_Not_Resolved_Atoms>  (787) 
nan

$$$$
CHEMBL4864738
     RDKit          3D

  0  0  0  0  0  0  0  0  0  0999 V3000
M  V30 BEGIN CTAB
M  V30 COUNTS 42 43 0 0 0
M  V30 BEGIN ATOM
M  V30 1 C -0.691328 -3.912897 3.306397 0
M  V30 2 C -0.687899 -2.551066 2.734864 0
M  V30 3 C 0.434842 -2.218646 2.006192 0
M  V30 4 C 0.563460 -0.994991 1.429924 0
M  V30 5 N 1.723287 -0.660547 0.680909 0
M  V30 6 C 1.848030 -0.885371 -0.722848 0
M  V30 7 O 0.731518 -1.414375 -1.052294 0
M  V30 8 C 3.123284 -0.476737 -1.327718 0 CFG=2
M  V30 9 N 4.036676 0.114170 -0.382642 0
M  V30 10 C 2.919996 0.323923 -2.551733 0
M  V30 11 C 2.191152 1.603279 -2.472064 0
M  V30 12 C 0.775752 1.529769 -1.993118 0
M  V30 13 C 2.970076 2.695130 -1.752148 0
M  V30 14 C -0.479468 -0.118868 1.614286 0
M  V30 15 C -1.581888 -0.480983 2.344558 0
M  V30 16 C -1.747926 -1.710895 2.943022 0
M  V30 17 C -2.952978 -1.996751 3.690768 0
M  V30 18 C -3.461972 -3.058590 4.382204 0
M  V30 19 N -4.655359 -2.751546 4.886856 0
M  V30 20 C -4.911286 -1.487322 4.516581 0
M  V30 21 O -3.890948 -1.101670 3.826325 0
M  V30 22 H -0.712574 -3.825991 4.408210 0
M  V30 23 H -1.474108 -4.544820 2.883876 0
M  V30 24 H 0.268898 -4.449685 3.098393 0
M  V30 25 H 1.241487 -2.913678 1.870793 0
M  V30 26 H 2.428002 -0.235312 1.352144 0
M  V30 27 H 3.616038 -1.450739 -1.650676 0
M  V30 28 H 5.021213 -0.020969 -0.598240 0
M  V30 29 H 3.732528 0.967693 0.077420 0
M  V30 30 H 2.399571 -0.284781 -3.362926 0
M  V30 31 H 3.919863 0.538454 -3.055526 0
M  V30 32 H 2.120289 1.993398 -3.537817 0
M  V30 33 H 0.173634 0.771723 -2.537117 0
M  V30 34 H 0.670344 1.314477 -0.913772 0
M  V30 35 H 0.256745 2.520367 -2.212850 0
M  V30 36 H 2.867364 3.679900 -2.261198 0
M  V30 37 H 2.548653 2.890040 -0.722703 0
M  V30 38 H 4.060352 2.500781 -1.736460 0
M  V30 39 H -0.418385 0.858547 1.175884 0
M  V30 40 H -2.356561 0.298484 2.428006 0
M  V30 41 H -2.984181 -4.000463 4.505837 0
M  V30 42 H -5.771301 -0.844989 4.712113 0
M  V30 END ATOM
M  V30 BEGIN BOND
M  V30 1 1 1 2
M  V30 2 2 2 3
M  V30 3 1 3 4
M  V30 4 1 4 5
M  V30 5 1 5 6
M  V30 6 2 6 7
M  V30 7 1 6 8
M  V30 8 1 8 9
M  V30 9 1 8 10
M  V30 10 1 10 11
M  V30 11 1 11 12
M  V30 12 1 11 13
M  V30 13 2 4 14
M  V30 14 1 14 15
M  V30 15 2 15 16
M  V30 16 1 16 17
M  V30 17 2 17 18
M  V30 18 1 18 19
M  V30 19 2 19 20
M  V30 20 1 20 21
M  V30 21 1 16 2
M  V30 22 1 21 17
M  V30 23 1 1 22
M  V30 24 1 1 23
M  V30 25 1 1 24
M  V30 26 1 3 25
M  V30 27 1 5 26
M  V30 28 1 8 27 CFG=3
M  V30 29 1 9 28
M  V30 30 1 9 29
M  V30 31 1 10 30
M  V30 32 1 10 31
M  V30 33 1 11 32
M  V30 34 1 12 33
M  V30 35 1 12 34
M  V30 36 1 12 35
M  V30 37 1 13 36
M  V30 38 1 13 37
M  V30 39 1 13 38
M  V30 40 1 14 39
M  V30 41 1 15 40
M  V30 42 1 18 41
M  V30 43 1 20 42
M  V30 END BOND
M  V30 END CTAB
M  END
>  <Dataset>  (788) 
ChEMBL_Kinases

>  <Ligand_Instance>  (788) 
nan

>  <PDB_ID>  (788) 
nan

>  <Standardized_SMILES>  (788) 
Cc1cc(NC(=O)[C@H](N)CC(C)C)ccc1-c1cnco1

>  <Name>  (788) 
nan

>  <Pocket>  (788) 
nan

>  <ATP_Site>  (788) 
nan

>  <Peripheral>  (788) 
nan

>  <Num_H_Atoms_ProtBoundConf>  (788) 
nan

>  <Num_Resolved_Atoms>  (788) 
nan

>  <Num_Not_Resolved_Atoms>  (788) 
nan

$$$$
CHEMBL4864799
     RDKit          3D

  0  0  0  0  0  0  0  0  0  0999 V3000
M  V30 BEGIN CTAB
M  V30 COUNTS 50 54 0 0 0
M  V30 BEGIN ATOM
M  V30 1 C -0.649453 -4.095350 3.470167 0
M  V30 2 C 0.253887 -4.239770 2.242034 0 CFG=2
M  V30 3 N 0.840925 -2.998376 1.864505 0
M  V30 4 C 2.213738 -2.704081 1.756388 0
M  V30 5 O 2.802859 -3.789698 2.069862 0
M  V30 6 C 3.014568 -1.572714 1.408351 0
M  V30 7 C 4.378034 -1.742755 1.438149 0
M  V30 8 N 4.949330 -0.560890 1.078510 0
M  V30 9 C 4.010229 0.359897 0.819291 0
M  V30 10 C 4.002065 1.681523 0.426969 0
M  V30 11 C 2.808701 2.359133 0.243893 0
M  V30 12 C 1.637942 1.663851 0.468210 0
M  V30 13 C 0.369919 2.373496 0.277087 0
M  V30 14 C -0.740345 2.048361 1.030444 0
M  V30 15 C -1.986185 2.639652 0.946206 0
M  V30 16 C -2.090169 3.651623 0.003294 0
M  V30 17 N -3.286624 4.275299 -0.131840 0
M  V30 18 C -3.480423 5.268689 -1.021346 0
M  V30 19 C -2.417505 5.661429 -1.821878 0
M  V30 20 C -1.181478 5.055766 -1.719851 0
M  V30 21 C -1.011956 4.029281 -0.788541 0
M  V30 22 C 0.218944 3.389763 -0.651561 0
M  V30 23 C 1.704231 0.345134 0.858756 0
M  V30 24 N 2.863827 -0.299902 1.032619 0
M  V30 25 C -0.605591 -4.808872 1.143338 0
M  V30 26 C -0.542414 -6.137962 0.787920 0
M  V30 27 C -1.307526 -6.704060 -0.209305 0
M  V30 28 C -2.193146 -5.899015 -0.898905 0
M  V30 29 C -2.263202 -4.569672 -0.550706 0
M  V30 30 C -1.497461 -3.994067 0.450192 0
M  V30 31 H -1.123940 -3.090075 3.452248 0
M  V30 32 H -1.486344 -4.823031 3.423552 0
M  V30 33 H -0.077780 -4.235137 4.400909 0
M  V30 34 H 1.015701 -5.007263 2.459792 0
M  V30 35 H 0.220107 -2.200356 1.636901 0
M  V30 36 H 5.137947 -2.477396 1.644764 0
M  V30 37 H 4.953514 2.189738 0.261682 0
M  V30 38 H 2.824538 3.393737 -0.063568 0
M  V30 39 H -0.642231 1.249494 1.768616 0
M  V30 40 H -2.796706 2.311547 1.584638 0
M  V30 41 H -4.449181 5.742814 -1.100704 0
M  V30 42 H -2.570198 6.461882 -2.539803 0
M  V30 43 H -0.338228 5.339982 -2.328408 0
M  V30 44 H 1.063236 3.678570 -1.264999 0
M  V30 45 H 0.762199 -0.127331 1.013244 0
M  V30 46 H 0.149153 -6.786269 1.320218 0
M  V30 47 H -1.226948 -7.755274 -0.457910 0
M  V30 48 H -2.792875 -6.340040 -1.679852 0
M  V30 49 H -2.954011 -3.926141 -1.083723 0
M  V30 50 H -1.582155 -2.926602 0.699418 0
M  V30 END ATOM
M  V30 BEGIN BOND
M  V30 1 1 1 2
M  V30 2 1 2 3
M  V30 3 1 3 4
M  V30 4 2 4 5
M  V30 5 1 4 6
M  V30 6 2 6 7
M  V30 7 1 7 8
M  V30 8 2 8 9
M  V30 9 1 9 10
M  V30 10 2 10 11
M  V30 11 1 11 12
M  V30 12 1 12 13
M  V30 13 2 13 14
M  V30 14 1 14 15
M  V30 15 2 15 16
M  V30 16 1 16 17
M  V30 17 2 17 18
M  V30 18 1 18 19
M  V30 19 2 19 20
M  V30 20 1 20 21
M  V30 21 2 21 22
M  V30 22 2 12 23
M  V30 23 1 23 24
M  V30 24 1 2 25
M  V30 25 2 25 26
M  V30 26 1 26 27
M  V30 27 2 27 28
M  V30 28 1 28 29
M  V30 29 2 29 30
M  V30 30 1 24 6
M  V30 31 1 30 25
M  V30 32 1 24 9
M  V30 33 1 22 13
M  V30 34 1 21 16
M  V30 35 1 1 31
M  V30 36 1 1 32
M  V30 37 1 1 33
M  V30 38 1 2 34 CFG=1
M  V30 39 1 3 35
M  V30 40 1 7 36
M  V30 41 1 10 37
M  V30 42 1 11 38
M  V30 43 1 14 39
M  V30 44 1 15 40
M  V30 45 1 18 41
M  V30 46 1 19 42
M  V30 47 1 20 43
M  V30 48 1 22 44
M  V30 49 1 23 45
M  V30 50 1 26 46
M  V30 51 1 27 47
M  V30 52 1 28 48
M  V30 53 1 29 49
M  V30 54 1 30 50
M  V30 END BOND
M  V30 END CTAB
M  END
>  <Dataset>  (789) 
ChEMBL_Kinases

>  <Ligand_Instance>  (789) 
nan

>  <PDB_ID>  (789) 
nan

>  <Standardized_SMILES>  (789) 
C[C@H](NC(=O)c1cnc2ccc(-c3ccc4ncccc4c3)cn12)c1ccccc1

>  <Name>  (789) 
nan

>  <Pocket>  (789) 
nan

>  <ATP_Site>  (789) 
nan

>  <Peripheral>  (789) 
nan

>  <Num_H_Atoms_ProtBoundConf>  (789) 
nan

>  <Num_Resolved_Atoms>  (789) 
nan

>  <Num_Not_Resolved_Atoms>  (789) 
nan

$$$$
CHEMBL4864880
     RDKit          3D

  0  0  0  0  0  0  0  0  0  0999 V3000
M  V30 BEGIN CTAB
M  V30 COUNTS 38 41 0 0 0
M  V30 BEGIN ATOM
M  V30 1 O -2.351975 -1.166087 3.514372 0
M  V30 2 C -1.158762 -0.867673 3.250189 0
M  V30 3 N -0.172854 -0.841801 4.167493 0
M  V30 4 C 1.100878 -0.520660 3.872147 0
M  V30 5 C 1.353748 -0.211522 2.550898 0
M  V30 6 N 2.693291 0.132470 2.208042 0
M  V30 7 C 3.292246 0.497621 0.968193 0
M  V30 8 C 4.319274 -0.164484 0.328132 0
M  V30 9 C 4.817488 0.288803 -0.875640 0
M  V30 10 C 4.287385 1.411528 -1.446049 0
M  V30 11 C 3.269449 2.089931 -0.837213 0
M  V30 12 C 2.762560 1.631997 0.383777 0
M  V30 13 F 1.751850 2.426916 0.848362 0
M  V30 14 C 0.386871 -0.220218 1.565490 0
M  V30 15 C -0.908364 -0.558432 1.925771 0
M  V30 16 C -1.946882 -0.568942 0.873402 0
M  V30 17 C -2.689276 0.556168 0.577830 0
M  V30 18 C -3.644659 0.446312 -0.430721 0
M  V30 19 C -3.821163 -0.760180 -1.095397 0
M  V30 20 C -3.054807 -1.853586 -0.762854 0
M  V30 21 N -3.048883 -3.117748 -1.266657 0
M  V30 22 C -2.109588 -3.833139 -0.607126 0
M  V30 23 C -1.494197 -3.022965 0.340683 0
M  V30 24 C -2.095676 -1.784276 0.233131 0
M  V30 25 H -0.399881 -1.083902 5.171327 0
M  V30 26 H 1.854233 -0.515537 4.648444 0
M  V30 27 H 3.462345 0.160505 2.882461 0
M  V30 28 H 4.685489 -1.053844 0.853366 0
M  V30 29 H 5.622970 -0.259824 -1.343772 0
M  V30 30 H 4.712516 1.739786 -2.405733 0
M  V30 31 H 2.913713 2.963178 -1.358206 0
M  V30 32 H 0.572357 0.018554 0.534503 0
M  V30 33 H -2.514604 1.472571 1.123670 0
M  V30 34 H -4.251493 1.325188 -0.688775 0
M  V30 35 H -4.561050 -0.869240 -1.886135 0
M  V30 36 H -3.636131 -3.537098 -2.028459 0
M  V30 37 H -1.833456 -4.883649 -0.752055 0
M  V30 38 H -0.690241 -3.287856 1.045288 0
M  V30 END ATOM
M  V30 BEGIN BOND
M  V30 1 2 1 2
M  V30 2 1 2 3
M  V30 3 1 3 4
M  V30 4 2 4 5
M  V30 5 1 5 6
M  V30 6 1 6 7
M  V30 7 2 7 8
M  V30 8 1 8 9
M  V30 9 2 9 10
M  V30 10 1 10 11
M  V30 11 2 11 12
M  V30 12 1 12 13
M  V30 13 1 5 14
M  V30 14 2 14 15
M  V30 15 1 15 16
M  V30 16 2 16 17
M  V30 17 1 17 18
M  V30 18 2 18 19
M  V30 19 1 19 20
M  V30 20 1 20 21
M  V30 21 1 21 22
M  V30 22 2 22 23
M  V30 23 1 23 24
M  V30 24 1 15 2
M  V30 25 1 24 16
M  V30 26 1 12 7
M  V30 27 2 24 20
M  V30 28 1 3 25
M  V30 29 1 4 26
M  V30 30 1 6 27
M  V30 31 1 8 28
M  V30 32 1 9 29
M  V30 33 1 10 30
M  V30 34 1 11 31
M  V30 35 1 14 32
M  V30 36 1 17 33
M  V30 37 1 18 34
M  V30 38 1 19 35
M  V30 39 1 21 36
M  V30 40 1 22 37
M  V30 41 1 23 38
M  V30 END BOND
M  V30 END CTAB
M  END
>  <Dataset>  (790) 
ChEMBL_Kinases

>  <Ligand_Instance>  (790) 
nan

>  <PDB_ID>  (790) 
nan

>  <Standardized_SMILES>  (790) 
O=c1[nH]cc(Nc2ccccc2F)cc1-c1cccc2[nH]ccc12

>  <Name>  (790) 
nan

>  <Pocket>  (790) 
nan

>  <ATP_Site>  (790) 
nan

>  <Peripheral>  (790) 
nan

>  <Num_H_Atoms_ProtBoundConf>  (790) 
nan

>  <Num_Resolved_Atoms>  (790) 
nan

>  <Num_Not_Resolved_Atoms>  (790) 
nan

$$$$
CHEMBL4864978
     RDKit          3D

  0  0  0  0  0  0  0  0  0  0999 V3000
M  V30 BEGIN CTAB
M  V30 COUNTS 50 53 0 0 0
M  V30 BEGIN ATOM
M  V30 1 C -4.887288 -4.836946 1.944506 0
M  V30 2 C -3.580588 -4.952232 1.252380 0
M  V30 3 C -2.351928 -4.529980 1.779704 0
M  V30 4 C -1.160470 -4.679537 1.049616 0
M  V30 5 O -0.143649 -4.182826 1.811352 0
M  V30 6 C 0.691018 -3.131667 1.539072 0
M  V30 7 C 1.962796 -2.942774 1.055564 0
M  V30 8 C 2.554340 -1.721171 0.883480 0
M  V30 9 C 1.888789 -0.558525 1.195704 0
M  V30 10 N 2.636374 0.621367 0.961186 0
M  V30 11 C 2.223154 1.955126 1.183758 0
M  V30 12 O 1.104930 2.219608 1.629553 0
M  V30 13 N 3.024520 3.097631 0.926612 0
M  V30 14 C 2.464564 4.398481 1.204513 0
M  V30 15 C 2.561083 5.066870 2.403187 0
M  V30 16 C 1.963898 6.310966 2.499596 0
M  V30 17 C 1.298239 6.844381 1.415333 0
M  V30 18 C 1.198612 6.173207 0.204230 0
M  V30 19 C 0.474794 6.769459 -0.952090 0
M  V30 20 F 1.002388 6.296524 -2.144099 0
M  V30 21 F 0.576994 8.128157 -0.897830 0
M  V30 22 F -0.840253 6.356792 -0.928204 0
M  V30 23 C 1.798389 4.916164 0.096863 0
M  V30 24 C 0.610184 -0.675876 1.685634 0
M  V30 25 C 0.017551 -1.935982 1.856143 0
M  V30 26 C -1.315646 -5.260541 -0.186683 0
M  V30 27 C -0.102280 -5.372490 -0.823091 0
M  V30 28 C -0.060209 -5.938371 -2.077927 0
M  V30 29 C -1.260366 -6.370159 -2.637717 0
M  V30 30 C -2.454317 -6.232270 -1.949094 0
M  V30 31 C -2.526467 -5.669957 -0.691867 0
M  V30 32 N -3.657724 -5.520025 0.017571 0
M  V30 33 H -4.741045 -4.559080 3.009782 0
M  V30 34 H -5.369902 -5.844543 1.855357 0
M  V30 35 H -5.506431 -4.077949 1.446161 0
M  V30 36 H -2.513999 -4.102898 2.782270 0
M  V30 37 H 2.422382 -3.891832 0.842196 0
M  V30 38 H 3.558458 -1.799163 0.490788 0
M  V30 39 H 3.608988 0.602068 0.583331 0
M  V30 40 H 4.004034 2.947881 0.539958 0
M  V30 41 H 3.108294 4.553034 3.189285 0
M  V30 42 H 2.061836 6.800899 3.452948 0
M  V30 43 H 0.830455 7.834168 1.512175 0
M  V30 44 H 1.696924 4.435983 -0.852550 0
M  V30 45 H 0.105500 0.226328 1.923525 0
M  V30 46 H -1.002613 -1.840322 2.255939 0
M  V30 47 H 0.833397 -5.062286 -0.426477 0
M  V30 48 H 0.800299 -6.099400 -2.708864 0
M  V30 49 H -1.325240 -6.828890 -3.623637 0
M  V30 50 H -3.381248 -6.578841 -2.409878 0
M  V30 END ATOM
M  V30 BEGIN BOND
M  V30 1 1 1 2
M  V30 2 2 2 3
M  V30 3 1 3 4
M  V30 4 1 4 5
M  V30 5 1 5 6
M  V30 6 2 6 7
M  V30 7 1 7 8
M  V30 8 2 8 9
M  V30 9 1 9 10
M  V30 10 1 10 11
M  V30 11 2 11 12
M  V30 12 1 11 13
M  V30 13 1 13 14
M  V30 14 2 14 15
M  V30 15 1 15 16
M  V30 16 2 16 17
M  V30 17 1 17 18
M  V30 18 1 18 19
M  V30 19 1 19 20
M  V30 20 1 19 21
M  V30 21 1 19 22
M  V30 22 2 18 23
M  V30 23 1 9 24
M  V30 24 2 24 25
M  V30 25 2 4 26
M  V30 26 1 26 27
M  V30 27 2 27 28
M  V30 28 1 28 29
M  V30 29 2 29 30
M  V30 30 1 30 31
M  V30 31 2 31 32
M  V30 32 1 32 2
M  V30 33 1 25 6
M  V30 34 1 31 26
M  V30 35 1 23 14
M  V30 36 1 1 33
M  V30 37 1 1 34
M  V30 38 1 1 35
M  V30 39 1 3 36
M  V30 40 1 7 37
M  V30 41 1 8 38
M  V30 42 1 10 39
M  V30 43 1 13 40
M  V30 44 1 15 41
M  V30 45 1 16 42
M  V30 46 1 17 43
M  V30 47 1 23 44
M  V30 48 1 24 45
M  V30 49 1 25 46
M  V30 50 1 27 47
M  V30 51 1 28 48
M  V30 52 1 29 49
M  V30 53 1 30 50
M  V30 END BOND
M  V30 END CTAB
M  END
>  <Dataset>  (791) 
ChEMBL_Kinases

>  <Ligand_Instance>  (791) 
nan

>  <PDB_ID>  (791) 
nan

>  <Standardized_SMILES>  (791) 
Cc1cc(Oc2ccc(NC(=O)Nc3cccc(C(F)(F)F)c3)cc2)c2ccccc2n1

>  <Name>  (791) 
nan

>  <Pocket>  (791) 
nan

>  <ATP_Site>  (791) 
nan

>  <Peripheral>  (791) 
nan

>  <Num_H_Atoms_ProtBoundConf>  (791) 
nan

>  <Num_Resolved_Atoms>  (791) 
nan

>  <Num_Not_Resolved_Atoms>  (791) 
nan

$$$$
CHEMBL4865061
     RDKit          3D

  0  0  0  0  0  0  0  0  0  0999 V3000
M  V30 BEGIN CTAB
M  V30 COUNTS 67 71 0 0 0
M  V30 BEGIN ATOM
M  V30 1 O 0.417389 -4.072845 4.261090 0
M  V30 2 C 0.028594 -2.882964 4.234391 0
M  V30 3 N 0.922005 -1.831518 3.923737 0
M  V30 4 C 2.301869 -1.726651 3.594186 0
M  V30 5 C 3.384678 -1.544794 4.432235 0
M  V30 6 N 4.621159 -1.474183 3.892604 0
M  V30 7 C 4.843207 -1.573094 2.577285 0
M  V30 8 C 3.811800 -1.758504 1.648336 0
M  V30 9 O 4.014687 -1.863699 0.282991 0
M  V30 10 C 2.885412 -2.052706 -0.550548 0
M  V30 11 C 3.401392 -2.127616 -1.973810 0
M  V30 12 C 4.111322 -0.866016 -2.348229 0
M  V30 13 C 3.222031 0.212543 -2.892260 0
M  V30 14 N 1.859693 -0.243273 -3.097740 0
M  V30 15 C 1.086907 0.776401 -3.747548 0
M  V30 16 C -0.327311 0.298283 -3.955518 0
M  V30 17 C -0.817928 -0.114709 -5.175830 0
M  V30 18 C -2.139073 -0.546117 -5.294317 0
M  V30 19 C -2.980993 -0.564533 -4.176382 0
M  V30 20 C -2.518719 -0.152949 -2.922004 0
M  V30 21 C -1.203905 0.257429 -2.892368 0
M  V30 22 F -0.733376 0.659826 -1.690330 0
M  V30 23 C 1.975606 -1.443475 -3.904274 0
M  V30 24 C 2.304639 -2.530011 -2.905981 0
M  V30 25 C 2.550000 -1.827594 2.230520 0
M  V30 26 C -1.362222 -2.557245 4.524644 0
M  V30 27 C -2.173640 -3.643842 4.775028 0
M  V30 28 C -3.513829 -3.389968 5.060181 0
M  V30 29 N -4.010671 -2.129743 5.092985 0
M  V30 30 C -3.226655 -1.056809 4.849777 0
M  V30 31 N -3.662276 0.295957 4.863688 0
M  V30 32 C -4.178079 1.127854 3.832970 0
M  V30 33 O -4.242677 0.520345 2.734920 0
M  V30 34 C -4.568826 2.519045 4.086831 0
M  V30 35 C -5.653843 3.163618 3.346799 0
M  V30 36 C -4.189458 3.589440 3.088011 0
M  V30 37 C -1.876582 -1.287440 4.560787 0
M  V30 38 H 0.692672 -0.816207 3.876058 0
M  V30 39 H 3.114086 -1.475469 5.476886 0
M  V30 40 H 5.849858 -1.511529 2.181650 0
M  V30 41 H 2.112184 -1.281428 -0.403573 0
M  V30 42 H 2.470326 -3.068718 -0.294120 0
M  V30 43 H 4.144931 -2.952994 -1.969295 0
M  V30 44 H 4.608068 -0.468156 -1.438062 0
M  V30 45 H 4.936261 -1.048157 -3.068333 0
M  V30 46 H 3.199628 1.106840 -2.234116 0
M  V30 47 H 3.583167 0.566915 -3.880576 0
M  V30 48 H 1.028420 1.715429 -3.170018 0
M  V30 49 H 1.507762 1.014711 -4.753750 0
M  V30 50 H -0.159645 -0.097124 -6.035526 0
M  V30 51 H -2.502869 -0.864878 -6.258560 0
M  V30 52 H -4.000372 -0.890306 -4.233189 0
M  V30 53 H -3.133031 -0.151111 -2.035205 0
M  V30 54 H 1.069719 -1.695167 -4.464541 0
M  V30 55 H 2.832998 -1.331144 -4.590417 0
M  V30 56 H 1.370525 -2.694989 -2.324164 0
M  V30 57 H 2.499770 -3.493183 -3.421860 0
M  V30 58 H 1.751072 -1.973622 1.487887 0
M  V30 59 H -1.844115 -4.664811 4.764922 0
M  V30 60 H -4.218003 -4.211191 5.269518 0
M  V30 61 H -3.538748 0.638201 5.847185 0
M  V30 62 H -4.427944 2.847724 5.152647 0
M  V30 63 H -6.277911 3.966471 3.832434 0
M  V30 64 H -6.143680 2.727585 2.466782 0
M  V30 65 H -3.733815 3.297687 2.126815 0
M  V30 66 H -3.902006 4.609057 3.464118 0
M  V30 67 H -1.240872 -0.459096 4.366324 0
M  V30 END ATOM
M  V30 BEGIN BOND
M  V30 1 2 1 2
M  V30 2 1 2 3
M  V30 3 1 3 4
M  V30 4 2 4 5
M  V30 5 1 5 6
M  V30 6 2 6 7
M  V30 7 1 7 8
M  V30 8 1 8 9
M  V30 9 1 9 10
M  V30 10 1 10 11
M  V30 11 1 11 12
M  V30 12 1 12 13
M  V30 13 1 13 14
M  V30 14 1 14 15
M  V30 15 1 15 16
M  V30 16 2 16 17
M  V30 17 1 17 18
M  V30 18 2 18 19
M  V30 19 1 19 20
M  V30 20 2 20 21
M  V30 21 1 21 22
M  V30 22 1 14 23
M  V30 23 1 23 24
M  V30 24 2 8 25
M  V30 25 1 2 26
M  V30 26 2 26 27
M  V30 27 1 27 28
M  V30 28 2 28 29
M  V30 29 1 29 30
M  V30 30 1 30 31
M  V30 31 1 31 32
M  V30 32 2 32 33
M  V30 33 1 32 34
M  V30 34 1 34 35
M  V30 35 1 35 36
M  V30 36 2 30 37
M  V30 37 1 25 4
M  V30 38 1 37 26
M  V30 39 1 24 11
M  V30 40 1 36 34
M  V30 41 1 21 16
M  V30 42 1 3 38
M  V30 43 1 5 39
M  V30 44 1 7 40
M  V30 45 1 10 41
M  V30 46 1 10 42
M  V30 47 1 11 43
M  V30 48 1 12 44
M  V30 49 1 12 45
M  V30 50 1 13 46
M  V30 51 1 13 47
M  V30 52 1 15 48
M  V30 53 1 15 49
M  V30 54 1 17 50
M  V30 55 1 18 51
M  V30 56 1 19 52
M  V30 57 1 20 53
M  V30 58 1 23 54
M  V30 59 1 23 55
M  V30 60 1 24 56
M  V30 61 1 24 57
M  V30 62 1 25 58
M  V30 63 1 27 59
M  V30 64 1 28 60
M  V30 65 1 31 61
M  V30 66 1 34 62
M  V30 67 1 35 63
M  V30 68 1 35 64
M  V30 69 1 36 65
M  V30 70 1 36 66
M  V30 71 1 37 67
M  V30 END BOND
M  V30 END CTAB
M  END
>  <Dataset>  (792) 
ChEMBL_Kinases

>  <Ligand_Instance>  (792) 
nan

>  <PDB_ID>  (792) 
nan

>  <Standardized_SMILES>  (792) 
O=C(Nc1cncc(OCC2CCN(Cc3ccccc3F)CC2)c1)c1ccnc(NC(=O)C2CC2)c1

>  <Name>  (792) 
nan

>  <Pocket>  (792) 
nan

>  <ATP_Site>  (792) 
nan

>  <Peripheral>  (792) 
nan

>  <Num_H_Atoms_ProtBoundConf>  (792) 
nan

>  <Num_Resolved_Atoms>  (792) 
nan

>  <Num_Not_Resolved_Atoms>  (792) 
nan

$$$$
CHEMBL486517
     RDKit          3D

  0  0  0  0  0  0  0  0  0  0999 V3000
M  V30 BEGIN CTAB
M  V30 COUNTS 51 56 0 0 0
M  V30 BEGIN ATOM
M  V30 1 O 4.612577 -0.852858 2.639737 0
M  V30 2 C 3.893670 -1.574444 1.907097 0
M  V30 3 N 4.272226 -2.714957 1.128244 0
M  V30 4 C 3.114416 -3.193984 0.471547 0
M  V30 5 O 3.272980 -4.187275 -0.249628 0
M  V30 6 C 1.963282 -2.395695 0.794919 0
M  V30 7 C 2.451622 -1.438677 1.650178 0
M  V30 8 C 1.612626 -0.472333 2.180330 0
M  V30 9 C 2.087898 0.563162 3.092624 0
M  V30 10 C 2.004906 0.160429 4.425611 0
M  V30 11 C 2.415603 1.022893 5.431806 0
M  V30 12 C 2.912649 2.292240 5.132703 0
M  V30 13 C 2.980528 2.656122 3.810518 0
M  V30 14 C 2.578617 1.817093 2.792350 0
M  V30 15 Cl 2.627148 2.190996 1.082091 0
M  V30 16 C 0.284401 -0.511067 1.818017 0
M  V30 17 C -0.234379 -1.477315 0.947904 0
M  V30 18 C 0.649147 -2.397849 0.464332 0
M  V30 19 C -0.045799 -3.229869 -0.338307 0
M  V30 20 C 0.152340 -4.322816 -1.120573 0
M  V30 21 C -0.813745 -4.973579 -1.851437 0
M  V30 22 O -0.583815 -6.094643 -2.647298 0
M  V30 23 C -2.128358 -4.499136 -1.812293 0
M  V30 24 C -2.365991 -3.391422 -1.028468 0
M  V30 25 C -1.346063 -2.780045 -0.314376 0
M  V30 26 N -1.496509 -1.699726 0.469684 0
M  V30 27 C -2.684769 -0.952449 0.772950 0
M  V30 28 C -3.039374 0.142415 -0.162087 0
M  V30 29 S -1.857740 1.410250 -0.368351 0 CHG=1 VAL=3
M  V30 30 O -0.388129 0.938543 -0.954317 0 CHG=-1 VAL=1
M  V30 31 N -2.510481 2.804937 -1.143809 0
M  V30 32 C -2.700506 2.887687 -2.479127 0
M  V30 33 C -3.235336 4.172201 -2.627918 0
M  V30 34 N -3.342750 4.786210 -1.435785 0
M  V30 35 N -2.889589 3.920981 -0.543821 0
M  V30 36 H 5.269539 -3.025266 1.140172 0
M  V30 37 H 1.639964 -0.791721 4.780900 0
M  V30 38 H 2.381221 0.779593 6.498224 0
M  V30 39 H 3.243021 2.991402 5.905917 0
M  V30 40 H 3.355051 3.623137 3.514080 0
M  V30 41 H -0.387650 0.232662 2.219439 0
M  V30 42 H 1.104002 -4.776460 -1.232669 0
M  V30 43 H -0.697305 -5.932584 -3.659024 0
M  V30 44 H -2.913480 -4.973945 -2.365167 0
M  V30 45 H -3.386158 -3.047417 -1.016465 0
M  V30 46 H -2.569655 -0.466807 1.789397 0
M  V30 47 H -3.567761 -1.635426 0.931886 0
M  V30 48 H -3.422457 -0.234426 -1.151537 0
M  V30 49 H -3.956179 0.642348 0.275568 0
M  V30 50 H -2.524367 2.216417 -3.282148 0
M  V30 51 H -3.543386 4.665768 -3.558960 0
M  V30 END ATOM
M  V30 BEGIN BOND
M  V30 1 2 1 2
M  V30 2 1 2 3
M  V30 3 1 3 4
M  V30 4 2 4 5
M  V30 5 1 4 6
M  V30 6 2 6 7
M  V30 7 1 7 8
M  V30 8 1 8 9
M  V30 9 2 9 10
M  V30 10 1 10 11
M  V30 11 2 11 12
M  V30 12 1 12 13
M  V30 13 2 13 14
M  V30 14 1 14 15
M  V30 15 2 8 16
M  V30 16 1 16 17
M  V30 17 2 17 18
M  V30 18 1 18 19
M  V30 19 2 19 20
M  V30 20 1 20 21
M  V30 21 1 21 22
M  V30 22 2 21 23
M  V30 23 1 23 24
M  V30 24 2 24 25
M  V30 25 1 25 26
M  V30 26 1 26 27
M  V30 27 1 27 28
M  V30 28 1 28 29
M  V30 29 1 29 30
M  V30 30 1 29 31
M  V30 31 1 31 32
M  V30 32 2 32 33
M  V30 33 1 33 34
M  V30 34 2 34 35
M  V30 35 1 7 2
M  V30 36 1 14 9
M  V30 37 1 26 17
M  V30 38 1 35 31
M  V30 39 1 18 6
M  V30 40 1 25 19
M  V30 41 1 3 36
M  V30 42 1 10 37
M  V30 43 1 11 38
M  V30 44 1 12 39
M  V30 45 1 13 40
M  V30 46 1 16 41
M  V30 47 1 20 42
M  V30 48 1 22 43
M  V30 49 1 23 44
M  V30 50 1 24 45
M  V30 51 1 27 46
M  V30 52 1 27 47
M  V30 53 1 28 48
M  V30 54 1 28 49
M  V30 55 1 32 50
M  V30 56 1 33 51
M  V30 END BOND
M  V30 END CTAB
M  END
>  <Dataset>  (793) 
ChEMBL_Kinases

>  <Ligand_Instance>  (793) 
nan

>  <PDB_ID>  (793) 
nan

>  <Standardized_SMILES>  (793) 
O=C1NC(=O)c2c1c(-c1ccccc1Cl)cc1c2c2cc(O)ccc2n1CC[S+]([O-])n1ccnn1

>  <Name>  (793) 
nan

>  <Pocket>  (793) 
nan

>  <ATP_Site>  (793) 
nan

>  <Peripheral>  (793) 
nan

>  <Num_H_Atoms_ProtBoundConf>  (793) 
nan

>  <Num_Resolved_Atoms>  (793) 
nan

>  <Num_Not_Resolved_Atoms>  (793) 
nan

$$$$
CHEMBL4865176
     RDKit          3D

  0  0  0  0  0  0  0  0  0  0999 V3000
M  V30 BEGIN CTAB
M  V30 COUNTS 47 49 0 0 0
M  V30 BEGIN ATOM
M  V30 1 C -1.055549 -2.600082 7.092900 0
M  V30 2 N -0.790773 -3.203920 5.817819 0
M  V30 3 C -0.469893 -2.623072 4.561075 0
M  V30 4 N -0.368781 -1.297156 4.415640 0
M  V30 5 C -0.070733 -0.667438 3.267612 0
M  V30 6 N 0.003222 0.729762 3.253868 0
M  V30 7 C 0.297782 1.601995 2.175232 0
M  V30 8 C 0.323064 2.986629 2.356370 0
M  V30 9 N 0.597232 3.841235 1.361468 0
M  V30 10 C 0.870358 3.440995 0.108543 0
M  V30 11 C 1.162089 4.364528 -0.946925 0
M  V30 12 N 1.416765 5.105708 -1.804908 0
M  V30 13 C 0.864941 2.078157 -0.153237 0
M  V30 14 N 1.152947 1.580841 -1.473579 0
M  V30 15 C 1.181031 0.204182 -1.926975 0 CFG=2
M  V30 16 C 1.575478 0.076407 -3.388712 0
M  V30 17 C 0.574610 -0.912269 -3.974776 0
M  V30 18 N -0.609513 -0.563784 -3.240100 0
M  V30 19 C -1.166148 0.649387 -3.783182 0
M  V30 20 C -0.158893 -0.449633 -1.889895 0
M  V30 21 C 0.580727 1.220246 0.884457 0
M  V30 22 N 0.136884 -1.449381 2.200169 0
M  V30 23 C 0.053751 -2.783583 2.266204 0
M  V30 24 C -0.253211 -3.410916 3.453194 0
M  V30 25 C -0.341957 -4.893547 3.510840 0
M  V30 26 F -0.078271 -5.444775 2.251563 0
M  V30 27 F 0.547470 -5.464841 4.377906 0
M  V30 28 F -1.611502 -5.318046 3.840803 0
M  V30 29 H -1.049740 -1.483026 7.070039 0
M  V30 30 H -2.025780 -2.899560 7.546762 0
M  V30 31 H -0.281025 -2.972779 7.808084 0
M  V30 32 H -0.862378 -4.241495 5.898634 0
M  V30 33 H -0.183943 1.235896 4.170484 0
M  V30 34 H 0.115982 3.423415 3.333944 0
M  V30 35 H 1.371186 2.293852 -2.207745 0
M  V30 36 H 1.962431 -0.389015 -1.368017 0
M  V30 37 H 1.523102 1.048857 -3.906371 0
M  V30 38 H 2.575673 -0.342854 -3.542429 0
M  V30 39 H 0.412244 -0.726615 -5.053356 0
M  V30 40 H 0.849391 -1.948603 -3.760609 0
M  V30 41 H -1.537545 1.246384 -2.929739 0
M  V30 42 H -2.057527 0.387887 -4.398515 0
M  V30 43 H -0.479598 1.226556 -4.417273 0
M  V30 44 H -0.032313 -1.501905 -1.511676 0
M  V30 45 H -0.901445 0.028535 -1.219190 0
M  V30 46 H 0.592782 0.192922 0.630677 0
M  V30 47 H 0.235463 -3.320351 1.364521 0
M  V30 END ATOM
M  V30 BEGIN BOND
M  V30 1 1 1 2
M  V30 2 1 2 3
M  V30 3 2 3 4
M  V30 4 1 4 5
M  V30 5 1 5 6
M  V30 6 1 6 7
M  V30 7 2 7 8
M  V30 8 1 8 9
M  V30 9 2 9 10
M  V30 10 1 10 11
M  V30 11 3 11 12
M  V30 12 1 10 13
M  V30 13 1 13 14
M  V30 14 1 14 15
M  V30 15 1 15 16
M  V30 16 1 16 17
M  V30 17 1 17 18
M  V30 18 1 18 19
M  V30 19 1 18 20
M  V30 20 2 13 21
M  V30 21 2 5 22
M  V30 22 1 22 23
M  V30 23 2 23 24
M  V30 24 1 24 25
M  V30 25 1 25 26
M  V30 26 1 25 27
M  V30 27 1 25 28
M  V30 28 1 24 3
M  V30 29 1 21 7
M  V30 30 1 20 15
M  V30 31 1 1 29
M  V30 32 1 1 30
M  V30 33 1 1 31
M  V30 34 1 2 32
M  V30 35 1 6 33
M  V30 36 1 8 34
M  V30 37 1 14 35
M  V30 38 1 15 36 CFG=1
M  V30 39 1 16 37
M  V30 40 1 16 38
M  V30 41 1 17 39
M  V30 42 1 17 40
M  V30 43 1 19 41
M  V30 44 1 19 42
M  V30 45 1 19 43
M  V30 46 1 20 44
M  V30 47 1 20 45
M  V30 48 1 21 46
M  V30 49 1 23 47
M  V30 END BOND
M  V30 END CTAB
M  END
>  <Dataset>  (794) 
ChEMBL_Kinases

>  <Ligand_Instance>  (794) 
nan

>  <PDB_ID>  (794) 
nan

>  <Standardized_SMILES>  (794) 
CNc1nc(Nc2cnc(C#N)c(N[C@@H]3CCN(C)C3)c2)ncc1C(F)(F)F

>  <Name>  (794) 
nan

>  <Pocket>  (794) 
nan

>  <ATP_Site>  (794) 
nan

>  <Peripheral>  (794) 
nan

>  <Num_H_Atoms_ProtBoundConf>  (794) 
nan

>  <Num_Resolved_Atoms>  (794) 
nan

>  <Num_Not_Resolved_Atoms>  (794) 
nan

$$$$
CHEMBL4865192
     RDKit          3D

  0  0  0  0  0  0  0  0  0  0999 V3000
M  V30 BEGIN CTAB
M  V30 COUNTS 62 67 0 0 0
M  V30 BEGIN ATOM
M  V30 1 C 4.394859 -1.826771 6.222337 0
M  V30 2 N 5.306239 -2.083282 5.149310 0
M  V30 3 C 6.062181 -3.290509 5.261433 0
M  V30 4 C 4.788355 -1.805680 3.848313 0
M  V30 5 C 4.606642 -0.308861 3.707089 0
M  V30 6 N 4.071774 -0.058458 2.362816 0
M  V30 7 C 2.800786 0.007757 1.933488 0
M  V30 8 C 2.803263 0.263779 0.572013 0
M  V30 9 C 1.529092 0.382996 -0.133128 0
M  V30 10 C 0.410577 0.890787 0.496512 0
M  V30 11 C -0.771086 0.975162 -0.226274 0
M  V30 12 C -0.848864 0.567910 -1.540966 0
M  V30 13 C -2.042000 0.664494 -2.226607 0
M  V30 14 N -3.235851 1.190692 -1.628487 0
M  V30 15 C -3.620858 2.478021 -1.072731 0
M  V30 16 C -5.041850 2.580221 -1.649258 0
M  V30 17 N -5.514400 1.222893 -1.471302 0
M  V30 18 C -6.624361 0.472747 -1.313398 0
M  V30 19 C -6.248767 -0.860535 -1.197016 0
M  V30 20 C -4.857421 -0.930286 -1.286891 0
M  V30 21 C -3.990407 -2.119974 -1.217089 0
M  V30 22 C -3.530554 -2.954526 -2.207606 0
M  V30 23 C -2.717340 -4.012429 -1.865363 0
M  V30 24 F -2.310386 -4.782357 -2.905313 0
M  V30 25 C -2.355453 -4.252757 -0.557544 0
M  V30 26 C -2.808768 -3.423972 0.451777 0
M  V30 27 C -3.624326 -2.362234 0.112522 0
M  V30 28 F -3.999321 -1.626233 1.202826 0
M  V30 29 C -4.429344 0.392770 -1.458639 0
M  V30 30 C -2.058070 0.230883 -3.559959 0
M  V30 31 C -0.883897 -0.262135 -4.097451 0
M  V30 32 N 0.262779 -0.341138 -3.397620 0
M  V30 33 C 0.308513 0.071197 -2.104244 0
M  V30 34 C 1.515045 -0.041038 -1.447044 0
M  V30 35 C 4.125728 0.350216 0.193095 0
M  V30 36 N 4.854858 0.149038 1.307626 0
M  V30 37 H 4.466988 -2.692911 6.931939 0
M  V30 38 H 4.740745 -0.880733 6.732803 0
M  V30 39 H 3.347566 -1.699812 5.871913 0
M  V30 40 H 5.408003 -4.147262 5.026297 0
M  V30 41 H 6.908526 -3.197255 4.523585 0
M  V30 42 H 6.489815 -3.327378 6.290884 0
M  V30 43 H 3.788534 -2.302781 3.736290 0
M  V30 44 H 5.405852 -2.213762 3.041017 0
M  V30 45 H 5.541947 0.245146 3.817703 0
M  V30 46 H 3.873551 0.010258 4.474493 0
M  V30 47 H 2.024684 -0.138836 2.665021 0
M  V30 48 H 0.525726 1.196855 1.531389 0
M  V30 49 H -1.628931 1.370769 0.279600 0
M  V30 50 H -2.974883 3.293723 -1.416403 0
M  V30 51 H -3.760330 2.410626 0.024344 0
M  V30 52 H -4.921306 2.877278 -2.697460 0
M  V30 53 H -5.643090 3.308102 -1.071389 0
M  V30 54 H -7.660726 0.830474 -1.279056 0
M  V30 55 H -6.877365 -1.732207 -1.059740 0
M  V30 56 H -3.890751 -2.648802 -3.178507 0
M  V30 57 H -1.717678 -5.089219 -0.324433 0
M  V30 58 H -2.491775 -3.662719 1.455961 0
M  V30 59 H -2.981708 0.305500 -4.089427 0
M  V30 60 H -0.869619 -0.599359 -5.111878 0
M  V30 61 H 2.378008 -0.430646 -1.925517 0
M  V30 62 H 4.389667 0.544324 -0.822948 0
M  V30 END ATOM
M  V30 BEGIN BOND
M  V30 1 1 1 2
M  V30 2 1 2 3
M  V30 3 1 2 4
M  V30 4 1 4 5
M  V30 5 1 5 6
M  V30 6 1 6 7
M  V30 7 2 7 8
M  V30 8 1 8 9
M  V30 9 2 9 10
M  V30 10 1 10 11
M  V30 11 2 11 12
M  V30 12 1 12 13
M  V30 13 1 13 14
M  V30 14 1 14 15
M  V30 15 1 15 16
M  V30 16 1 16 17
M  V30 17 1 17 18
M  V30 18 2 18 19
M  V30 19 1 19 20
M  V30 20 1 20 21
M  V30 21 2 21 22
M  V30 22 1 22 23
M  V30 23 1 23 24
M  V30 24 2 23 25
M  V30 25 1 25 26
M  V30 26 2 26 27
M  V30 27 1 27 28
M  V30 28 2 20 29
M  V30 29 2 13 30
M  V30 30 1 30 31
M  V30 31 2 31 32
M  V30 32 1 32 33
M  V30 33 2 33 34
M  V30 34 1 8 35
M  V30 35 2 35 36
M  V30 36 1 36 6
M  V30 37 1 34 9
M  V30 38 1 33 12
M  V30 39 1 29 14
M  V30 40 1 29 17
M  V30 41 1 27 21
M  V30 42 1 1 37
M  V30 43 1 1 38
M  V30 44 1 1 39
M  V30 45 1 3 40
M  V30 46 1 3 41
M  V30 47 1 3 42
M  V30 48 1 4 43
M  V30 49 1 4 44
M  V30 50 1 5 45
M  V30 51 1 5 46
M  V30 52 1 7 47
M  V30 53 1 10 48
M  V30 54 1 11 49
M  V30 55 1 15 50
M  V30 56 1 15 51
M  V30 57 1 16 52
M  V30 58 1 16 53
M  V30 59 1 18 54
M  V30 60 1 19 55
M  V30 61 1 22 56
M  V30 62 1 25 57
M  V30 63 1 26 58
M  V30 64 1 30 59
M  V30 65 1 31 60
M  V30 66 1 34 61
M  V30 67 1 35 62
M  V30 END BOND
M  V30 END CTAB
M  END
>  <Dataset>  (795) 
ChEMBL_Kinases

>  <Ligand_Instance>  (795) 
nan

>  <PDB_ID>  (795) 
nan

>  <Standardized_SMILES>  (795) 
CN(C)CCn1cc(-c2ccc3c(N4CCn5ccc(-c6cc(F)ccc6F)c54)ccnc3c2)cn1

>  <Name>  (795) 
nan

>  <Pocket>  (795) 
nan

>  <ATP_Site>  (795) 
nan

>  <Peripheral>  (795) 
nan

>  <Num_H_Atoms_ProtBoundConf>  (795) 
nan

>  <Num_Resolved_Atoms>  (795) 
nan

>  <Num_Not_Resolved_Atoms>  (795) 
nan

$$$$
CHEMBL4865219
     RDKit          3D

  0  0  0  0  0  0  0  0  0  0999 V3000
M  V30 BEGIN CTAB
M  V30 COUNTS 40 41 0 0 0
M  V30 BEGIN ATOM
M  V30 1 C 0.795661 -4.652776 2.874211 0
M  V30 2 C -0.379336 -4.321841 2.002758 0
M  V30 3 C -0.101985 -4.557111 0.556647 0
M  V30 4 C 1.021608 -3.774270 -0.025246 0 CFG=1
M  V30 5 N 1.100585 -4.171304 -1.440475 0
M  V30 6 C 0.882422 -2.321405 0.087005 0
M  V30 7 O 0.810789 -1.933880 1.300344 0
M  V30 8 N 0.818918 -1.327060 -0.925174 0
M  V30 9 C 0.681169 -0.016420 -0.405352 0
M  V30 10 C 1.868948 0.650937 -0.150669 0
M  V30 11 C 1.854244 1.952127 0.364447 0
M  V30 12 C 0.664578 2.593826 0.627896 0
M  V30 13 C 0.716991 3.947550 1.163281 0
M  V30 14 C -0.272806 4.836463 1.523064 0
M  V30 15 N 0.268298 5.984530 1.973131 0
M  V30 16 C 1.603724 5.772003 1.878291 0
M  V30 17 O 1.845778 4.572913 1.401742 0
M  V30 18 C -0.491584 1.907733 0.365547 0
M  V30 19 O -1.699946 2.497673 0.608661 0
M  V30 20 C -2.951627 1.914174 0.387681 0
M  V30 21 C -0.500152 0.624575 -0.142250 0
M  V30 22 H 0.797235 -5.738756 3.101187 0
M  V30 23 H 1.774221 -4.424286 2.404954 0
M  V30 24 H 0.666270 -4.037496 3.810700 0
M  V30 25 H -1.187913 -5.059058 2.276170 0
M  V30 26 H -0.829060 -3.326731 2.214560 0
M  V30 27 H -1.032812 -4.476476 -0.033307 0
M  V30 28 H 0.189311 -5.642249 0.470727 0
M  V30 29 H 1.985254 -4.075015 0.406143 0
M  V30 30 H 1.732486 -3.578498 -1.992061 0
M  V30 31 H 1.294236 -5.175872 -1.539428 0
M  V30 32 H 0.884091 -1.723769 -1.888742 0
M  V30 33 H 2.842705 0.177481 -0.345808 0
M  V30 34 H 2.826138 2.409489 0.537724 0
M  V30 35 H -1.311602 4.633597 1.451115 0
M  V30 36 H 2.297593 6.564480 2.186387 0
M  V30 37 H -3.733202 2.693666 0.412952 0
M  V30 38 H -3.160046 1.175716 1.180939 0
M  V30 39 H -2.955789 1.485881 -0.627748 0
M  V30 40 H -1.411916 0.091012 -0.346178 0
M  V30 END ATOM
M  V30 BEGIN BOND
M  V30 1 1 1 2
M  V30 2 1 2 3
M  V30 3 1 3 4
M  V30 4 1 4 5
M  V30 5 1 4 6
M  V30 6 2 6 7
M  V30 7 1 6 8
M  V30 8 1 8 9
M  V30 9 2 9 10
M  V30 10 1 10 11
M  V30 11 2 11 12
M  V30 12 1 12 13
M  V30 13 2 13 14
M  V30 14 1 14 15
M  V30 15 2 15 16
M  V30 16 1 16 17
M  V30 17 1 12 18
M  V30 18 1 18 19
M  V30 19 1 19 20
M  V30 20 2 18 21
M  V30 21 1 21 9
M  V30 22 1 17 13
M  V30 23 1 1 22
M  V30 24 1 1 23
M  V30 25 1 1 24
M  V30 26 1 2 25
M  V30 27 1 2 26
M  V30 28 1 3 27
M  V30 29 1 3 28
M  V30 30 1 4 29 CFG=1
M  V30 31 1 5 30
M  V30 32 1 5 31
M  V30 33 1 8 32
M  V30 34 1 10 33
M  V30 35 1 11 34
M  V30 36 1 14 35
M  V30 37 1 16 36
M  V30 38 1 20 37
M  V30 39 1 20 38
M  V30 40 1 20 39
M  V30 41 1 21 40
M  V30 END BOND
M  V30 END CTAB
M  END
>  <Dataset>  (796) 
ChEMBL_Kinases

>  <Ligand_Instance>  (796) 
nan

>  <PDB_ID>  (796) 
nan

>  <Standardized_SMILES>  (796) 
CCC[C@@H](N)C(=O)Nc1ccc(-c2cnco2)c(OC)c1

>  <Name>  (796) 
nan

>  <Pocket>  (796) 
nan

>  <ATP_Site>  (796) 
nan

>  <Peripheral>  (796) 
nan

>  <Num_H_Atoms_ProtBoundConf>  (796) 
nan

>  <Num_Resolved_Atoms>  (796) 
nan

>  <Num_Not_Resolved_Atoms>  (796) 
nan

$$$$
CHEMBL402435
     RDKit          3D

  0  0  0  0  0  0  0  0  0  0999 V3000
M  V30 BEGIN CTAB
M  V30 COUNTS 57 60 0 0 0
M  V30 BEGIN ATOM
M  V30 1 C 3.941947 -4.252709 1.105476 0
M  V30 2 O 3.781823 -2.924311 1.566799 0
M  V30 3 C 2.674061 -2.230157 1.076781 0
M  V30 4 C 1.801496 -2.853955 0.183597 0
M  V30 5 C 0.712718 -2.186077 -0.300275 0
M  V30 6 C 0.596930 -0.896034 0.181640 0
M  V30 7 C 1.426286 -0.165477 1.081180 0
M  V30 8 O 1.120361 1.179100 1.414877 0
M  V30 9 C 1.636546 2.256196 0.666405 0
M  V30 10 C 2.514758 -0.936806 1.523483 0
M  V30 11 O 3.341594 -0.285709 2.395404 0
M  V30 12 C 3.095785 -0.356930 3.805474 0
M  V30 13 C -0.508065 0.064792 -0.063105 0
M  V30 14 C -1.148155 0.462909 -1.219419 0
M  V30 15 C -2.079108 1.432872 -1.113972 0
M  V30 16 C -2.334515 1.962253 0.131719 0
M  V30 17 C -1.704358 1.568058 1.292242 0
M  V30 18 C -0.738949 0.572822 1.248841 0
M  V30 19 O -0.037115 0.065562 2.387829 0
M  V30 20 C -0.542754 -1.008763 3.136865 0
M  V30 21 O -2.197697 2.300895 2.358897 0
M  V30 22 C -3.361848 3.007782 1.906611 0
M  V30 23 O -3.231368 2.957624 0.497210 0
M  V30 24 C -0.975111 -0.115817 -2.600852 0
M  V30 25 C -1.568340 -1.466162 -2.620409 0 CFG=2
M  V30 26 C -3.102547 -1.199125 -2.591377 0
M  V30 27 C -1.271506 -2.596020 -1.810493 0 CFG=2
M  V30 28 C -2.308471 -2.772531 -0.678852 0
M  V30 29 C 0.003310 -3.046327 -1.256142 0
M  V30 30 H 2.999475 -4.801676 1.351912 0
M  V30 31 H 4.029532 -4.284873 -0.005011 0
M  V30 32 H 4.751231 -4.785039 1.625166 0
M  V30 33 H 1.967017 -3.867795 -0.141186 0
M  V30 34 H 0.867863 2.601116 -0.026871 0
M  V30 35 H 1.954142 3.090818 1.304407 0
M  V30 36 H 2.515721 1.913881 0.059092 0
M  V30 37 H 4.071941 -0.180210 4.282868 0
M  V30 38 H 2.393190 0.424709 4.128058 0
M  V30 39 H 2.689601 -1.374314 3.988543 0
M  V30 40 H -2.537454 1.697033 -2.046137 0
M  V30 41 H 0.194171 -1.835717 3.090550 0
M  V30 42 H -0.529313 -0.697838 4.222559 0
M  V30 43 H -1.562618 -1.312030 2.895298 0
M  V30 44 H -3.367865 4.027151 2.297405 0
M  V30 45 H -4.234116 2.420061 2.269478 0
M  V30 46 H -1.429659 0.583064 -3.304624 0
M  V30 47 H 0.130427 -0.081430 -2.804683 0
M  V30 48 H -1.471253 -1.760743 -3.733587 0
M  V30 49 H -3.671257 -2.057507 -2.937862 0
M  V30 50 H -3.240145 -0.414733 -3.393956 0
M  V30 51 H -3.413867 -0.714557 -1.670475 0
M  V30 52 H -1.579474 -3.533639 -2.458973 0
M  V30 53 H -3.332318 -2.635679 -1.019612 0
M  V30 54 H -2.242670 -3.875539 -0.414290 0
M  V30 55 H -2.038950 -2.265774 0.240036 0
M  V30 56 H -0.157245 -4.032939 -0.755832 0
M  V30 57 H 0.768196 -3.297510 -2.057614 0
M  V30 END ATOM
M  V30 BEGIN BOND
M  V30 1 1 1 2
M  V30 2 1 2 3
M  V30 3 2 3 4
M  V30 4 1 4 5
M  V30 5 2 5 6
M  V30 6 1 6 7
M  V30 7 1 7 8
M  V30 8 1 8 9
M  V30 9 2 7 10
M  V30 10 1 10 11
M  V30 11 1 11 12
M  V30 12 1 6 13
M  V30 13 2 13 14
M  V30 14 1 14 15
M  V30 15 2 15 16
M  V30 16 1 16 17
M  V30 17 2 17 18
M  V30 18 1 18 19
M  V30 19 1 19 20
M  V30 20 1 17 21
M  V30 21 1 21 22
M  V30 22 1 22 23
M  V30 23 1 14 24
M  V30 24 1 24 25
M  V30 25 1 25 26
M  V30 26 1 25 27
M  V30 27 1 27 28
M  V30 28 1 27 29
M  V30 29 1 10 3
M  V30 30 1 18 13
M  V30 31 1 29 5
M  V30 32 1 23 16
M  V30 33 1 1 30
M  V30 34 1 1 31
M  V30 35 1 1 32
M  V30 36 1 4 33
M  V30 37 1 9 34
M  V30 38 1 9 35
M  V30 39 1 9 36
M  V30 40 1 12 37
M  V30 41 1 12 38
M  V30 42 1 12 39
M  V30 43 1 15 40
M  V30 44 1 20 41
M  V30 45 1 20 42
M  V30 46 1 20 43
M  V30 47 1 22 44
M  V30 48 1 22 45
M  V30 49 1 24 46
M  V30 50 1 24 47
M  V30 51 1 25 48 CFG=3
M  V30 52 1 26 49
M  V30 53 1 26 50
M  V30 54 1 26 51
M  V30 55 1 27 52 CFG=3
M  V30 56 1 28 53
M  V30 57 1 28 54
M  V30 58 1 28 55
M  V30 59 1 29 56
M  V30 60 1 29 57
M  V30 END BOND
M  V30 END CTAB
M  END
>  <Dataset>  (797) 
ChEMBL_Kinases

>  <Ligand_Instance>  (797) 
nan

>  <PDB_ID>  (797) 
nan

>  <Standardized_SMILES>  (797) 
COc1cc2c(c(OC)c1OC)-c1c(cc3c(c1OC)OCO3)C[C@H](C)[C@H](C)C2

>  <Name>  (797) 
WUWEIZISU B

>  <Pocket>  (797) 
nan

>  <ATP_Site>  (797) 
nan

>  <Peripheral>  (797) 
nan

>  <Num_H_Atoms_ProtBoundConf>  (797) 
nan

>  <Num_Resolved_Atoms>  (797) 
nan

>  <Num_Not_Resolved_Atoms>  (797) 
nan

$$$$
CHEMBL401945
     RDKit          3D

  0  0  0  0  0  0  0  0  0  0999 V3000
M  V30 BEGIN CTAB
M  V30 COUNTS 78 82 0 0 0
M  V30 BEGIN ATOM
M  V30 1 C 0.578446 -7.791752 2.176119 0
M  V30 2 C 0.966612 -6.409588 1.784704 0
M  V30 3 N 1.203120 -5.501654 2.885833 0
M  V30 4 C 0.033612 -5.172482 3.625975 0
M  V30 5 C 0.339604 -4.248965 4.765038 0
M  V30 6 C 1.992706 -4.409555 2.421006 0
M  V30 7 C 1.302915 -3.497734 1.439719 0
M  V30 8 N 2.285182 -2.460753 1.094265 0
M  V30 9 C 3.180869 -2.740611 -0.014905 0
M  V30 10 C 2.492189 -1.189897 1.718180 0
M  V30 11 O 3.381635 -0.374379 1.340350 0
M  V30 12 C 1.878738 -0.476872 2.820961 0
M  V30 13 C 2.014478 -0.725447 4.191222 0
M  V30 14 C 1.357659 0.057278 5.091097 0
M  V30 15 C 0.549336 1.103622 4.704460 0
M  V30 16 C 0.355459 1.421562 3.378915 0
M  V30 17 N -0.469646 2.476565 2.907603 0
M  V30 18 C -0.713846 2.619267 1.502548 0
M  V30 19 N -0.147364 3.478729 0.605894 0
M  V30 20 C -0.495404 3.457921 -0.680587 0
M  V30 21 N -1.395037 2.593822 -1.069135 0
M  V30 22 C -2.008043 1.726448 -0.324224 0
M  V30 23 C -2.950876 0.769682 -0.603446 0
M  V30 24 C -3.109460 0.227986 0.705550 0
M  V30 25 N -2.328598 0.827909 1.621005 0
M  V30 26 N -1.639442 1.770268 0.958614 0
M  V30 27 C -3.830019 0.060247 -1.540628 0
M  V30 28 C -4.401775 0.940648 -2.626016 0
M  V30 29 C -3.435395 1.392329 -3.650272 0
M  V30 30 C -2.897064 0.341212 -4.586832 0
M  V30 31 C -1.705214 0.873242 -5.262651 0
M  V30 32 O -1.216358 1.628790 -4.430036 0
M  V30 33 N -0.490237 1.642875 -5.496785 0
M  V30 34 C 0.235758 2.513178 -4.645682 0
M  V30 35 C 1.594701 2.660466 -4.988487 0
M  V30 36 C 2.449283 3.396919 -4.185591 0
M  V30 37 C 2.066832 4.036318 -3.010286 0
M  V30 38 C 0.748372 3.916315 -2.643534 0
M  V30 39 C 0.013101 3.189867 -3.490116 0
M  V30 40 N 0.242610 4.437316 -1.415066 0
M  V30 41 C 1.045679 0.596899 2.483528 0
M  V30 42 H -0.184896 -8.149815 1.423464 0
M  V30 43 H 1.429153 -8.502574 2.083844 0
M  V30 44 H 0.102240 -7.905250 3.151195 0
M  V30 45 H 0.186581 -5.971988 1.108858 0
M  V30 46 H 1.923909 -6.479011 1.218136 0
M  V30 47 H -0.817423 -4.833595 2.994908 0
M  V30 48 H -0.339354 -6.141976 4.070700 0
M  V30 49 H -0.230245 -3.296220 4.597647 0
M  V30 50 H 1.383859 -3.990255 4.913821 0
M  V30 51 H -0.080791 -4.641616 5.742593 0
M  V30 52 H 2.863046 -4.845403 1.852221 0
M  V30 53 H 2.475542 -3.804113 3.214356 0
M  V30 54 H 1.060072 -4.025081 0.513348 0
M  V30 55 H 0.422332 -2.996431 1.827115 0
M  V30 56 H 4.183191 -3.006349 0.395029 0
M  V30 57 H 2.825482 -3.614897 -0.572368 0
M  V30 58 H 3.270131 -1.823192 -0.635117 0
M  V30 59 H 2.651984 -1.550028 4.417194 0
M  V30 60 H 1.486595 -0.167486 6.127749 0
M  V30 61 H 0.016890 1.735651 5.435969 0
M  V30 62 H -0.881852 3.129252 3.593301 0
M  V30 63 H -3.660156 -0.545130 1.296750 0
M  V30 64 H -4.693775 -0.484410 -1.129774 0
M  V30 65 H -3.195008 -0.755733 -2.001289 0
M  V30 66 H -5.299284 0.509629 -3.107960 0
M  V30 67 H -4.770286 1.874341 -2.107757 0
M  V30 68 H -4.057027 2.069513 -4.350366 0
M  V30 69 H -2.672223 2.070252 -3.286494 0
M  V30 70 H -3.632499 0.090466 -5.405920 0
M  V30 71 H -2.706795 -0.630671 -4.090185 0
M  V30 72 H -0.145230 1.487055 -6.490041 0
M  V30 73 H 1.970090 2.189012 -5.880985 0
M  V30 74 H 3.507442 3.517924 -4.450745 0
M  V30 75 H 2.650335 4.627383 -2.326709 0
M  V30 76 H -0.947373 3.291236 -3.094927 0
M  V30 77 H 0.468591 5.415224 -1.210301 0
M  V30 78 H 0.896488 0.845826 1.426345 0
M  V30 END ATOM
M  V30 BEGIN BOND
M  V30 1 1 1 2
M  V30 2 1 2 3
M  V30 3 1 3 4
M  V30 4 1 4 5
M  V30 5 1 3 6
M  V30 6 1 6 7
M  V30 7 1 7 8
M  V30 8 1 8 9
M  V30 9 1 8 10
M  V30 10 2 10 11
M  V30 11 1 10 12
M  V30 12 2 12 13
M  V30 13 1 13 14
M  V30 14 2 14 15
M  V30 15 1 15 16
M  V30 16 1 16 17
M  V30 17 1 17 18
M  V30 18 2 18 19
M  V30 19 1 19 20
M  V30 20 2 20 21
M  V30 21 1 21 22
M  V30 22 2 22 23
M  V30 23 1 23 24
M  V30 24 2 24 25
M  V30 25 1 25 26
M  V30 26 1 23 27
M  V30 27 1 27 28
M  V30 28 1 28 29
M  V30 29 1 29 30
M  V30 30 1 30 31
M  V30 31 2 31 32
M  V30 32 1 31 33
M  V30 33 1 33 34
M  V30 34 2 34 35
M  V30 35 1 35 36
M  V30 36 2 36 37
M  V30 37 1 37 38
M  V30 38 2 38 39
M  V30 39 1 38 40
M  V30 40 2 16 41
M  V30 41 1 41 12
M  V30 42 1 26 18
M  V30 43 1 39 34
M  V30 44 1 40 20
M  V30 45 1 26 22
M  V30 46 1 1 42
M  V30 47 1 1 43
M  V30 48 1 1 44
M  V30 49 1 2 45
M  V30 50 1 2 46
M  V30 51 1 4 47
M  V30 52 1 4 48
M  V30 53 1 5 49
M  V30 54 1 5 50
M  V30 55 1 5 51
M  V30 56 1 6 52
M  V30 57 1 6 53
M  V30 58 1 7 54
M  V30 59 1 7 55
M  V30 60 1 9 56
M  V30 61 1 9 57
M  V30 62 1 9 58
M  V30 63 1 13 59
M  V30 64 1 14 60
M  V30 65 1 15 61
M  V30 66 1 17 62
M  V30 67 1 24 63
M  V30 68 1 27 64
M  V30 69 1 27 65
M  V30 70 1 28 66
M  V30 71 1 28 67
M  V30 72 1 29 68
M  V30 73 1 29 69
M  V30 74 1 30 70
M  V30 75 1 30 71
M  V30 76 1 33 72
M  V30 77 1 35 73
M  V30 78 1 36 74
M  V30 79 1 37 75
M  V30 80 1 39 76
M  V30 81 1 40 77
M  V30 82 1 41 78
M  V30 END BOND
M  V30 END CTAB
M  END
>  <Dataset>  (798) 
ChEMBL_Kinases

>  <Ligand_Instance>  (798) 
nan

>  <PDB_ID>  (798) 
nan

>  <Standardized_SMILES>  (798) 
CCN(CC)CCN(C)C(=O)c1cccc(Nc2nc3nc4c(cnn24)CCCCC(=O)Nc2cccc(c2)N3)c1

>  <Name>  (798) 
nan

>  <Pocket>  (798) 
nan

>  <ATP_Site>  (798) 
nan

>  <Peripheral>  (798) 
nan

>  <Num_H_Atoms_ProtBoundConf>  (798) 
nan

>  <Num_Resolved_Atoms>  (798) 
nan

>  <Num_Not_Resolved_Atoms>  (798) 
nan

$$$$
CHEMBL401922
     RDKit          3D

  0  0  0  0  0  0  0  0  0  0999 V3000
M  V30 BEGIN CTAB
M  V30 COUNTS 65 69 0 0 0
M  V30 BEGIN ATOM
M  V30 1 C 6.082628 2.152521 4.633227 0
M  V30 2 C 4.751056 2.251681 3.965613 0
M  V30 3 O 3.978842 3.150560 4.392924 0
M  V30 4 N 4.522794 1.309392 2.922393 0
M  V30 5 C 5.392878 0.244952 2.392584 0
M  V30 6 C 4.530856 -0.997523 2.501323 0 CFG=2
M  V30 7 O 4.733993 -1.907695 1.486277 0
M  V30 8 C 3.144452 -0.401341 2.345380 0
M  V30 9 C 3.385881 1.076394 2.043801 0 CFG=1
M  V30 10 C 2.275692 1.970519 2.422020 0
M  V30 11 N 1.088798 1.907923 1.702512 0
M  V30 12 C 1.035850 2.328767 0.363585 0
M  V30 13 C 0.069640 1.517118 -0.496007 0
M  V30 14 C -0.567783 0.509503 0.404846 0
M  V30 15 C -1.525227 -0.393218 -0.288213 0
M  V30 16 C -2.528246 -0.059336 -1.191852 0
M  V30 17 C -3.204751 -1.193065 -1.607900 0
M  V30 18 C -4.316173 -1.313801 -2.543907 0
M  V30 19 C -5.588868 -1.751639 -2.350112 0
M  V30 20 C -6.455403 -1.767347 -3.419557 0
M  V30 21 N -6.098945 -1.367808 -4.652098 0
M  V30 22 C -4.827404 -0.923579 -4.874915 0
M  V30 23 C -3.940613 -0.897543 -3.822797 0
M  V30 24 C -2.580656 -2.239192 -0.926107 0
M  V30 25 C -2.991244 -3.647331 -1.070327 0
M  V30 26 C -2.960814 -4.395007 -2.227660 0
M  V30 27 C -3.373639 -5.704272 -2.231339 0
M  V30 28 C -3.811359 -6.208703 -1.023577 0
M  V30 29 F -4.219021 -7.513357 -1.046411 0
M  V30 30 C -3.856122 -5.493245 0.151911 0
M  V30 31 C -3.434989 -4.157458 0.156120 0
M  V30 32 N -1.600474 -1.727830 -0.162521 0
M  V30 33 C -1.283474 1.318760 1.497366 0
M  V30 34 C -0.142464 1.824445 2.392848 0
M  V30 35 H 6.143333 1.242085 5.266440 0
M  V30 36 H 6.916835 2.068538 3.886873 0
M  V30 37 H 6.300463 3.015164 5.267813 0
M  V30 38 H 5.637302 0.390776 1.332424 0
M  V30 39 H 6.316419 0.123625 2.962888 0
M  V30 40 H 4.622786 -1.513706 3.463809 0
M  V30 41 H 3.856855 -2.362435 1.339304 0
M  V30 42 H 2.527778 -0.885837 1.593410 0
M  V30 43 H 2.651544 -0.425499 3.340013 0
M  V30 44 H 3.793898 1.229080 1.032458 0
M  V30 45 H 2.656865 3.012523 2.416094 0
M  V30 46 H 2.042688 1.754980 3.506156 0
M  V30 47 H 0.719103 3.392489 0.327649 0
M  V30 48 H 2.001012 2.269217 -0.140849 0
M  V30 49 H -0.771570 2.183782 -0.849384 0
M  V30 50 H 0.537037 1.109590 -1.404614 0
M  V30 51 H 0.144011 -0.111937 0.985993 0
M  V30 52 H -2.769479 0.930978 -1.538661 0
M  V30 53 H -5.788521 -2.051843 -1.332880 0
M  V30 54 H -7.470888 -2.127760 -3.214595 0
M  V30 55 H -4.604375 -0.617345 -5.886334 0
M  V30 56 H -2.968693 -0.525420 -4.132037 0
M  V30 57 H -2.584434 -3.835888 -3.091454 0
M  V30 58 H -3.330912 -6.243936 -3.155279 0
M  V30 59 H -4.213894 -5.965201 1.058141 0
M  V30 60 H -3.482343 -3.633063 1.083280 0
M  V30 61 H -0.953644 -2.280225 0.468006 0
M  V30 62 H -1.945951 0.636565 2.056798 0
M  V30 63 H -1.849847 2.156834 1.055188 0
M  V30 64 H -0.415316 2.820443 2.803337 0
M  V30 65 H -0.084813 1.133377 3.265374 0
M  V30 END ATOM
M  V30 BEGIN BOND
M  V30 1 1 1 2
M  V30 2 2 2 3
M  V30 3 1 2 4
M  V30 4 1 4 5
M  V30 5 1 5 6
M  V30 6 1 6 7
M  V30 7 1 6 8
M  V30 8 1 8 9
M  V30 9 1 9 10
M  V30 10 1 10 11
M  V30 11 1 11 12
M  V30 12 1 12 13
M  V30 13 1 13 14
M  V30 14 1 14 15
M  V30 15 2 15 16
M  V30 16 1 16 17
M  V30 17 1 17 18
M  V30 18 2 18 19
M  V30 19 1 19 20
M  V30 20 2 20 21
M  V30 21 1 21 22
M  V30 22 2 22 23
M  V30 23 2 17 24
M  V30 24 1 24 25
M  V30 25 2 25 26
M  V30 26 1 26 27
M  V30 27 2 27 28
M  V30 28 1 28 29
M  V30 29 1 28 30
M  V30 30 2 30 31
M  V30 31 1 24 32
M  V30 32 1 14 33
M  V30 33 1 33 34
M  V30 34 1 9 4
M  V30 35 1 34 11
M  V30 36 1 32 15
M  V30 37 1 23 18
M  V30 38 1 31 25
M  V30 39 1 1 35
M  V30 40 1 1 36
M  V30 41 1 1 37
M  V30 42 1 5 38
M  V30 43 1 5 39
M  V30 44 1 6 40 CFG=1
M  V30 45 1 7 41
M  V30 46 1 8 42
M  V30 47 1 8 43
M  V30 48 1 9 44 CFG=3
M  V30 49 1 10 45
M  V30 50 1 10 46
M  V30 51 1 12 47
M  V30 52 1 12 48
M  V30 53 1 13 49
M  V30 54 1 13 50
M  V30 55 1 14 51
M  V30 56 1 16 52
M  V30 57 1 19 53
M  V30 58 1 20 54
M  V30 59 1 22 55
M  V30 60 1 23 56
M  V30 61 1 26 57
M  V30 62 1 27 58
M  V30 63 1 30 59
M  V30 64 1 31 60
M  V30 65 1 32 61
M  V30 66 1 33 62
M  V30 67 1 33 63
M  V30 68 1 34 64
M  V30 69 1 34 65
M  V30 END BOND
M  V30 END CTAB
M  END
>  <Dataset>  (799) 
ChEMBL_Kinases

>  <Ligand_Instance>  (799) 
nan

>  <PDB_ID>  (799) 
nan

>  <Standardized_SMILES>  (799) 
CC(=O)N1C[C@H](O)C[C@H]1CN1CCC(c2cc(-c3ccncc3)c(-c3ccc(F)cc3)[nH]2)CC1

>  <Name>  (799) 
nan

>  <Pocket>  (799) 
nan

>  <ATP_Site>  (799) 
nan

>  <Peripheral>  (799) 
nan

>  <Num_H_Atoms_ProtBoundConf>  (799) 
nan

>  <Num_Resolved_Atoms>  (799) 
nan

>  <Num_Not_Resolved_Atoms>  (799) 
nan

$$$$
CHEMBL4866268
     RDKit          3D

  0  0  0  0  0  0  0  0  0  0999 V3000
M  V30 BEGIN CTAB
M  V30 COUNTS 34 36 0 0 0
M  V30 BEGIN ATOM
M  V30 1 C -3.196661 -3.389066 4.334748 0
M  V30 2 O -3.237572 -3.055787 2.980511 0
M  V30 3 C -2.162111 -2.888971 2.150196 0
M  V30 4 C -0.851173 -3.029738 2.542199 0
M  V30 5 C 0.186680 -2.844446 1.642114 0
M  V30 6 C -0.059991 -2.511006 0.316255 0
M  V30 7 C 1.166778 -2.358192 -0.502256 0
M  V30 8 N 1.663526 -1.006704 -0.426456 0
M  V30 9 C 1.094530 0.242257 -0.786530 0
M  V30 10 N -0.136796 0.279302 -1.307914 0
M  V30 11 N -0.504241 1.511443 -1.582956 0
M  V30 12 C 0.490127 2.325107 -1.244433 0
M  V30 13 C 0.738996 3.687584 -1.273071 0
M  V30 14 C 1.936724 4.203584 -0.819919 0
M  V30 15 F 2.169941 5.546342 -0.853201 0
M  V30 16 C 2.920758 3.385911 -0.326157 0
M  V30 17 C 2.726550 2.009897 -0.273209 0
M  V30 18 C 1.508814 1.575179 -0.742724 0
M  V30 19 C -1.378367 -2.374337 -0.058756 0
M  V30 20 C -2.397581 -2.557529 0.830525 0
M  V30 21 H -2.318168 -4.005695 4.580126 0
M  V30 22 H -4.111201 -3.946217 4.642313 0
M  V30 23 H -3.199808 -2.457442 4.948141 0
M  V30 24 H -0.680696 -3.292190 3.589076 0
M  V30 25 H 1.171810 -2.980766 2.061245 0
M  V30 26 H 0.901221 -2.574505 -1.580036 0
M  V30 27 H 1.958056 -3.039745 -0.178322 0
M  V30 28 H 2.627949 -0.823214 -0.040679 0
M  V30 29 H -1.404277 1.840818 -1.993630 0
M  V30 30 H -0.035543 4.352785 -1.663827 0
M  V30 31 H 3.855029 3.834568 0.022800 0
M  V30 32 H 3.486207 1.347950 0.110976 0
M  V30 33 H -1.519499 -2.120256 -1.091781 0
M  V30 34 H -3.411619 -2.430407 0.452874 0
M  V30 END ATOM
M  V30 BEGIN BOND
M  V30 1 1 1 2
M  V30 2 1 2 3
M  V30 3 2 3 4
M  V30 4 1 4 5
M  V30 5 2 5 6
M  V30 6 1 6 7
M  V30 7 1 7 8
M  V30 8 1 8 9
M  V30 9 2 9 10
M  V30 10 1 10 11
M  V30 11 1 11 12
M  V30 12 2 12 13
M  V30 13 1 13 14
M  V30 14 1 14 15
M  V30 15 2 14 16
M  V30 16 1 16 17
M  V30 17 2 17 18
M  V30 18 1 6 19
M  V30 19 2 19 20
M  V30 20 1 20 3
M  V30 21 1 18 9
M  V30 22 1 18 12
M  V30 23 1 1 21
M  V30 24 1 1 22
M  V30 25 1 1 23
M  V30 26 1 4 24
M  V30 27 1 5 25
M  V30 28 1 7 26
M  V30 29 1 7 27
M  V30 30 1 8 28
M  V30 31 1 11 29
M  V30 32 1 13 30
M  V30 33 1 16 31
M  V30 34 1 17 32
M  V30 35 1 19 33
M  V30 36 1 20 34
M  V30 END BOND
M  V30 END CTAB
M  END
>  <Dataset>  (800) 
ChEMBL_Kinases

>  <Ligand_Instance>  (800) 
nan

>  <PDB_ID>  (800) 
nan

>  <Standardized_SMILES>  (800) 
COc1ccc(CNc2n[nH]c3cc(F)ccc23)cc1

>  <Name>  (800) 
nan

>  <Pocket>  (800) 
nan

>  <ATP_Site>  (800) 
nan

>  <Peripheral>  (800) 
nan

>  <Num_H_Atoms_ProtBoundConf>  (800) 
nan

>  <Num_Resolved_Atoms>  (800) 
nan

>  <Num_Not_Resolved_Atoms>  (800) 
nan

$$$$
CHEMBL401749
     RDKit          3D

  0  0  0  0  0  0  0  0  0  0999 V3000
M  V30 BEGIN CTAB
M  V30 COUNTS 61 65 0 0 0
M  V30 BEGIN ATOM
M  V30 1 F -4.463161 -4.415109 1.085716 0
M  V30 2 C -3.215732 -3.890497 0.987700 0
M  V30 3 C -2.542209 -3.929042 -0.218576 0
M  V30 4 C -1.257118 -3.386586 -0.320065 0
M  V30 5 C -0.631931 -2.803633 0.769889 0
M  V30 6 C 0.677216 -2.303989 0.459433 0
M  V30 7 N 0.881424 -1.068051 -0.044713 0
M  V30 8 C 2.173642 -0.748956 -0.280173 0
M  V30 9 C 2.708917 0.511314 -0.794288 0
M  V30 10 C 2.831899 1.537681 0.329254 0
M  V30 11 C 1.436090 1.927109 0.777386 0
M  V30 12 N 0.655793 2.467883 -0.271414 0
M  V30 13 C -0.611428 2.911980 0.132492 0
M  V30 14 C -1.628707 1.898331 0.544555 0
M  V30 15 C -2.875446 2.714147 0.956422 0
M  V30 16 N -3.973150 1.836299 1.273821 0
M  V30 17 C -4.299081 0.917146 0.224038 0
M  V30 18 C -3.073657 0.160622 -0.247752 0
M  V30 19 N -2.099470 1.168386 -0.622411 0
M  V30 20 C 0.782621 1.964450 -1.570512 0
M  V30 21 C 1.982405 1.151377 -1.909137 0
M  V30 22 C 2.831361 -1.871115 0.105544 0
M  V30 23 C 1.948133 -2.831092 0.558637 0
M  V30 24 C 2.244212 -4.162087 1.065930 0
M  V30 25 C 1.890292 -5.421491 0.638687 0
M  V30 26 C 2.342499 -6.516651 1.345187 0
M  V30 27 N 3.112463 -6.405965 2.430219 0
M  V30 28 C 3.482328 -5.191439 2.882830 0
M  V30 29 C 3.056285 -4.055350 2.211600 0
M  V30 30 C -1.324635 -2.774498 1.973458 0
M  V30 31 C -2.586375 -3.313411 2.049222 0
M  V30 32 H -3.056920 -4.393304 -1.055404 0
M  V30 33 H -0.843655 -3.478886 -1.314313 0
M  V30 34 H 0.129054 -0.368580 -0.257737 0
M  V30 35 H 3.770700 0.317209 -1.111600 0
M  V30 36 H 3.432450 2.367622 -0.036741 0
M  V30 37 H 3.328024 1.044079 1.169907 0
M  V30 38 H 0.994298 1.129991 1.374784 0
M  V30 39 H 1.612839 2.773363 1.510819 0
M  V30 40 H -1.059642 3.537319 -0.699574 0
M  V30 41 H -0.440537 3.675620 0.957011 0
M  V30 42 H -1.376503 1.275322 1.400506 0
M  V30 43 H -2.606433 3.248456 1.883507 0
M  V30 44 H -3.155369 3.424080 0.179796 0
M  V30 45 H -3.893231 1.395006 2.212502 0
M  V30 46 H -5.043817 0.199876 0.611911 0
M  V30 47 H -4.756323 1.440721 -0.638650 0
M  V30 48 H -3.323635 -0.409275 -1.171810 0
M  V30 49 H -2.716015 -0.507365 0.537260 0
M  V30 50 H -2.440619 1.791040 -1.370127 0
M  V30 51 H -0.137250 1.400302 -1.848716 0
M  V30 52 H 0.787497 2.861344 -2.277662 0
M  V30 53 H 2.728179 1.832737 -2.424161 0
M  V30 54 H 1.689367 0.443275 -2.722790 0
M  V30 55 H 3.909118 -2.050333 0.085189 0
M  V30 56 H 1.276153 -5.363420 -0.237136 0
M  V30 57 H 2.003285 -7.461505 0.917377 0
M  V30 58 H 4.107445 -5.167283 3.769459 0
M  V30 59 H 3.425216 -3.141720 2.681154 0
M  V30 60 H -0.770472 -2.304763 2.770390 0
M  V30 61 H -3.056496 -3.249307 3.017304 0
M  V30 END ATOM
M  V30 BEGIN BOND
M  V30 1 1 1 2
M  V30 2 2 2 3
M  V30 3 1 3 4
M  V30 4 2 4 5
M  V30 5 1 5 6
M  V30 6 1 6 7
M  V30 7 1 7 8
M  V30 8 1 8 9
M  V30 9 1 9 10
M  V30 10 1 10 11
M  V30 11 1 11 12
M  V30 12 1 12 13
M  V30 13 1 13 14
M  V30 14 1 14 15
M  V30 15 1 15 16
M  V30 16 1 16 17
M  V30 17 1 17 18
M  V30 18 1 18 19
M  V30 19 1 12 20
M  V30 20 1 20 21
M  V30 21 2 8 22
M  V30 22 1 22 23
M  V30 23 1 23 24
M  V30 24 2 24 25
M  V30 25 1 25 26
M  V30 26 2 26 27
M  V30 27 1 27 28
M  V30 28 2 28 29
M  V30 29 1 5 30
M  V30 30 2 30 31
M  V30 31 1 31 2
M  V30 32 2 23 6
M  V30 33 1 29 24
M  V30 34 1 21 9
M  V30 35 1 19 14
M  V30 36 1 3 32
M  V30 37 1 4 33
M  V30 38 1 7 34
M  V30 39 1 9 35
M  V30 40 1 10 36
M  V30 41 1 10 37
M  V30 42 1 11 38
M  V30 43 1 11 39
M  V30 44 1 13 40
M  V30 45 1 13 41
M  V30 46 1 14 42
M  V30 47 1 15 43
M  V30 48 1 15 44
M  V30 49 1 16 45
M  V30 50 1 17 46
M  V30 51 1 17 47
M  V30 52 1 18 48
M  V30 53 1 18 49
M  V30 54 1 19 50
M  V30 55 1 20 51
M  V30 56 1 20 52
M  V30 57 1 21 53
M  V30 58 1 21 54
M  V30 59 1 22 55
M  V30 60 1 25 56
M  V30 61 1 26 57
M  V30 62 1 28 58
M  V30 63 1 29 59
M  V30 64 1 30 60
M  V30 65 1 31 61
M  V30 END BOND
M  V30 END CTAB
M  END
>  <Dataset>  (801) 
ChEMBL_Kinases

>  <Ligand_Instance>  (801) 
nan

>  <PDB_ID>  (801) 
nan

>  <Standardized_SMILES>  (801) 
Fc1ccc(-c2[nH]c(C3CCN(CC4CNCCN4)CC3)cc2-c2ccncc2)cc1

>  <Name>  (801) 
nan

>  <Pocket>  (801) 
nan

>  <ATP_Site>  (801) 
nan

>  <Peripheral>  (801) 
nan

>  <Num_H_Atoms_ProtBoundConf>  (801) 
nan

>  <Num_Resolved_Atoms>  (801) 
nan

>  <Num_Not_Resolved_Atoms>  (801) 
nan

$$$$
CHEMBL4866279
     RDKit          3D

  0  0  0  0  0  0  0  0  0  0999 V3000
M  V30 BEGIN CTAB
M  V30 COUNTS 46 49 0 0 0
M  V30 BEGIN ATOM
M  V30 1 C -0.308936 -5.670868 4.611572 0
M  V30 2 C -0.296079 -6.473559 3.341556 0
M  V30 3 C 0.807988 -5.969659 2.423984 0
M  V30 4 N 0.671536 -4.597171 2.049984 0
M  V30 5 C -0.441649 -4.078681 1.345264 0
M  V30 6 O -1.291020 -4.976229 1.089995 0
M  V30 7 C -0.681460 -2.712369 0.919498 0
M  V30 8 O -1.794213 -2.469771 0.273851 0
M  V30 9 C -1.877629 -1.202383 -0.046967 0
M  V30 10 C -2.859824 -0.508327 -0.721437 0
M  V30 11 C -2.691119 0.855883 -0.929005 0
M  V30 12 C -1.548129 1.513480 -0.463554 0
M  V30 13 N -1.394557 2.912383 -0.686001 0
M  V30 14 C -0.227788 3.624825 -0.225078 0
M  V30 15 N -0.303020 4.141048 1.022823 0
M  V30 16 C 0.756452 4.830168 1.536650 0
M  V30 17 N 1.886020 5.010366 0.824297 0
M  V30 18 C 1.959817 4.499293 -0.410489 0
M  V30 19 C 3.083293 4.640187 -1.206694 0
M  V30 20 C 3.114141 4.096523 -2.473415 0
M  V30 21 C 2.044378 3.396189 -3.002556 0
M  V30 22 Cl 2.182321 2.744285 -4.622155 0
M  V30 23 N 0.948323 3.261280 -2.219956 0
M  V30 24 C 0.925290 3.794737 -0.984221 0
M  V30 25 C -0.549771 0.842890 0.214416 0
M  V30 26 C -0.772430 -0.507572 0.390218 0
M  V30 27 C -0.018849 -1.511881 1.010636 0
M  V30 28 C 1.287494 -1.393650 1.680762 0
M  V30 29 H 0.067046 -6.257128 5.481927 0
M  V30 30 H -1.344799 -5.318746 4.817975 0
M  V30 31 H 0.393943 -4.816093 4.491605 0
M  V30 32 H -0.047041 -7.544856 3.521497 0
M  V30 33 H -1.296225 -6.439193 2.891603 0
M  V30 34 H 1.746494 -6.119034 2.994341 0
M  V30 35 H 0.913832 -6.638519 1.532786 0
M  V30 36 H 1.426857 -3.924436 2.302879 0
M  V30 37 H -3.750108 -0.993561 -1.089945 0
M  V30 38 H -3.471997 1.406416 -1.465036 0
M  V30 39 H -2.138883 3.446395 -1.194425 0
M  V30 40 H 0.583773 5.196377 2.540710 0
M  V30 41 H 3.924367 5.190395 -0.791711 0
M  V30 42 H 4.034975 4.260492 -3.015773 0
M  V30 43 H 0.347835 1.284397 0.596225 0
M  V30 44 H 2.104561 -1.953561 1.182755 0
M  V30 45 H 1.575927 -0.302449 1.572871 0
M  V30 46 H 1.207160 -1.614780 2.773641 0
M  V30 END ATOM
M  V30 BEGIN BOND
M  V30 1 1 1 2
M  V30 2 1 2 3
M  V30 3 1 3 4
M  V30 4 1 4 5
M  V30 5 2 5 6
M  V30 6 1 5 7
M  V30 7 1 7 8
M  V30 8 1 8 9
M  V30 9 2 9 10
M  V30 10 1 10 11
M  V30 11 2 11 12
M  V30 12 1 12 13
M  V30 13 1 13 14
M  V30 14 2 14 15
M  V30 15 1 15 16
M  V30 16 2 16 17
M  V30 17 1 17 18
M  V30 18 2 18 19
M  V30 19 1 19 20
M  V30 20 2 20 21
M  V30 21 1 21 22
M  V30 22 1 21 23
M  V30 23 2 23 24
M  V30 24 1 12 25
M  V30 25 2 25 26
M  V30 26 1 26 27
M  V30 27 1 27 28
M  V30 28 2 27 7
M  V30 29 1 26 9
M  V30 30 1 24 14
M  V30 31 1 24 18
M  V30 32 1 1 29
M  V30 33 1 1 30
M  V30 34 1 1 31
M  V30 35 1 2 32
M  V30 36 1 2 33
M  V30 37 1 3 34
M  V30 38 1 3 35
M  V30 39 1 4 36
M  V30 40 1 10 37
M  V30 41 1 11 38
M  V30 42 1 13 39
M  V30 43 1 16 40
M  V30 44 1 19 41
M  V30 45 1 20 42
M  V30 46 1 25 43
M  V30 47 1 28 44
M  V30 48 1 28 45
M  V30 49 1 28 46
M  V30 END BOND
M  V30 END CTAB
M  END
>  <Dataset>  (802) 
ChEMBL_Kinases

>  <Ligand_Instance>  (802) 
nan

>  <PDB_ID>  (802) 
nan

>  <Standardized_SMILES>  (802) 
CCCNC(=O)c1oc2ccc(Nc3ncnc4ccc(Cl)nc34)cc2c1C

>  <Name>  (802) 
nan

>  <Pocket>  (802) 
nan

>  <ATP_Site>  (802) 
nan

>  <Peripheral>  (802) 
nan

>  <Num_H_Atoms_ProtBoundConf>  (802) 
nan

>  <Num_Resolved_Atoms>  (802) 
nan

>  <Num_Not_Resolved_Atoms>  (802) 
nan

$$$$
CHEMBL96432
     RDKit          3D

  0  0  0  0  0  0  0  0  0  0999 V3000
M  V30 BEGIN CTAB
M  V30 COUNTS 56 60 0 0 0
M  V30 BEGIN ATOM
M  V30 1 O 3.016330 -3.915059 -1.731420 0
M  V30 2 C 2.736301 -2.909961 -1.055843 0
M  V30 3 N 3.747201 -1.981433 -0.665127 0
M  V30 4 C 3.417475 -0.820568 0.116376 0
M  V30 5 C 1.986679 -0.725575 0.438322 0
M  V30 6 C 1.638598 0.377839 1.187396 0
M  V30 7 C 2.621731 1.385101 1.632140 0
M  V30 8 C 2.824587 2.451705 0.751100 0
M  V30 9 C 3.737482 3.386442 1.164722 0
M  V30 10 C 4.447517 3.353608 2.347194 0
M  V30 11 F 5.338773 4.310034 2.701346 0
M  V30 12 C 4.191970 2.258288 3.175774 0
M  V30 13 C 3.291887 1.290541 2.820212 0
M  V30 14 F 3.066244 0.242674 3.643265 0
M  V30 15 C 0.361093 0.673733 1.605832 0
M  V30 16 C -0.648354 -0.222185 1.235002 0
M  V30 17 N -2.035308 -0.061793 1.597039 0
M  V30 18 C -3.184814 -0.888918 1.277358 0
M  V30 19 C -4.419542 -0.297016 1.978516 0
M  V30 20 C -4.873699 0.894389 1.124220 0
M  V30 21 N -3.709250 1.437487 0.460215 0
M  V30 22 C -3.223574 0.605297 -0.622091 0
M  V30 23 C -3.548874 -0.824727 -0.199834 0
M  V30 24 C -0.323143 -1.333776 0.485219 0
M  V30 25 C 0.974527 -1.580447 0.093565 0
M  V30 26 N 1.385179 -2.718532 -0.688599 0
M  V30 27 C 0.374086 -3.646569 -1.078984 0
M  V30 28 C 0.057046 -4.712685 -0.289795 0
M  V30 29 Cl 0.852905 -5.006438 1.222026 0
M  V30 30 C -0.930630 -5.570094 -0.728888 0
M  V30 31 C -1.591904 -5.373895 -1.928734 0
M  V30 32 C -1.222844 -4.268621 -2.687738 0
M  V30 33 C -0.242815 -3.379666 -2.296955 0
M  V30 34 Cl 0.210275 -1.991305 -3.265736 0
M  V30 35 H 4.749732 -2.105101 -0.926265 0
M  V30 36 H 3.737614 0.133711 -0.346649 0
M  V30 37 H 3.977431 -0.907671 1.072269 0
M  V30 38 H 2.299828 2.541489 -0.197032 0
M  V30 39 H 3.937561 4.247260 0.512308 0
M  V30 40 H 4.759041 2.239843 4.111344 0
M  V30 41 H 0.076681 1.528605 2.188892 0
M  V30 42 H -2.187645 0.811053 2.188657 0
M  V30 43 H -3.056036 -1.919804 1.652260 0
M  V30 44 H -4.205355 0.029879 3.003795 0
M  V30 45 H -5.211143 -1.068517 1.906496 0
M  V30 46 H -5.259629 1.702899 1.778986 0
M  V30 47 H -5.703477 0.633172 0.448794 0
M  V30 48 H -3.815554 2.438163 0.201608 0
M  V30 49 H -3.665965 0.883185 -1.588651 0
M  V30 50 H -2.104995 0.687550 -0.601126 0
M  V30 51 H -4.653113 -0.946028 -0.304811 0
M  V30 52 H -3.096907 -1.589868 -0.818670 0
M  V30 53 H -0.986945 -2.098058 0.136686 0
M  V30 54 H -1.211695 -6.423154 -0.137554 0
M  V30 55 H -2.371407 -6.000749 -2.333901 0
M  V30 56 H -1.707649 -4.061598 -3.641688 0
M  V30 END ATOM
M  V30 BEGIN BOND
M  V30 1 2 1 2
M  V30 2 1 2 3
M  V30 3 1 3 4
M  V30 4 1 4 5
M  V30 5 2 5 6
M  V30 6 1 6 7
M  V30 7 2 7 8
M  V30 8 1 8 9
M  V30 9 2 9 10
M  V30 10 1 10 11
M  V30 11 1 10 12
M  V30 12 2 12 13
M  V30 13 1 13 14
M  V30 14 1 6 15
M  V30 15 2 15 16
M  V30 16 1 16 17
M  V30 17 1 17 18
M  V30 18 1 18 19
M  V30 19 1 19 20
M  V30 20 1 20 21
M  V30 21 1 21 22
M  V30 22 1 22 23
M  V30 23 1 16 24
M  V30 24 2 24 25
M  V30 25 1 25 26
M  V30 26 1 26 27
M  V30 27 2 27 28
M  V30 28 1 28 29
M  V30 29 1 28 30
M  V30 30 2 30 31
M  V30 31 1 31 32
M  V30 32 2 32 33
M  V30 33 1 33 34
M  V30 34 1 26 2
M  V30 35 1 33 27
M  V30 36 1 25 5
M  V30 37 1 13 7
M  V30 38 1 23 18
M  V30 39 1 3 35
M  V30 40 1 4 36
M  V30 41 1 4 37
M  V30 42 1 8 38
M  V30 43 1 9 39
M  V30 44 1 12 40
M  V30 45 1 15 41
M  V30 46 1 17 42
M  V30 47 1 18 43
M  V30 48 1 19 44
M  V30 49 1 19 45
M  V30 50 1 20 46
M  V30 51 1 20 47
M  V30 52 1 21 48
M  V30 53 1 22 49
M  V30 54 1 22 50
M  V30 55 1 23 51
M  V30 56 1 23 52
M  V30 57 1 24 53
M  V30 58 1 30 54
M  V30 59 1 31 55
M  V30 60 1 32 56
M  V30 END BOND
M  V30 END CTAB
M  END
>  <Dataset>  (803) 
ChEMBL_Kinases

>  <Ligand_Instance>  (803) 
nan

>  <PDB_ID>  (803) 
nan

>  <Standardized_SMILES>  (803) 
O=C1NCc2c(-c3ccc(F)cc3F)cc(NC3CCNCC3)cc2N1c1c(Cl)cccc1Cl

>  <Name>  (803) 
nan

>  <Pocket>  (803) 
nan

>  <ATP_Site>  (803) 
nan

>  <Peripheral>  (803) 
nan

>  <Num_H_Atoms_ProtBoundConf>  (803) 
nan

>  <Num_Resolved_Atoms>  (803) 
nan

>  <Num_Not_Resolved_Atoms>  (803) 
nan

$$$$
CHEMBL401614
     RDKit          3D

  0  0  0  0  0  0  0  0  0  0999 V3000
M  V30 BEGIN CTAB
M  V30 COUNTS 73 78 0 0 0
M  V30 BEGIN ATOM
M  V30 1 C 3.071548 -3.447042 2.492254 0
M  V30 2 N 3.946827 -4.459731 1.997685 0
M  V30 3 C 3.244268 -5.414970 1.205655 0
M  V30 4 C 3.577576 -5.047997 -0.224245 0
M  V30 5 C 4.977807 -4.634739 -0.155862 0
M  V30 6 N 5.468734 -3.745787 -1.175322 0
M  V30 7 C 6.746115 -4.168596 -1.800405 0
M  V30 8 C 5.093805 -2.524832 -1.820486 0
M  V30 9 O 5.713765 -1.831411 -2.699477 0
M  V30 10 C 3.885752 -1.688637 -1.702721 0
M  V30 11 C 3.062511 -1.673525 -2.854568 0
M  V30 12 C 1.844565 -0.991317 -3.047680 0
M  V30 13 C 1.461440 -0.261373 -1.920699 0
M  V30 14 C 2.208109 -0.238703 -0.788842 0
M  V30 15 N 1.673120 0.517728 0.255366 0
M  V30 16 C 0.295107 0.661287 0.648880 0
M  V30 17 N -0.106885 1.741054 1.385552 0
M  V30 18 C -1.391610 1.859595 1.772899 0
M  V30 19 N -2.220891 0.883579 1.398118 0
M  V30 20 C -1.851871 -0.168693 0.686158 0
M  V30 21 C -2.715646 -1.134800 0.324786 0
M  V30 22 C -1.853919 -1.956157 -0.369941 0
M  V30 23 N -0.574621 -1.456915 -0.386026 0
M  V30 24 N -0.587178 -0.320399 0.287056 0
M  V30 25 C -4.170251 -1.098245 0.666744 0
M  V30 26 C -4.918765 -0.938466 -0.606712 0
M  V30 27 C -6.412684 -0.749520 -0.516304 0
M  V30 28 C -6.751624 0.477826 0.299464 0
M  V30 29 C -5.904985 1.609523 -0.250195 0
M  V30 30 O -5.243080 2.278691 -1.059754 0
M  V30 31 N -5.389581 2.737047 0.325304 0
M  V30 32 C -4.869111 3.869849 0.896034 0
M  V30 33 C -5.018269 5.189796 1.125095 0
M  V30 34 C -3.998835 5.828820 1.812405 0
M  V30 35 C -2.844466 5.271113 2.295054 0
M  V30 36 C -2.501949 3.911544 2.164741 0
M  V30 37 C -3.634084 3.550139 1.479415 0
M  V30 38 N -1.464850 3.050723 2.524679 0
M  V30 39 C 3.383587 -0.926194 -0.674935 0
M  V30 40 C 5.063435 -3.973163 1.221751 0
M  V30 41 H 2.968561 -3.563778 3.608843 0
M  V30 42 H 3.431475 -2.401719 2.259941 0
M  V30 43 H 2.044045 -3.467295 2.119255 0
M  V30 44 H 3.668512 -6.443298 1.350710 0
M  V30 45 H 2.146796 -5.389979 1.397396 0
M  V30 46 H 3.338799 -5.894753 -0.919701 0
M  V30 47 H 2.873628 -4.184098 -0.433631 0
M  V30 48 H 5.652120 -5.530078 -0.073487 0
M  V30 49 H 7.040776 -5.183881 -1.441214 0
M  V30 50 H 6.676642 -4.161398 -2.908423 0
M  V30 51 H 7.524461 -3.459424 -1.413868 0
M  V30 52 H 3.407241 -2.262761 -3.716148 0
M  V30 53 H 1.361287 -1.087568 -4.006884 0
M  V30 54 H 0.507455 0.269287 -2.146038 0
M  V30 55 H 2.423989 1.043527 0.815673 0
M  V30 56 H -2.147133 -2.901315 -0.848042 0
M  V30 57 H -4.415180 -0.402691 1.459759 0
M  V30 58 H -4.412913 -2.108810 1.094065 0
M  V30 59 H -4.769168 -1.763450 -1.325722 0
M  V30 60 H -4.557119 -0.034802 -1.175411 0
M  V30 61 H -6.869627 -1.630900 -0.061990 0
M  V30 62 H -6.801511 -0.607911 -1.530522 0
M  V30 63 H -6.549217 0.431538 1.356922 0
M  V30 64 H -7.804120 0.722186 0.127797 0
M  V30 65 H -5.948303 2.705610 1.237594 0
M  V30 66 H -5.967238 5.373245 0.679751 0
M  V30 67 H -4.244417 6.903694 1.917727 0
M  V30 68 H -2.098132 5.820621 2.805239 0
M  V30 69 H -3.450931 2.512557 1.344444 0
M  V30 70 H -1.086029 3.602879 3.226387 0
M  V30 71 H 3.997927 -0.912030 0.192917 0
M  V30 72 H 4.963270 -2.888082 1.056187 0
M  V30 73 H 6.041872 -4.197852 1.702678 0
M  V30 END ATOM
M  V30 BEGIN BOND
M  V30 1 1 1 2
M  V30 2 1 2 3
M  V30 3 1 3 4
M  V30 4 1 4 5
M  V30 5 1 5 6
M  V30 6 1 6 7
M  V30 7 1 6 8
M  V30 8 2 8 9
M  V30 9 1 8 10
M  V30 10 2 10 11
M  V30 11 1 11 12
M  V30 12 2 12 13
M  V30 13 1 13 14
M  V30 14 1 14 15
M  V30 15 1 15 16
M  V30 16 2 16 17
M  V30 17 1 17 18
M  V30 18 2 18 19
M  V30 19 1 19 20
M  V30 20 2 20 21
M  V30 21 1 21 22
M  V30 22 2 22 23
M  V30 23 1 23 24
M  V30 24 1 21 25
M  V30 25 1 25 26
M  V30 26 1 26 27
M  V30 27 1 27 28
M  V30 28 1 28 29
M  V30 29 2 29 30
M  V30 30 1 29 31
M  V30 31 1 31 32
M  V30 32 2 32 33
M  V30 33 1 33 34
M  V30 34 2 34 35
M  V30 35 1 35 36
M  V30 36 2 36 37
M  V30 37 1 36 38
M  V30 38 2 14 39
M  V30 39 1 5 40
M  V30 40 1 40 2
M  V30 41 1 39 10
M  V30 42 1 24 16
M  V30 43 1 37 32
M  V30 44 1 38 18
M  V30 45 1 24 20
M  V30 46 1 1 41
M  V30 47 1 1 42
M  V30 48 1 1 43
M  V30 49 1 3 44
M  V30 50 1 3 45
M  V30 51 1 4 46
M  V30 52 1 4 47
M  V30 53 1 5 48
M  V30 54 1 7 49
M  V30 55 1 7 50
M  V30 56 1 7 51
M  V30 57 1 11 52
M  V30 58 1 12 53
M  V30 59 1 13 54
M  V30 60 1 15 55
M  V30 61 1 22 56
M  V30 62 1 25 57
M  V30 63 1 25 58
M  V30 64 1 26 59
M  V30 65 1 26 60
M  V30 66 1 27 61
M  V30 67 1 27 62
M  V30 68 1 28 63
M  V30 69 1 28 64
M  V30 70 1 31 65
M  V30 71 1 33 66
M  V30 72 1 34 67
M  V30 73 1 35 68
M  V30 74 1 37 69
M  V30 75 1 38 70
M  V30 76 1 39 71
M  V30 77 1 40 72
M  V30 78 1 40 73
M  V30 END BOND
M  V30 END CTAB
M  END
>  <Dataset>  (804) 
ChEMBL_Kinases

>  <Ligand_Instance>  (804) 
nan

>  <PDB_ID>  (804) 
nan

>  <Standardized_SMILES>  (804) 
CN1CCC(N(C)C(=O)c2cccc(Nc3nc4nc5c(cnn35)CCCCC(=O)Nc3cccc(c3)N4)c2)C1

>  <Name>  (804) 
nan

>  <Pocket>  (804) 
nan

>  <ATP_Site>  (804) 
nan

>  <Peripheral>  (804) 
nan

>  <Num_H_Atoms_ProtBoundConf>  (804) 
nan

>  <Num_Resolved_Atoms>  (804) 
nan

>  <Num_Not_Resolved_Atoms>  (804) 
nan

$$$$
CHEMBL401570
     RDKit          3D

  0  0  0  0  0  0  0  0  0  0999 V3000
M  V30 BEGIN CTAB
M  V30 COUNTS 47 50 0 0 0
M  V30 BEGIN ATOM
M  V30 1 C -1.186073 -3.519890 4.264041 0
M  V30 2 C -0.322045 -3.354039 3.071401 0
M  V30 3 C 0.172012 -4.468872 2.422154 0
M  V30 4 C 0.968721 -4.299072 1.322451 0
M  V30 5 C 1.277120 -3.026604 0.864407 0
M  V30 6 C 0.760785 -1.919953 1.544459 0
M  V30 7 C 1.128912 -0.615903 1.003283 0
M  V30 8 N 2.331718 -0.033379 0.852353 0
M  V30 9 C 2.226381 1.183814 0.308128 0
M  V30 10 C 3.372301 2.090961 0.009454 0
M  V30 11 C 2.860488 3.369089 -0.595104 0
M  V30 12 C 4.118264 2.367240 1.294739 0
M  V30 13 C 4.316619 1.351194 -0.904982 0
M  V30 14 N 0.912138 1.409615 0.093910 0
M  V30 15 C 0.227842 0.324430 0.511069 0
M  V30 16 C -1.216130 0.149183 0.461371 0
M  V30 17 C -2.045287 1.005678 1.154555 0
M  V30 18 C -3.438420 0.926784 1.174297 0
M  V30 19 C -3.958265 -0.117541 0.416135 0
M  V30 20 N -5.322561 -0.192059 0.437274 0
M  V30 21 C -5.943633 -1.179499 -0.272640 0
M  V30 22 C -5.186164 -2.075444 -0.991556 0
M  V30 23 N -3.827976 -1.973549 -0.991568 0
M  V30 24 C -3.191959 -1.014247 -0.303807 0
M  V30 25 C -1.822957 -0.856729 -0.262806 0
M  V30 26 N -0.032870 -2.100347 2.640281 0
M  V30 27 H -1.802695 -4.439069 4.154494 0
M  V30 28 H -0.539294 -3.713636 5.158024 0
M  V30 29 H -1.878599 -2.690721 4.439048 0
M  V30 30 H -0.083693 -5.471352 2.800401 0
M  V30 31 H 1.351040 -5.181205 0.820461 0
M  V30 32 H 1.905149 -2.923299 -0.001344 0
M  V30 33 H 3.213348 -0.513607 1.140473 0
M  V30 34 H 2.605227 3.276818 -1.660661 0
M  V30 35 H 3.642779 4.135345 -0.476878 0
M  V30 36 H 1.937419 3.653294 -0.021904 0
M  V30 37 H 4.199337 1.401424 1.828572 0
M  V30 38 H 5.133431 2.715335 1.009771 0
M  V30 39 H 3.564120 3.127196 1.885640 0
M  V30 40 H 5.373506 1.680473 -0.760983 0
M  V30 41 H 4.323777 0.269340 -0.628740 0
M  V30 42 H 4.042901 1.446405 -1.977798 0
M  V30 43 H -1.578470 1.794160 1.722533 0
M  V30 44 H -4.045835 1.611829 1.725956 0
M  V30 45 H -7.034090 -1.166240 -0.200777 0
M  V30 46 H -5.709378 -2.841968 -1.540449 0
M  V30 47 H -1.208855 -1.545651 -0.817539 0
M  V30 END ATOM
M  V30 BEGIN BOND
M  V30 1 1 1 2
M  V30 2 2 2 3
M  V30 3 1 3 4
M  V30 4 2 4 5
M  V30 5 1 5 6
M  V30 6 1 6 7
M  V30 7 1 7 8
M  V30 8 1 8 9
M  V30 9 1 9 10
M  V30 10 1 10 11
M  V30 11 1 10 12
M  V30 12 1 10 13
M  V30 13 2 9 14
M  V30 14 1 14 15
M  V30 15 1 15 16
M  V30 16 2 16 17
M  V30 17 1 17 18
M  V30 18 2 18 19
M  V30 19 1 19 20
M  V30 20 2 20 21
M  V30 21 1 21 22
M  V30 22 2 22 23
M  V30 23 1 23 24
M  V30 24 2 24 25
M  V30 25 2 6 26
M  V30 26 1 26 2
M  V30 27 2 15 7
M  V30 28 1 25 16
M  V30 29 1 24 19
M  V30 30 1 1 27
M  V30 31 1 1 28
M  V30 32 1 1 29
M  V30 33 1 3 30
M  V30 34 1 4 31
M  V30 35 1 5 32
M  V30 36 1 8 33
M  V30 37 1 11 34
M  V30 38 1 11 35
M  V30 39 1 11 36
M  V30 40 1 12 37
M  V30 41 1 12 38
M  V30 42 1 12 39
M  V30 43 1 13 40
M  V30 44 1 13 41
M  V30 45 1 13 42
M  V30 46 1 17 43
M  V30 47 1 18 44
M  V30 48 1 21 45
M  V30 49 1 22 46
M  V30 50 1 25 47
M  V30 END BOND
M  V30 END CTAB
M  END
>  <Dataset>  (805) 
ChEMBL_Kinases

>  <Ligand_Instance>  (805) 
nan

>  <PDB_ID>  (805) 
nan

>  <Standardized_SMILES>  (805) 
Cc1cccc(-c2[nH]c(C(C)(C)C)nc2-c2ccc3nccnc3c2)n1

>  <Name>  (805) 
nan

>  <Pocket>  (805) 
nan

>  <ATP_Site>  (805) 
nan

>  <Peripheral>  (805) 
nan

>  <Num_H_Atoms_ProtBoundConf>  (805) 
nan

>  <Num_Resolved_Atoms>  (805) 
nan

>  <Num_Not_Resolved_Atoms>  (805) 
nan

$$$$
CHEMBL401546
     RDKit          3D

  0  0  0  0  0  0  0  0  0  0999 V3000
M  V30 BEGIN CTAB
M  V30 COUNTS 58 62 0 0 0
M  V30 BEGIN ATOM
M  V30 1 O -2.416486 -3.741485 1.909274 0
M  V30 2 C -1.504481 -3.484132 1.085870 0
M  V30 3 C -0.211482 -3.301229 1.749206 0
M  V30 4 N 0.911069 -3.043524 0.958794 0
M  V30 5 C 2.120501 -2.617865 1.595355 0
M  V30 6 C 3.223863 -2.528677 0.570348 0
M  V30 7 C 2.610966 -1.929934 -0.707217 0
M  V30 8 C 1.827650 -0.760791 -0.322404 0
M  V30 9 C 2.506953 0.359818 0.111928 0
M  V30 10 C 1.572181 1.323990 0.430735 0
M  V30 11 C 1.655878 2.689514 0.933259 0
M  V30 12 C 1.237657 3.881981 0.412432 0
M  V30 13 C 1.475344 5.038336 1.119014 0
M  V30 14 N 2.110692 5.025395 2.315350 0
M  V30 15 C 2.538867 3.861370 2.863006 0
M  V30 16 C 2.309210 2.676523 2.164306 0
M  V30 17 C 0.308534 0.834178 0.205568 0
M  V30 18 C -1.126413 1.124532 0.289372 0
M  V30 19 C -2.058887 1.353495 -0.683201 0
M  V30 20 C -3.365533 1.549000 -0.329906 0
M  V30 21 C -3.764989 1.521239 0.987422 0
M  V30 22 F -5.064869 1.716317 1.262938 0
M  V30 23 C -2.840135 1.293686 1.981437 0
M  V30 24 C -1.494767 1.090158 1.640259 0
M  V30 25 N 0.508537 -0.436491 -0.255030 0
M  V30 26 C 1.809654 -3.062631 -1.308213 0
M  V30 27 C 1.136903 -3.857330 -0.199638 0
M  V30 28 N -2.143158 -3.473336 -0.211938 0
M  V30 29 C -3.561958 -3.728331 -0.376043 0
M  V30 30 C -3.509497 -2.687709 -1.512009 0
M  V30 31 C -2.139997 -3.314683 -1.684320 0
M  V30 32 H -0.281674 -2.475650 2.529145 0
M  V30 33 H -0.005092 -4.210116 2.380389 0
M  V30 34 H 2.445737 -3.332976 2.378298 0
M  V30 35 H 2.011002 -1.604292 2.057705 0
M  V30 36 H 3.610249 -3.530186 0.286578 0
M  V30 37 H 4.024597 -1.849725 0.901896 0
M  V30 38 H 3.473918 -1.609811 -1.315636 0
M  V30 39 H 3.544697 0.631451 0.247550 0
M  V30 40 H 0.749945 3.753424 -0.535341 0
M  V30 41 H 1.125657 5.942722 0.661055 0
M  V30 42 H 3.051942 3.902526 3.835533 0
M  V30 43 H 2.704514 1.813806 2.721996 0
M  V30 44 H -1.610265 1.347634 -1.663733 0
M  V30 45 H -4.053253 1.724258 -1.166049 0
M  V30 46 H -3.230581 1.287330 2.977059 0
M  V30 47 H -0.901517 0.927286 2.520355 0
M  V30 48 H -0.149006 -1.186419 -0.576317 0
M  V30 49 H 2.525615 -3.744287 -1.798502 0
M  V30 50 H 1.129197 -2.676573 -2.063253 0
M  V30 51 H 1.821651 -4.672232 0.121523 0
M  V30 52 H 0.214983 -4.304512 -0.555208 0
M  V30 53 H -4.232782 -3.426851 0.446984 0
M  V30 54 H -3.715256 -4.721218 -0.834483 0
M  V30 55 H -3.408915 -1.661961 -1.109451 0
M  V30 56 H -4.196566 -2.854164 -2.337315 0
M  V30 57 H -2.127918 -4.308356 -2.167250 0
M  V30 58 H -1.438077 -2.570346 -2.052221 0
M  V30 END ATOM
M  V30 BEGIN BOND
M  V30 1 2 1 2
M  V30 2 1 2 3
M  V30 3 1 3 4
M  V30 4 1 4 5
M  V30 5 1 5 6
M  V30 6 1 6 7
M  V30 7 1 7 8
M  V30 8 2 8 9
M  V30 9 1 9 10
M  V30 10 1 10 11
M  V30 11 2 11 12
M  V30 12 1 12 13
M  V30 13 2 13 14
M  V30 14 1 14 15
M  V30 15 2 15 16
M  V30 16 2 10 17
M  V30 17 1 17 18
M  V30 18 2 18 19
M  V30 19 1 19 20
M  V30 20 2 20 21
M  V30 21 1 21 22
M  V30 22 1 21 23
M  V30 23 2 23 24
M  V30 24 1 17 25
M  V30 25 1 7 26
M  V30 26 1 26 27
M  V30 27 1 2 28
M  V30 28 1 28 29
M  V30 29 1 29 30
M  V30 30 1 30 31
M  V30 31 1 27 4
M  V30 32 1 31 28
M  V30 33 1 25 8
M  V30 34 1 16 11
M  V30 35 1 24 18
M  V30 36 1 3 32
M  V30 37 1 3 33
M  V30 38 1 5 34
M  V30 39 1 5 35
M  V30 40 1 6 36
M  V30 41 1 6 37
M  V30 42 1 7 38
M  V30 43 1 9 39
M  V30 44 1 12 40
M  V30 45 1 13 41
M  V30 46 1 15 42
M  V30 47 1 16 43
M  V30 48 1 19 44
M  V30 49 1 20 45
M  V30 50 1 23 46
M  V30 51 1 24 47
M  V30 52 1 25 48
M  V30 53 1 26 49
M  V30 54 1 26 50
M  V30 55 1 27 51
M  V30 56 1 27 52
M  V30 57 1 29 53
M  V30 58 1 29 54
M  V30 59 1 30 55
M  V30 60 1 30 56
M  V30 61 1 31 57
M  V30 62 1 31 58
M  V30 END BOND
M  V30 END CTAB
M  END
>  <Dataset>  (806) 
ChEMBL_Kinases

>  <Ligand_Instance>  (806) 
nan

>  <PDB_ID>  (806) 
nan

>  <Standardized_SMILES>  (806) 
O=C(CN1CCC(c2cc(-c3ccncc3)c(-c3ccc(F)cc3)[nH]2)CC1)N1CCC1

>  <Name>  (806) 
nan

>  <Pocket>  (806) 
nan

>  <ATP_Site>  (806) 
nan

>  <Peripheral>  (806) 
nan

>  <Num_H_Atoms_ProtBoundConf>  (806) 
nan

>  <Num_Resolved_Atoms>  (806) 
nan

>  <Num_Not_Resolved_Atoms>  (806) 
nan

$$$$
CHEMBL401544
     RDKit          3D

  0  0  0  0  0  0  0  0  0  0999 V3000
M  V30 BEGIN CTAB
M  V30 COUNTS 67 72 0 0 0
M  V30 BEGIN ATOM
M  V30 1 O 4.495150 0.943026 3.435421 0
M  V30 2 C 5.094997 -0.033929 3.872012 0
M  V30 3 C 5.323922 -1.377965 4.389979 0
M  V30 4 C 4.171713 -2.290641 4.242682 0
M  V30 5 C 2.916790 -2.060408 4.976300 0
M  V30 6 C 2.053213 -0.886487 4.649370 0
M  V30 7 C 1.477897 -0.872673 3.308729 0
M  V30 8 C 0.759037 -2.039748 2.993299 0
M  V30 9 N 0.233083 -1.987221 1.745102 0
M  V30 10 N 0.576080 -0.809270 1.199647 0
M  V30 11 C 0.376078 -0.185111 0.019303 0
M  V30 12 N -0.418745 -0.959970 -0.867450 0
M  V30 13 C -1.816193 -0.704712 -0.893312 0
M  V30 14 C -2.350887 0.374949 -0.242454 0
M  V30 15 C -3.679394 0.717174 -0.182496 0
M  V30 16 C -4.567948 -0.141256 -0.866368 0
M  V30 17 C -4.116122 -1.263312 -1.555557 0
M  V30 18 C -5.028598 -2.157316 -2.252451 0
M  V30 19 O -5.631972 -2.638281 -1.238762 0
M  V30 20 N -5.334819 -2.540949 -3.595119 0
M  V30 21 C -4.875743 -2.219814 -4.949148 0
M  V30 22 C -4.483559 -3.402028 -5.757906 0
M  V30 23 N -5.172737 -4.627094 -5.503636 0
M  V30 24 C -5.672787 -4.793185 -4.165463 0
M  V30 25 C -6.406435 -3.549771 -3.684260 0
M  V30 26 C -2.752819 -1.482553 -1.528760 0
M  V30 27 N 0.902994 1.055546 -0.214198 0
M  V30 28 C 1.627024 1.661818 0.739751 0
M  V30 29 N 1.795293 1.006423 1.888809 0
M  V30 30 C 1.297394 -0.189830 2.134535 0
M  V30 31 N 2.208005 2.948321 0.489491 0
M  V30 32 C 3.170236 3.219294 1.509088 0
M  V30 33 C 3.167570 4.436936 2.122003 0
M  V30 34 C 4.047558 4.555614 3.173050 0
M  V30 35 C 4.876818 3.529169 3.589227 0
M  V30 36 C 4.878493 2.296343 2.966435 0
M  V30 37 C 3.979960 2.197524 1.896287 0
M  V30 38 N 5.717345 1.230459 3.481423 0
M  V30 39 H 6.264942 -1.788478 3.924376 0
M  V30 40 H 5.589486 -1.353605 5.484790 0
M  V30 41 H 4.538662 -3.322982 4.551480 0
M  V30 42 H 3.953126 -2.467056 3.134900 0
M  V30 43 H 2.293505 -3.012026 4.841708 0
M  V30 44 H 3.176366 -2.041247 6.085309 0
M  V30 45 H 2.568747 0.067104 4.861222 0
M  V30 46 H 1.187077 -0.861663 5.400950 0
M  V30 47 H 0.456569 -3.017767 3.407063 0
M  V30 48 H -0.118935 -1.716694 -1.523595 0
M  V30 49 H -1.726683 1.077067 0.303961 0
M  V30 50 H -4.102498 1.569784 0.327898 0
M  V30 51 H -5.652097 0.018426 -0.897348 0
M  V30 52 H -5.758089 -1.714616 -5.427027 0
M  V30 53 H -4.045106 -1.498063 -4.938002 0
M  V30 54 H -3.370526 -3.518898 -5.727214 0
M  V30 55 H -4.711429 -3.158649 -6.841177 0
M  V30 56 H -4.504153 -5.417910 -5.686128 0
M  V30 57 H -6.403662 -5.621588 -4.166093 0
M  V30 58 H -4.873212 -5.046466 -3.445162 0
M  V30 59 H -7.109491 -3.212139 -4.454480 0
M  V30 60 H -6.865007 -3.779762 -2.721426 0
M  V30 61 H -2.411290 -2.361372 -2.068709 0
M  V30 62 H 1.984518 3.581695 -0.268118 0
M  V30 63 H 2.483291 5.157782 1.713259 0
M  V30 64 H 4.057131 5.524110 3.672834 0
M  V30 65 H 5.562867 3.628713 4.410223 0
M  V30 66 H 3.967260 1.253657 1.329251 0
M  V30 67 H 6.741502 1.573354 3.495428 0
M  V30 END ATOM
M  V30 BEGIN BOND
M  V30 1 2 1 2
M  V30 2 1 2 3
M  V30 3 1 3 4
M  V30 4 1 4 5
M  V30 5 1 5 6
M  V30 6 1 6 7
M  V30 7 1 7 8
M  V30 8 2 8 9
M  V30 9 1 9 10
M  V30 10 1 10 11
M  V30 11 1 11 12
M  V30 12 1 12 13
M  V30 13 2 13 14
M  V30 14 1 14 15
M  V30 15 2 15 16
M  V30 16 1 16 17
M  V30 17 1 17 18
M  V30 18 2 18 19
M  V30 19 1 18 20
M  V30 20 1 20 21
M  V30 21 1 21 22
M  V30 22 1 22 23
M  V30 23 1 23 24
M  V30 24 1 24 25
M  V30 25 2 17 26
M  V30 26 2 11 27
M  V30 27 1 27 28
M  V30 28 2 28 29
M  V30 29 1 29 30
M  V30 30 1 28 31
M  V30 31 1 31 32
M  V30 32 1 32 33
M  V30 33 2 33 34
M  V30 34 1 34 35
M  V30 35 2 35 36
M  V30 36 1 36 37
M  V30 37 1 36 38
M  V30 38 1 38 2
M  V30 39 2 30 7
M  V30 40 2 37 32
M  V30 41 1 30 10
M  V30 42 1 26 13
M  V30 43 1 25 20
M  V30 44 1 3 39
M  V30 45 1 3 40
M  V30 46 1 4 41
M  V30 47 1 4 42
M  V30 48 1 5 43
M  V30 49 1 5 44
M  V30 50 1 6 45
M  V30 51 1 6 46
M  V30 52 1 8 47
M  V30 53 1 12 48
M  V30 54 1 14 49
M  V30 55 1 15 50
M  V30 56 1 16 51
M  V30 57 1 21 52
M  V30 58 1 21 53
M  V30 59 1 22 54
M  V30 60 1 22 55
M  V30 61 1 23 56
M  V30 62 1 24 57
M  V30 63 1 24 58
M  V30 64 1 25 59
M  V30 65 1 25 60
M  V30 66 1 26 61
M  V30 67 1 31 62
M  V30 68 1 33 63
M  V30 69 1 34 64
M  V30 70 1 35 65
M  V30 71 1 37 66
M  V30 72 1 38 67
M  V30 END BOND
M  V30 END CTAB
M  END
>  <Dataset>  (807) 
ChEMBL_Kinases

>  <Ligand_Instance>  (807) 
nan

>  <PDB_ID>  (807) 
nan

>  <Standardized_SMILES>  (807) 
O=C1CCCCc2cnn3c(Nc4cccc(C(=O)N5CCNCC5)c4)nc(nc23)Nc2cccc(c2)N1

>  <Name>  (807) 
nan

>  <Pocket>  (807) 
nan

>  <ATP_Site>  (807) 
nan

>  <Peripheral>  (807) 
nan

>  <Num_H_Atoms_ProtBoundConf>  (807) 
nan

>  <Num_Resolved_Atoms>  (807) 
nan

>  <Num_Not_Resolved_Atoms>  (807) 
nan

$$$$
CHEMBL401396
     RDKit          3D

  0  0  0  0  0  0  0  0  0  0999 V3000
M  V30 BEGIN CTAB
M  V30 COUNTS 38 41 0 0 0
M  V30 BEGIN ATOM
M  V30 1 O -0.332169 -2.914537 3.939165 0
M  V30 2 C 0.831467 -2.920468 3.483062 0
M  V30 3 N 1.753716 -3.936598 3.948237 0
M  V30 4 C 2.816153 -4.268752 2.983505 0
M  V30 5 C 3.570464 -3.048518 2.560772 0
M  V30 6 C 2.698939 -2.002794 1.997460 0
M  V30 7 N 2.804658 -0.984553 1.100273 0
M  V30 8 C 1.620392 -0.341935 1.029612 0
M  V30 9 C 1.360310 0.807086 0.177985 0
M  V30 10 C 2.303757 1.368891 -0.657161 0
M  V30 11 C 1.944323 2.462303 -1.425086 0
M  V30 12 N 0.699704 2.918824 -1.320219 0
M  V30 13 C -0.253422 2.419915 -0.531970 0
M  V30 14 N -1.620698 2.781044 -0.309718 0
M  V30 15 C -2.480937 1.763778 -0.810209 0
M  V30 16 C -2.947558 0.994037 0.269418 0
M  V30 17 C -3.808513 -0.064083 0.076815 0
M  V30 18 C -4.255825 -0.422958 -1.193971 0
M  V30 19 C -3.792178 0.341162 -2.260713 0
M  V30 20 C -2.935228 1.395031 -2.056314 0
M  V30 21 N 0.147663 1.378858 0.177654 0
M  V30 22 C 0.766752 -0.965316 1.891112 0
M  V30 23 C 1.429356 -2.019923 2.513327 0
M  V30 24 H 1.654215 -4.384095 4.903749 0
M  V30 25 H 2.371790 -4.804738 2.120211 0
M  V30 26 H 3.490116 -4.964326 3.528839 0
M  V30 27 H 4.152159 -2.623301 3.409060 0
M  V30 28 H 4.299093 -3.346603 1.784159 0
M  V30 29 H 3.740779 -0.850206 0.619772 0
M  V30 30 H 3.292028 0.925839 -0.682533 0
M  V30 31 H 2.642034 2.932848 -2.095204 0
M  V30 32 H -1.858092 3.700320 0.162682 0
M  V30 33 H -2.699282 1.139125 1.335045 0
M  V30 34 H -4.183975 -0.677842 0.911868 0
M  V30 35 H -4.930285 -1.250161 -1.397847 0
M  V30 36 H -4.057000 0.173453 -3.291767 0
M  V30 37 H -2.500827 2.073441 -2.803600 0
M  V30 38 H -0.259159 -0.605382 1.994708 0
M  V30 END ATOM
M  V30 BEGIN BOND
M  V30 1 2 1 2
M  V30 2 1 2 3
M  V30 3 1 3 4
M  V30 4 1 4 5
M  V30 5 1 5 6
M  V30 6 1 6 7
M  V30 7 1 7 8
M  V30 8 1 8 9
M  V30 9 2 9 10
M  V30 10 1 10 11
M  V30 11 2 11 12
M  V30 12 1 12 13
M  V30 13 1 13 14
M  V30 14 1 14 15
M  V30 15 2 15 16
M  V30 16 1 16 17
M  V30 17 2 17 18
M  V30 18 1 18 19
M  V30 19 2 19 20
M  V30 20 2 13 21
M  V30 21 2 8 22
M  V30 22 1 22 23
M  V30 23 1 23 2
M  V30 24 2 23 6
M  V30 25 1 21 9
M  V30 26 1 20 15
M  V30 27 1 3 24
M  V30 28 1 4 25
M  V30 29 1 4 26
M  V30 30 1 5 27
M  V30 31 1 5 28
M  V30 32 1 7 29
M  V30 33 1 10 30
M  V30 34 1 11 31
M  V30 35 1 14 32
M  V30 36 1 16 33
M  V30 37 1 17 34
M  V30 38 1 18 35
M  V30 39 1 19 36
M  V30 40 1 20 37
M  V30 41 1 22 38
M  V30 END BOND
M  V30 END CTAB
M  END
>  <Dataset>  (808) 
ChEMBL_Kinases

>  <Ligand_Instance>  (808) 
nan

>  <PDB_ID>  (808) 
nan

>  <Standardized_SMILES>  (808) 
O=C1NCCc2[nH]c(-c3ccnc(Nc4ccccc4)n3)cc21

>  <Name>  (808) 
nan

>  <Pocket>  (808) 
nan

>  <ATP_Site>  (808) 
nan

>  <Peripheral>  (808) 
nan

>  <Num_H_Atoms_ProtBoundConf>  (808) 
nan

>  <Num_Resolved_Atoms>  (808) 
nan

>  <Num_Not_Resolved_Atoms>  (808) 
nan

$$$$
CHEMBL4865615
     RDKit          3D

  0  0  0  0  0  0  0  0  0  0999 V3000
M  V30 BEGIN CTAB
M  V30 COUNTS 70 74 0 0 0
M  V30 BEGIN ATOM
M  V30 1 O 0.903501 -6.465416 1.154733 0
M  V30 2 C 0.393635 -5.333430 1.356767 0
M  V30 3 N 0.470302 -4.415952 0.274311 0
M  V30 4 C 1.121796 -4.875723 -0.937045 0
M  V30 5 C 1.112584 -3.785965 -1.970028 0
M  V30 6 C 1.849524 -2.583420 -1.431450 0
M  V30 7 C 1.835772 -1.464623 -2.442622 0
M  V30 8 N 2.095424 -1.875046 -3.774172 0
M  V30 9 C 2.827645 -0.978793 -4.600204 0
M  V30 10 C 2.155227 0.337567 -4.783523 0
M  V30 11 C 1.270223 0.473554 -5.855575 0
M  V30 12 C 0.576689 1.636796 -6.145987 0
M  V30 13 C 0.758903 2.726298 -5.343781 0
M  V30 14 F 0.072933 3.841463 -5.649031 0
M  V30 15 C 1.626045 2.619358 -4.279711 0
M  V30 16 F 1.805567 3.708079 -3.481663 0
M  V30 17 C 2.301881 1.467060 -4.006534 0
M  V30 18 C 2.496389 -3.215519 -3.988775 0
M  V30 19 C 1.654894 -4.246444 -3.294181 0
M  V30 20 C -0.216430 -5.069989 2.653779 0
M  V30 21 C -0.188884 -6.097760 3.572785 0
M  V30 22 N -0.758216 -5.849743 4.782198 0
M  V30 23 C -1.321642 -4.669419 5.079329 0
M  V30 24 C -1.373686 -3.610969 4.192969 0
M  V30 25 N -1.989116 -2.399168 4.593431 0
M  V30 26 C -2.171600 -1.193590 3.897208 0
M  V30 27 O -1.735391 -1.136793 2.730989 0
M  V30 28 C -2.833528 -0.024484 4.457821 0
M  V30 29 C -3.375859 0.084528 5.731971 0
M  V30 30 C -3.973463 1.263208 6.121559 0
M  V30 31 N -4.071063 2.338972 5.338912 0
M  V30 32 C -3.558322 2.288400 4.083998 0
M  V30 33 N -3.639017 3.418370 3.206668 0
M  V30 34 C -2.468396 4.239522 3.390931 0
M  V30 35 O -1.549925 3.957188 4.210985 0
M  V30 36 C -2.267989 5.497808 2.607960 0
M  V30 37 C -1.611273 6.639591 3.310290 0
M  V30 38 C -0.819035 5.841281 2.287127 0
M  V30 39 C -2.965398 1.120525 3.695898 0
M  V30 40 C -0.803168 -3.870853 2.992008 0
M  V30 41 H 0.056149 -3.471623 0.413326 0
M  V30 42 H 2.210468 -5.074276 -0.717440 0
M  V30 43 H 0.691733 -5.821522 -1.300759 0
M  V30 44 H 0.058307 -3.479590 -2.132249 0
M  V30 45 H 2.896655 -2.823929 -1.164366 0
M  V30 46 H 1.359967 -2.183828 -0.521369 0
M  V30 47 H 2.627815 -0.753035 -2.118506 0
M  V30 48 H 0.873839 -0.910334 -2.376088 0
M  V30 49 H 3.848299 -0.783841 -4.186197 0
M  V30 50 H 2.925741 -1.447035 -5.600430 0
M  V30 51 H 1.113584 -0.393423 -6.508828 0
M  V30 52 H -0.084962 1.627215 -7.005541 0
M  V30 53 H 2.986269 1.367812 -3.175198 0
M  V30 54 H 2.411826 -3.412776 -5.089920 0
M  V30 55 H 3.575697 -3.381775 -3.771414 0
M  V30 56 H 0.839321 -4.602762 -3.956764 0
M  V30 57 H 2.305364 -5.125512 -3.098801 0
M  V30 58 H 0.248214 -7.074343 3.401494 0
M  V30 59 H -1.747693 -4.593334 6.089657 0
M  V30 60 H -2.387752 -2.361471 5.572941 0
M  V30 61 H -3.310386 -0.760018 6.374355 0
M  V30 62 H -4.392657 1.325853 7.127435 0
M  V30 63 H -4.349679 3.734423 2.501310 0
M  V30 64 H -3.064275 5.751778 1.890157 0
M  V30 65 H -1.287414 6.561230 4.366759 0
M  V30 66 H -1.799815 7.683099 2.986705 0
M  V30 67 H -0.566524 6.305318 1.317621 0
M  V30 68 H -0.045406 5.134565 2.655494 0
M  V30 69 H -2.565445 1.127900 2.671929 0
M  V30 70 H -0.783000 -3.135558 2.232853 0
M  V30 END ATOM
M  V30 BEGIN BOND
M  V30 1 2 1 2
M  V30 2 1 2 3
M  V30 3 1 3 4
M  V30 4 1 4 5
M  V30 5 1 5 6
M  V30 6 1 6 7
M  V30 7 1 7 8
M  V30 8 1 8 9
M  V30 9 1 9 10
M  V30 10 2 10 11
M  V30 11 1 11 12
M  V30 12 2 12 13
M  V30 13 1 13 14
M  V30 14 1 13 15
M  V30 15 1 15 16
M  V30 16 2 15 17
M  V30 17 1 8 18
M  V30 18 1 18 19
M  V30 19 1 2 20
M  V30 20 2 20 21
M  V30 21 1 21 22
M  V30 22 2 22 23
M  V30 23 1 23 24
M  V30 24 1 24 25
M  V30 25 1 25 26
M  V30 26 2 26 27
M  V30 27 1 26 28
M  V30 28 2 28 29
M  V30 29 1 29 30
M  V30 30 2 30 31
M  V30 31 1 31 32
M  V30 32 1 32 33
M  V30 33 1 33 34
M  V30 34 2 34 35
M  V30 35 1 34 36
M  V30 36 1 36 37
M  V30 37 1 37 38
M  V30 38 2 32 39
M  V30 39 2 24 40
M  V30 40 1 19 5
M  V30 41 1 40 20
M  V30 42 1 17 10
M  V30 43 1 39 28
M  V30 44 1 38 36
M  V30 45 1 3 41
M  V30 46 1 4 42
M  V30 47 1 4 43
M  V30 48 1 5 44
M  V30 49 1 6 45
M  V30 50 1 6 46
M  V30 51 1 7 47
M  V30 52 1 7 48
M  V30 53 1 9 49
M  V30 54 1 9 50
M  V30 55 1 11 51
M  V30 56 1 12 52
M  V30 57 1 17 53
M  V30 58 1 18 54
M  V30 59 1 18 55
M  V30 60 1 19 56
M  V30 61 1 19 57
M  V30 62 1 21 58
M  V30 63 1 23 59
M  V30 64 1 25 60
M  V30 65 1 29 61
M  V30 66 1 30 62
M  V30 67 1 33 63
M  V30 68 1 36 64
M  V30 69 1 37 65
M  V30 70 1 37 66
M  V30 71 1 38 67
M  V30 72 1 38 68
M  V30 73 1 39 69
M  V30 74 1 40 70
M  V30 END BOND
M  V30 END CTAB
M  END
>  <Dataset>  (809) 
ChEMBL_Kinases

>  <Ligand_Instance>  (809) 
nan

>  <PDB_ID>  (809) 
nan

>  <Standardized_SMILES>  (809) 
O=C(NCC1CCN(Cc2ccc(F)c(F)c2)CC1)c1cncc(NC(=O)c2ccnc(NC(=O)C3CC3)c2)c1

>  <Name>  (809) 
nan

>  <Pocket>  (809) 
nan

>  <ATP_Site>  (809) 
nan

>  <Peripheral>  (809) 
nan

>  <Num_H_Atoms_ProtBoundConf>  (809) 
nan

>  <Num_Resolved_Atoms>  (809) 
nan

>  <Num_Not_Resolved_Atoms>  (809) 
nan

$$$$
CHEMBL401377
     RDKit          3D

  0  0  0  0  0  0  0  0  0  0999 V3000
M  V30 BEGIN CTAB
M  V30 COUNTS 38 41 0 0 0
M  V30 BEGIN ATOM
M  V30 1 Br -0.005131 -4.570532 5.136042 0
M  V30 2 C 1.020489 -3.814814 3.723781 0
M  V30 3 C 2.270818 -4.300210 3.392066 0
M  V30 4 N 2.645104 -3.506171 2.364216 0
M  V30 5 N 1.701855 -2.617804 2.099084 0
M  V30 6 C 1.668006 -1.642915 1.148161 0
M  V30 7 N 2.695754 -1.419817 0.191342 0
M  V30 8 C 3.148817 -0.555604 -0.833472 0
M  V30 9 C 2.090811 0.197996 -1.556235 0
M  V30 10 C 1.226003 -0.190181 -2.533090 0
M  V30 11 C 0.344433 0.698241 -3.101643 0
M  V30 12 N 0.290785 2.004109 -2.720751 0
M  V30 13 C 1.119578 2.450893 -1.760082 0
M  V30 14 C 2.000215 1.555698 -1.194358 0
M  V30 15 C 0.504631 -0.870364 1.133759 0
M  V30 16 C -0.571438 -0.995629 1.957959 0
M  V30 17 C -1.766890 -0.136846 1.845938 0
M  V30 18 C -1.822041 0.855655 0.886828 0
M  V30 19 C -2.969462 1.656046 0.771713 0
M  V30 20 C -3.991106 1.382894 1.655103 0
M  V30 21 C -3.978880 0.396707 2.634080 0
M  V30 22 C -2.816570 -0.373365 2.709442 0
M  V30 23 N -0.466648 -1.977403 2.868456 0
M  V30 24 C 0.652008 -2.754437 2.916234 0
M  V30 25 H 2.820792 -5.113300 3.835654 0
M  V30 26 H 3.426559 -2.197576 0.285403 0
M  V30 27 H 3.618347 -1.184812 -1.656781 0
M  V30 28 H 3.977653 0.121293 -0.539112 0
M  V30 29 H 1.333558 -1.252831 -2.776092 0
M  V30 30 H -0.321502 0.300751 -3.883098 0
M  V30 31 H 1.128009 3.479418 -1.406928 0
M  V30 32 H 2.663355 1.963635 -0.412504 0
M  V30 33 H 0.486821 -0.118383 0.392963 0
M  V30 34 H -1.049485 1.085969 0.198197 0
M  V30 35 H -3.025633 2.433207 0.027912 0
M  V30 36 H -4.884407 2.015863 1.550287 0
M  V30 37 H -4.838127 0.291987 3.252926 0
M  V30 38 H -2.852360 -1.118499 3.478777 0
M  V30 END ATOM
M  V30 BEGIN BOND
M  V30 1 1 1 2
M  V30 2 1 2 3
M  V30 3 2 3 4
M  V30 4 1 4 5
M  V30 5 1 5 6
M  V30 6 1 6 7
M  V30 7 1 7 8
M  V30 8 1 8 9
M  V30 9 2 9 10
M  V30 10 1 10 11
M  V30 11 2 11 12
M  V30 12 1 12 13
M  V30 13 2 13 14
M  V30 14 2 6 15
M  V30 15 1 15 16
M  V30 16 1 16 17
M  V30 17 2 17 18
M  V30 18 1 18 19
M  V30 19 2 19 20
M  V30 20 1 20 21
M  V30 21 2 21 22
M  V30 22 2 16 23
M  V30 23 1 23 24
M  V30 24 2 24 2
M  V30 25 1 24 5
M  V30 26 1 14 9
M  V30 27 1 22 17
M  V30 28 1 3 25
M  V30 29 1 7 26
M  V30 30 1 8 27
M  V30 31 1 8 28
M  V30 32 1 10 29
M  V30 33 1 11 30
M  V30 34 1 13 31
M  V30 35 1 14 32
M  V30 36 1 15 33
M  V30 37 1 18 34
M  V30 38 1 19 35
M  V30 39 1 20 36
M  V30 40 1 21 37
M  V30 41 1 22 38
M  V30 END BOND
M  V30 END CTAB
M  END
>  <Dataset>  (810) 
ChEMBL_Kinases

>  <Ligand_Instance>  (810) 
nan

>  <PDB_ID>  (810) 
nan

>  <Standardized_SMILES>  (810) 
Brc1cnn2c(NCc3ccncc3)cc(-c3ccccc3)nc12

>  <Name>  (810) 
nan

>  <Pocket>  (810) 
nan

>  <ATP_Site>  (810) 
nan

>  <Peripheral>  (810) 
nan

>  <Num_H_Atoms_ProtBoundConf>  (810) 
nan

>  <Num_Resolved_Atoms>  (810) 
nan

>  <Num_Not_Resolved_Atoms>  (810) 
nan

$$$$
CHEMBL4866294
     RDKit          3D

  0  0  0  0  0  0  0  0  0  0999 V3000
M  V30 BEGIN CTAB
M  V30 COUNTS 75 79 0 0 0
M  V30 BEGIN ATOM
M  V30 1 C 4.332554 -3.707776 5.069362 0
M  V30 2 C 4.958400 -2.596918 4.228303 0
M  V30 3 C 3.976134 -2.259138 3.138560 0
M  V30 4 O 2.922015 -2.911956 2.988342 0
M  V30 5 N 4.316056 -1.161929 2.297475 0
M  V30 6 C 3.473480 -0.734343 1.220191 0 CFG=1
M  V30 7 C 2.688722 0.526114 1.592316 0
M  V30 8 C 1.752224 0.746058 0.412344 0
M  V30 9 C 2.583191 1.330244 -0.750630 0 CFG=1
M  V30 10 N 2.242161 2.692435 -0.840543 0
M  V30 11 C 2.850048 3.802621 -0.448390 0
M  V30 12 O 3.946892 3.689735 0.121202 0
M  V30 13 C 2.432606 5.097679 -0.583115 0
M  V30 14 C 1.221694 5.300486 -1.208199 0
M  V30 15 C 0.530437 4.189946 -1.644457 0
M  V30 16 C -0.673550 4.490417 -2.258030 0
M  V30 17 N -1.370332 3.400243 -2.692431 0
M  V30 18 C -0.890228 2.157512 -2.518483 0
M  V30 19 N -1.846228 1.253249 -3.074366 0
M  V30 20 C -2.340826 0.107006 -2.376612 0
M  V30 21 C -1.828236 -0.140211 -1.094297 0
M  V30 22 C -2.267442 -1.231996 -0.351251 0
M  V30 23 C -3.226256 -2.060218 -0.926912 0
M  V30 24 N -3.632863 -3.186920 -0.120997 0
M  V30 25 C -4.970158 -3.574925 0.363806 0
M  V30 26 C -4.829598 -4.110481 1.790241 0
M  V30 27 N -3.613443 -3.614641 2.321876 0
M  V30 28 C -3.569931 -3.198003 3.661736 0
M  V30 29 C -2.429764 -4.205075 1.767826 0
M  V30 30 C -2.589875 -4.118644 0.265162 0
M  V30 31 C -3.736719 -1.826008 -2.188921 0
M  V30 32 C -3.295579 -0.742620 -2.916964 0
M  V30 33 O -3.770709 -0.451174 -4.195626 0
M  V30 34 C -4.743623 -1.246222 -4.859709 0
M  V30 35 N 0.279654 1.904628 -1.920992 0
M  V30 36 C 1.041403 2.927566 -1.457406 0
M  V30 37 C 4.003617 0.960778 -0.545263 0
M  V30 38 C 4.149431 -0.484295 -0.078167 0
M  V30 39 H 3.529523 -4.172363 4.495152 0
M  V30 40 H 3.938425 -3.226969 5.997209 0
M  V30 41 H 5.049142 -4.497163 5.324201 0
M  V30 42 H 5.223005 -1.721843 4.819727 0
M  V30 43 H 5.844643 -3.067199 3.705080 0
M  V30 44 H 5.222346 -0.622726 2.448829 0
M  V30 45 H 2.659895 -1.502756 1.067226 0
M  V30 46 H 3.326941 1.381993 1.798820 0
M  V30 47 H 2.055253 0.351859 2.488298 0
M  V30 48 H 1.363921 -0.221113 0.076836 0
M  V30 49 H 0.976831 1.440361 0.750726 0
M  V30 50 H 2.261720 0.803341 -1.707555 0
M  V30 51 H 2.990261 5.948759 -0.233257 0
M  V30 52 H 0.851120 6.316388 -1.336485 0
M  V30 53 H -1.031109 5.502371 -2.380692 0
M  V30 54 H -2.257820 1.376912 -4.047092 0
M  V30 55 H -1.082585 0.471444 -0.607247 0
M  V30 56 H -1.870256 -1.429175 0.652368 0
M  V30 57 H -5.656168 -2.715101 0.356755 0
M  V30 58 H -5.309530 -4.406201 -0.284540 0
M  V30 59 H -5.687987 -3.738345 2.362210 0
M  V30 60 H -4.915833 -5.223528 1.798177 0
M  V30 61 H -4.416280 -3.585654 4.272067 0
M  V30 62 H -2.583665 -3.367103 4.146769 0
M  V30 63 H -3.687458 -2.074650 3.666693 0
M  V30 64 H -1.545363 -3.613912 2.045781 0
M  V30 65 H -2.259235 -5.244494 2.107191 0
M  V30 66 H -1.640375 -3.898902 -0.249175 0
M  V30 67 H -2.893619 -5.147356 -0.101719 0
M  V30 68 H -4.497078 -2.504038 -2.616018 0
M  V30 69 H -4.548615 -2.342557 -4.690651 0
M  V30 70 H -4.645641 -1.077374 -5.969766 0
M  V30 71 H -5.757861 -1.034092 -4.532013 0
M  V30 72 H 4.508989 0.968916 -1.549651 0
M  V30 73 H 4.545795 1.550618 0.196237 0
M  V30 74 H 3.768809 -1.121095 -0.912115 0
M  V30 75 H 5.250620 -0.651592 -0.044508 0
M  V30 END ATOM
M  V30 BEGIN BOND
M  V30 1 1 1 2
M  V30 2 1 2 3
M  V30 3 2 3 4
M  V30 4 1 3 5
M  V30 5 1 5 6
M  V30 6 1 6 7
M  V30 7 1 7 8
M  V30 8 1 8 9
M  V30 9 1 9 10
M  V30 10 1 10 11
M  V30 11 2 11 12
M  V30 12 1 11 13
M  V30 13 2 13 14
M  V30 14 1 14 15
M  V30 15 2 15 16
M  V30 16 1 16 17
M  V30 17 2 17 18
M  V30 18 1 18 19
M  V30 19 1 19 20
M  V30 20 2 20 21
M  V30 21 1 21 22
M  V30 22 2 22 23
M  V30 23 1 23 24
M  V30 24 1 24 25
M  V30 25 1 25 26
M  V30 26 1 26 27
M  V30 27 1 27 28
M  V30 28 1 27 29
M  V30 29 1 29 30
M  V30 30 1 23 31
M  V30 31 2 31 32
M  V30 32 1 32 33
M  V30 33 1 33 34
M  V30 34 1 18 35
M  V30 35 2 35 36
M  V30 36 1 9 37
M  V30 37 1 37 38
M  V30 38 1 38 6
M  V30 39 1 36 10
M  V30 40 1 36 15
M  V30 41 1 32 20
M  V30 42 1 30 24
M  V30 43 1 1 39
M  V30 44 1 1 40
M  V30 45 1 1 41
M  V30 46 1 2 42
M  V30 47 1 2 43
M  V30 48 1 5 44
M  V30 49 1 6 45 CFG=3
M  V30 50 1 7 46
M  V30 51 1 7 47
M  V30 52 1 8 48
M  V30 53 1 8 49
M  V30 54 1 9 50 CFG=3
M  V30 55 1 13 51
M  V30 56 1 14 52
M  V30 57 1 16 53
M  V30 58 1 19 54
M  V30 59 1 21 55
M  V30 60 1 22 56
M  V30 61 1 25 57
M  V30 62 1 25 58
M  V30 63 1 26 59
M  V30 64 1 26 60
M  V30 65 1 28 61
M  V30 66 1 28 62
M  V30 67 1 28 63
M  V30 68 1 29 64
M  V30 69 1 29 65
M  V30 70 1 30 66
M  V30 71 1 30 67
M  V30 72 1 31 68
M  V30 73 1 34 69
M  V30 74 1 34 70
M  V30 75 1 34 71
M  V30 76 1 37 72
M  V30 77 1 37 73
M  V30 78 1 38 74
M  V30 79 1 38 75
M  V30 END BOND
M  V30 END CTAB
M  END
>  <Dataset>  (811) 
ChEMBL_Kinases

>  <Ligand_Instance>  (811) 
nan

>  <PDB_ID>  (811) 
nan

>  <Standardized_SMILES>  (811) 
CCC(=O)N[C@H]1CC[C@@H](n2c(=O)ccc3cnc(Nc4ccc(N5CCN(C)CC5)cc4OC)nc32)CC1

>  <Name>  (811) 
nan

>  <Pocket>  (811) 
nan

>  <ATP_Site>  (811) 
nan

>  <Peripheral>  (811) 
nan

>  <Num_H_Atoms_ProtBoundConf>  (811) 
nan

>  <Num_Resolved_Atoms>  (811) 
nan

>  <Num_Not_Resolved_Atoms>  (811) 
nan

$$$$
CHEMBL401256
     RDKit          3D

  0  0  0  0  0  0  0  0  0  0999 V3000
M  V30 BEGIN CTAB
M  V30 COUNTS 53 56 0 0 0
M  V30 BEGIN ATOM
M  V30 1 C 0.365295 -0.379523 6.286254 0
M  V30 2 N 1.189145 -1.533754 6.144741 0
M  V30 3 C 0.516224 -2.776182 6.258147 0
M  V30 4 C 2.214845 -1.469311 5.164581 0
M  V30 5 C 1.785931 -1.245538 3.779218 0
M  V30 6 C 1.640584 -0.001854 3.196782 0
M  V30 7 C 1.244010 0.232191 1.915310 0
M  V30 8 N 0.962146 -0.822876 1.123657 0
M  V30 9 C 0.551237 -0.924720 -0.170417 0
M  V30 10 C 0.328292 0.261895 -0.990316 0
M  V30 11 C 1.100515 0.443019 -2.122805 0
M  V30 12 C 0.950258 1.552199 -2.960756 0
M  V30 13 N 0.003654 2.468715 -2.625273 0
M  V30 14 C -0.747602 2.293614 -1.524555 0
M  V30 15 N -1.724435 3.279293 -1.214570 0
M  V30 16 C -3.101364 3.270725 -1.667492 0
M  V30 17 C -3.831471 2.031232 -1.191772 0
M  V30 18 O -3.217603 0.864334 -1.675574 0
M  V30 19 N -0.600263 1.226506 -0.721947 0
M  V30 20 C 0.419144 -2.276253 -0.458141 0
M  V30 21 C -0.008436 -2.739070 -1.772405 0
M  V30 22 C 0.968476 -3.525489 -2.384171 0
M  V30 23 C 0.766844 -4.069283 -3.642779 0
M  V30 24 C -0.445312 -3.783878 -4.237707 0
M  V30 25 F -0.665940 -4.310240 -5.480388 0
M  V30 26 C -1.439272 -3.013231 -3.673107 0
M  V30 27 C -1.202393 -2.486367 -2.414117 0
M  V30 28 N 0.755759 -2.955690 0.676323 0
M  V30 29 C 1.085368 -2.046948 1.633940 0
M  V30 30 C 1.485014 -2.314957 2.928347 0
M  V30 31 H 0.819420 0.545771 5.923039 0
M  V30 32 H -0.611687 -0.510814 5.779135 0
M  V30 33 H 0.155827 -0.272851 7.390301 0
M  V30 34 H 0.953422 -3.605116 5.669490 0
M  V30 35 H 0.558493 -3.125164 7.331553 0
M  V30 36 H -0.570648 -2.659574 6.034668 0
M  V30 37 H 2.775945 -2.425926 5.195261 0
M  V30 38 H 2.949903 -0.697456 5.498393 0
M  V30 39 H 1.853623 0.879707 3.785951 0
M  V30 40 H 1.149967 1.236890 1.519291 0
M  V30 41 H 1.849242 -0.321950 -2.351126 0
M  V30 42 H 1.616632 1.572393 -3.812149 0
M  V30 43 H -1.186039 3.957953 -0.607400 0
M  V30 44 H -3.102144 3.367060 -2.757859 0
M  V30 45 H -3.600970 4.125585 -1.171776 0
M  V30 46 H -3.886341 2.024426 -0.084475 0
M  V30 47 H -4.867428 2.022990 -1.574866 0
M  V30 48 H -3.401182 0.091245 -1.090932 0
M  V30 49 H 1.942438 -3.776901 -1.949359 0
M  V30 50 H 1.518832 -4.683353 -4.131043 0
M  V30 51 H -2.368037 -2.807167 -4.153506 0
M  V30 52 H -1.885712 -1.873453 -1.862761 0
M  V30 53 H 1.573857 -3.326836 3.308762 0
M  V30 END ATOM
M  V30 BEGIN BOND
M  V30 1 1 1 2
M  V30 2 1 2 3
M  V30 3 1 2 4
M  V30 4 1 4 5
M  V30 5 1 5 6
M  V30 6 2 6 7
M  V30 7 1 7 8
M  V30 8 1 8 9
M  V30 9 1 9 10
M  V30 10 2 10 11
M  V30 11 1 11 12
M  V30 12 2 12 13
M  V30 13 1 13 14
M  V30 14 1 14 15
M  V30 15 1 15 16
M  V30 16 1 16 17
M  V30 17 1 17 18
M  V30 18 2 14 19
M  V30 19 2 9 20
M  V30 20 1 20 21
M  V30 21 2 21 22
M  V30 22 1 22 23
M  V30 23 2 23 24
M  V30 24 1 24 25
M  V30 25 1 24 26
M  V30 26 2 26 27
M  V30 27 1 20 28
M  V30 28 2 28 29
M  V30 29 1 29 30
M  V30 30 2 30 5
M  V30 31 1 29 8
M  V30 32 1 19 10
M  V30 33 1 27 21
M  V30 34 1 1 31
M  V30 35 1 1 32
M  V30 36 1 1 33
M  V30 37 1 3 34
M  V30 38 1 3 35
M  V30 39 1 3 36
M  V30 40 1 4 37
M  V30 41 1 4 38
M  V30 42 1 6 39
M  V30 43 1 7 40
M  V30 44 1 11 41
M  V30 45 1 12 42
M  V30 46 1 15 43
M  V30 47 1 16 44
M  V30 48 1 16 45
M  V30 49 1 17 46
M  V30 50 1 17 47
M  V30 51 1 18 48
M  V30 52 1 22 49
M  V30 53 1 23 50
M  V30 54 1 26 51
M  V30 55 1 27 52
M  V30 56 1 30 53
M  V30 END BOND
M  V30 END CTAB
M  END
>  <Dataset>  (812) 
ChEMBL_Kinases

>  <Ligand_Instance>  (812) 
nan

>  <PDB_ID>  (812) 
nan

>  <Standardized_SMILES>  (812) 
CN(C)Cc1ccn2c(-c3ccnc(NCCO)n3)c(-c3ccc(F)cc3)nc2c1

>  <Name>  (812) 
nan

>  <Pocket>  (812) 
nan

>  <ATP_Site>  (812) 
nan

>  <Peripheral>  (812) 
nan

>  <Num_H_Atoms_ProtBoundConf>  (812) 
nan

>  <Num_Resolved_Atoms>  (812) 
nan

>  <Num_Not_Resolved_Atoms>  (812) 
nan

$$$$
CHEMBL401156
     RDKit          3D

  0  0  0  0  0  0  0  0  0  0999 V3000
M  V30 BEGIN CTAB
M  V30 COUNTS 46 49 0 0 0
M  V30 BEGIN ATOM
M  V30 1 C 2.872268 -3.206767 1.663223 0
M  V30 2 C 1.983410 -3.839024 0.965950 0
M  V30 3 C 0.946168 -3.536418 0.042957 0
M  V30 4 C 0.264452 -4.644829 -0.428230 0
M  V30 5 N -0.745590 -4.535363 -1.303128 0
M  V30 6 C -1.096785 -3.309501 -1.726949 0
M  V30 7 O -2.046535 -3.372782 -2.532729 0
M  V30 8 C -0.489855 -2.151436 -1.324962 0
M  V30 9 C 0.532575 -2.334186 -0.432532 0
M  V30 10 C 1.198730 -1.219198 0.025481 0
M  V30 11 C 0.877331 0.060816 -0.377573 0
M  V30 12 C 1.550161 1.230877 0.155729 0
M  V30 13 C 1.002382 1.888028 1.360173 0
M  V30 14 C -0.379555 2.378578 1.394477 0
M  V30 15 N -1.388745 1.348006 1.250955 0
M  V30 16 C -0.176953 0.168969 -1.292146 0
M  V30 17 C -0.581786 1.402229 -1.800814 0
M  V30 18 C -1.598207 1.545682 -2.717196 0
M  V30 19 C -2.258945 0.435770 -3.166254 0
M  V30 20 C -3.323952 0.684924 -4.137932 0
M  V30 21 C -4.483615 -0.070257 -4.282621 0
M  V30 22 N -5.193375 0.502145 -5.295853 0
M  V30 23 N -4.521686 1.554161 -5.761381 0
M  V30 24 C -3.367672 1.698150 -5.074382 0
M  V30 25 C -1.880595 -0.794627 -2.683184 0
M  V30 26 C -0.866498 -0.918875 -1.772153 0
M  V30 27 H 3.505008 -2.486620 2.131268 0
M  V30 28 H 3.660868 -3.313517 2.353044 0
M  V30 29 H 2.242216 -4.829275 1.292761 0
M  V30 30 H 0.529511 -5.656956 -0.100659 0
M  V30 31 H -1.222878 -5.435425 -1.621321 0
M  V30 32 H 2.006602 -1.271325 0.722705 0
M  V30 33 H 1.829236 1.979792 -0.653733 0
M  V30 34 H 2.590691 0.877133 0.457203 0
M  V30 35 H 1.118607 1.227575 2.284972 0
M  V30 36 H 1.689330 2.755984 1.638083 0
M  V30 37 H -0.644037 3.185168 0.689838 0
M  V30 38 H -0.561148 2.824238 2.406494 0
M  V30 39 H -2.355365 1.699113 1.417182 0
M  V30 40 H -1.241012 0.522757 1.872881 0
M  V30 41 H -0.064706 2.288080 -1.458152 0
M  V30 42 H -1.845651 2.540501 -3.056872 0
M  V30 43 H -4.726433 -0.943087 -3.673246 0
M  V30 44 H -4.928323 2.116933 -6.552760 0
M  V30 45 H -2.647061 2.467296 -5.251955 0
M  V30 46 H -2.470958 -1.571392 -3.111213 0
M  V30 END ATOM
M  V30 BEGIN BOND
M  V30 1 2 1 2
M  V30 2 1 2 3
M  V30 3 2 3 4
M  V30 4 1 4 5
M  V30 5 1 5 6
M  V30 6 2 6 7
M  V30 7 1 6 8
M  V30 8 2 8 9
M  V30 9 1 9 10
M  V30 10 2 10 11
M  V30 11 1 11 12
M  V30 12 1 12 13
M  V30 13 1 13 14
M  V30 14 1 14 15
M  V30 15 1 11 16
M  V30 16 2 16 17
M  V30 17 1 17 18
M  V30 18 2 18 19
M  V30 19 1 19 20
M  V30 20 1 20 21
M  V30 21 2 21 22
M  V30 22 1 22 23
M  V30 23 1 23 24
M  V30 24 1 19 25
M  V30 25 2 25 26
M  V30 26 1 9 3
M  V30 27 1 26 16
M  V30 28 1 26 8
M  V30 29 2 24 20
M  V30 30 1 1 27
M  V30 31 1 1 28
M  V30 32 1 2 29
M  V30 33 1 4 30
M  V30 34 1 5 31
M  V30 35 1 10 32
M  V30 36 1 12 33
M  V30 37 1 12 34
M  V30 38 1 13 35
M  V30 39 1 13 36
M  V30 40 1 14 37
M  V30 41 1 14 38
M  V30 42 1 15 39
M  V30 43 1 15 40
M  V30 44 1 17 41
M  V30 45 1 18 42
M  V30 46 1 21 43
M  V30 47 1 23 44
M  V30 48 1 24 45
M  V30 49 1 25 46
M  V30 END BOND
M  V30 END CTAB
M  END
>  <Dataset>  (813) 
ChEMBL_Kinases

>  <Ligand_Instance>  (813) 
nan

>  <PDB_ID>  (813) 
nan

>  <Standardized_SMILES>  (813) 
C=Cc1c[nH]c(=O)c2c1cc(CCCN)c1ccc(-c3cn[nH]c3)cc12

>  <Name>  (813) 
nan

>  <Pocket>  (813) 
nan

>  <ATP_Site>  (813) 
nan

>  <Peripheral>  (813) 
nan

>  <Num_H_Atoms_ProtBoundConf>  (813) 
nan

>  <Num_Resolved_Atoms>  (813) 
nan

>  <Num_Not_Resolved_Atoms>  (813) 
nan

$$$$
CHEMBL401102
     RDKit          3D

  0  0  0  0  0  0  0  0  0  0999 V3000
M  V30 BEGIN CTAB
M  V30 COUNTS 59 63 0 0 0
M  V30 BEGIN ATOM
M  V30 1 C 3.997027 -2.927174 5.290170 0
M  V30 2 N 4.462367 -1.580554 5.560020 0
M  V30 3 C 5.465316 -1.195446 4.596779 0
M  V30 4 C 3.387559 -0.649790 5.717390 0
M  V30 5 C 2.509263 -0.512644 4.537083 0
M  V30 6 C 2.738147 0.437448 3.553933 0
M  V30 7 C 1.854960 0.489028 2.480789 0
M  V30 8 N 0.776184 -0.332731 2.328737 0
M  V30 9 C -0.148251 -0.364816 1.321432 0
M  V30 10 C -0.128336 0.536707 0.188131 0
M  V30 11 C -0.197618 1.855503 0.660815 0
M  V30 12 C -0.177718 2.951633 -0.169690 0
M  V30 13 N -0.087785 2.720341 -1.482928 0
M  V30 14 C -0.021676 1.444364 -1.933931 0
M  V30 15 N 0.106310 1.271480 -3.342176 0
M  V30 16 C 0.090101 0.144402 -4.221320 0
M  V30 17 C -1.273580 -0.451064 -4.322342 0
M  V30 18 C -1.857547 -1.591868 -3.826581 0
M  V30 19 C -3.172854 -1.837782 -4.142928 0
M  V30 20 C -3.953206 -1.033358 -4.916995 0
M  V30 21 C -3.370436 0.127260 -5.425802 0
M  V30 22 C -2.040539 0.390375 -5.114515 0
M  V30 23 F -1.675117 1.574219 -5.714577 0
M  V30 24 N -0.039628 0.334833 -1.135129 0
M  V30 25 C -0.982215 -1.385364 1.707232 0
M  V30 26 C -2.147195 -1.880915 0.992995 0
M  V30 27 C -1.805102 -2.587214 -0.168496 0
M  V30 28 C -2.799264 -3.132219 -0.952933 0
M  V30 29 C -4.118511 -2.968479 -0.575729 0
M  V30 30 F -5.090116 -3.498951 -1.341046 0
M  V30 31 C -4.488491 -2.279132 0.560257 0
M  V30 32 C -3.477399 -1.744375 1.328172 0
M  V30 33 N -0.553623 -1.911397 2.882188 0
M  V30 34 C 0.554441 -1.253766 3.282043 0
M  V30 35 C 1.404410 -1.341780 4.364129 0
M  V30 36 H 4.872712 -3.582330 5.296159 0
M  V30 37 H 3.355259 -3.220923 6.169247 0
M  V30 38 H 3.367574 -3.012899 4.394142 0
M  V30 39 H 6.453074 -1.521419 4.987279 0
M  V30 40 H 5.461287 -0.138280 4.336075 0
M  V30 41 H 5.259586 -1.793944 3.672243 0
M  V30 42 H 2.747358 -0.992734 6.563083 0
M  V30 43 H 3.805490 0.372413 5.927877 0
M  V30 44 H 3.561855 1.109522 3.617026 0
M  V30 45 H 2.090134 1.253319 1.745099 0
M  V30 46 H -0.272189 2.183756 1.701217 0
M  V30 47 H -0.228266 3.986995 0.128787 0
M  V30 48 H 0.246034 2.151935 -3.917323 0
M  V30 49 H 0.505442 0.361933 -5.204268 0
M  V30 50 H 0.714743 -0.667916 -3.746280 0
M  V30 51 H -1.156334 -2.146041 -3.236225 0
M  V30 52 H -3.584423 -2.746676 -3.732315 0
M  V30 53 H -4.971844 -1.308303 -5.109822 0
M  V30 54 H -4.036822 0.716832 -6.028026 0
M  V30 55 H -0.773346 -2.736426 -0.500382 0
M  V30 56 H -2.506795 -3.680973 -1.846098 0
M  V30 57 H -5.518848 -2.141585 0.871178 0
M  V30 58 H -3.650857 -1.180487 2.247487 0
M  V30 59 H 1.188164 -2.097477 5.108213 0
M  V30 END ATOM
M  V30 BEGIN BOND
M  V30 1 1 1 2
M  V30 2 1 2 3
M  V30 3 1 2 4
M  V30 4 1 4 5
M  V30 5 1 5 6
M  V30 6 2 6 7
M  V30 7 1 7 8
M  V30 8 1 8 9
M  V30 9 1 9 10
M  V30 10 2 10 11
M  V30 11 1 11 12
M  V30 12 2 12 13
M  V30 13 1 13 14
M  V30 14 1 14 15
M  V30 15 1 15 16
M  V30 16 1 16 17
M  V30 17 2 17 18
M  V30 18 1 18 19
M  V30 19 2 19 20
M  V30 20 1 20 21
M  V30 21 2 21 22
M  V30 22 1 22 23
M  V30 23 2 14 24
M  V30 24 2 9 25
M  V30 25 1 25 26
M  V30 26 2 26 27
M  V30 27 1 27 28
M  V30 28 2 28 29
M  V30 29 1 29 30
M  V30 30 1 29 31
M  V30 31 2 31 32
M  V30 32 1 25 33
M  V30 33 2 33 34
M  V30 34 1 34 35
M  V30 35 2 35 5
M  V30 36 1 34 8
M  V30 37 1 24 10
M  V30 38 1 32 26
M  V30 39 1 22 17
M  V30 40 1 1 36
M  V30 41 1 1 37
M  V30 42 1 1 38
M  V30 43 1 3 39
M  V30 44 1 3 40
M  V30 45 1 3 41
M  V30 46 1 4 42
M  V30 47 1 4 43
M  V30 48 1 6 44
M  V30 49 1 7 45
M  V30 50 1 11 46
M  V30 51 1 12 47
M  V30 52 1 15 48
M  V30 53 1 16 49
M  V30 54 1 16 50
M  V30 55 1 18 51
M  V30 56 1 19 52
M  V30 57 1 20 53
M  V30 58 1 21 54
M  V30 59 1 27 55
M  V30 60 1 28 56
M  V30 61 1 31 57
M  V30 62 1 32 58
M  V30 63 1 35 59
M  V30 END BOND
M  V30 END CTAB
M  END
>  <Dataset>  (814) 
ChEMBL_Kinases

>  <Ligand_Instance>  (814) 
nan

>  <PDB_ID>  (814) 
nan

>  <Standardized_SMILES>  (814) 
CN(C)Cc1ccn2c(-c3ccnc(NCc4ccccc4F)n3)c(-c3ccc(F)cc3)nc2c1

>  <Name>  (814) 
nan

>  <Pocket>  (814) 
nan

>  <ATP_Site>  (814) 
nan

>  <Peripheral>  (814) 
nan

>  <Num_H_Atoms_ProtBoundConf>  (814) 
nan

>  <Num_Resolved_Atoms>  (814) 
nan

>  <Num_Not_Resolved_Atoms>  (814) 
nan

$$$$
CHEMBL401079
     RDKit          3D

  0  0  0  0  0  0  0  0  0  0999 V3000
M  V30 BEGIN CTAB
M  V30 COUNTS 59 62 0 0 0
M  V30 BEGIN ATOM
M  V30 1 C 2.495410 -1.593144 5.720621 0
M  V30 2 O 2.562997 -1.658748 4.352606 0
M  V30 3 C 3.765670 -1.318260 3.789746 0
M  V30 4 C 4.186960 0.110400 4.095262 0
M  V30 5 C 3.129212 1.085478 3.560124 0
M  V30 6 N 2.997291 0.938177 2.133963 0
M  V30 7 C 2.131697 1.509187 1.163188 0
M  V30 8 N 2.171783 2.663245 0.472934 0
M  V30 9 C 1.223745 2.997266 -0.419266 0
M  V30 10 C 0.172414 2.143171 -0.645162 0
M  V30 11 C 0.098592 0.952138 0.043679 0
M  V30 12 C -1.005336 -0.016636 -0.149882 0
M  V30 13 C -2.381182 0.008945 0.080839 0
M  V30 14 C -2.902580 1.259094 0.633138 0
M  V30 15 C -2.463936 1.739191 1.867837 0
M  V30 16 C -2.924680 2.908438 2.434578 0
M  V30 17 C -3.882039 3.656930 1.740354 0
M  V30 18 F -4.380434 4.824059 2.242771 0
M  V30 19 C -4.326603 3.189147 0.509948 0
M  V30 20 C -3.860041 2.010201 -0.058794 0
M  V30 21 N -2.866815 -1.196449 -0.296168 0
M  V30 22 C -1.841596 -1.945311 -0.744117 0
M  V30 23 C -1.862056 -3.239198 -1.232274 0
M  V30 24 C -0.714131 -3.876597 -1.660769 0
M  V30 25 C -0.690773 -5.253289 -2.175021 0
M  V30 26 N -0.960642 -5.256570 -3.584800 0
M  V30 27 C -2.273654 -4.714121 -3.888218 0
M  V30 28 C 0.061245 -4.491351 -4.260808 0
M  V30 29 C 0.469681 -3.140501 -1.573301 0
M  V30 30 C 0.427437 -1.855134 -1.077833 0
M  V30 31 N -0.696715 -1.243526 -0.663212 0
M  V30 32 N 1.087623 0.731424 0.894811 0
M  V30 33 H 2.709643 -0.554609 6.094154 0
M  V30 34 H 1.419878 -1.752269 6.033541 0
M  V30 35 H 3.144169 -2.286560 6.271820 0
M  V30 36 H 3.694734 -1.443888 2.684233 0
M  V30 37 H 4.550451 -2.027673 4.112392 0
M  V30 38 H 4.316324 0.266364 5.169594 0
M  V30 39 H 5.138920 0.339942 3.582333 0
M  V30 40 H 2.192589 1.043016 4.108955 0
M  V30 41 H 3.569943 2.108873 3.717123 0
M  V30 42 H 3.627693 0.300904 1.630063 0
M  V30 43 H 1.349635 3.945645 -0.919575 0
M  V30 44 H -0.597636 2.400524 -1.360350 0
M  V30 45 H -1.726978 1.112689 2.346677 0
M  V30 46 H -2.560274 3.251212 3.395676 0
M  V30 47 H -5.075618 3.724980 -0.089034 0
M  V30 48 H -4.188617 1.634031 -1.001292 0
M  V30 49 H -2.777988 -3.804599 -1.300307 0
M  V30 50 H -1.443964 -5.829846 -1.587661 0
M  V30 51 H 0.315139 -5.706363 -2.044496 0
M  V30 52 H -2.495502 -4.964524 -4.942164 0
M  V30 53 H -3.039409 -5.236222 -3.245812 0
M  V30 54 H -2.285555 -3.631453 -3.660340 0
M  V30 55 H -0.072988 -3.385317 -4.149798 0
M  V30 56 H 0.098286 -4.750972 -5.358027 0
M  V30 57 H 1.054434 -4.835246 -3.876776 0
M  V30 58 H 1.420470 -3.552152 -1.882785 0
M  V30 59 H 1.382544 -1.309080 -1.025370 0
M  V30 END ATOM
M  V30 BEGIN BOND
M  V30 1 1 1 2
M  V30 2 1 2 3
M  V30 3 1 3 4
M  V30 4 1 4 5
M  V30 5 1 5 6
M  V30 6 1 6 7
M  V30 7 2 7 8
M  V30 8 1 8 9
M  V30 9 2 9 10
M  V30 10 1 10 11
M  V30 11 1 11 12
M  V30 12 2 12 13
M  V30 13 1 13 14
M  V30 14 2 14 15
M  V30 15 1 15 16
M  V30 16 2 16 17
M  V30 17 1 17 18
M  V30 18 1 17 19
M  V30 19 2 19 20
M  V30 20 1 13 21
M  V30 21 2 21 22
M  V30 22 1 22 23
M  V30 23 2 23 24
M  V30 24 1 24 25
M  V30 25 1 25 26
M  V30 26 1 26 27
M  V30 27 1 26 28
M  V30 28 1 24 29
M  V30 29 2 29 30
M  V30 30 1 30 31
M  V30 31 2 11 32
M  V30 32 1 32 7
M  V30 33 1 31 12
M  V30 34 1 20 14
M  V30 35 1 31 22
M  V30 36 1 1 33
M  V30 37 1 1 34
M  V30 38 1 1 35
M  V30 39 1 3 36
M  V30 40 1 3 37
M  V30 41 1 4 38
M  V30 42 1 4 39
M  V30 43 1 5 40
M  V30 44 1 5 41
M  V30 45 1 6 42
M  V30 46 1 9 43
M  V30 47 1 10 44
M  V30 48 1 15 45
M  V30 49 1 16 46
M  V30 50 1 19 47
M  V30 51 1 20 48
M  V30 52 1 23 49
M  V30 53 1 25 50
M  V30 54 1 25 51
M  V30 55 1 27 52
M  V30 56 1 27 53
M  V30 57 1 27 54
M  V30 58 1 28 55
M  V30 59 1 28 56
M  V30 60 1 28 57
M  V30 61 1 29 58
M  V30 62 1 30 59
M  V30 END BOND
M  V30 END CTAB
M  END
>  <Dataset>  (815) 
ChEMBL_Kinases

>  <Ligand_Instance>  (815) 
nan

>  <PDB_ID>  (815) 
nan

>  <Standardized_SMILES>  (815) 
COCCCNc1nccc(-c2c(-c3ccc(F)cc3)nc3cc(CN(C)C)ccn23)n1

>  <Name>  (815) 
nan

>  <Pocket>  (815) 
nan

>  <ATP_Site>  (815) 
nan

>  <Peripheral>  (815) 
nan

>  <Num_H_Atoms_ProtBoundConf>  (815) 
nan

>  <Num_Resolved_Atoms>  (815) 
nan

>  <Num_Not_Resolved_Atoms>  (815) 
nan

$$$$
CHEMBL401056
     RDKit          3D

  0  0  0  0  0  0  0  0  0  0999 V3000
M  V30 BEGIN CTAB
M  V30 COUNTS 35 38 0 0 0
M  V30 BEGIN ATOM
M  V30 1 Br -1.320606 -1.582547 6.316092 0
M  V30 2 C -0.499351 -2.000643 4.645439 0
M  V30 3 C 0.474004 -2.947671 4.418994 0
M  V30 4 N 0.763833 -2.909327 3.106647 0
M  V30 5 N 0.016136 -1.990255 2.540122 0
M  V30 6 C -0.034913 -1.599280 1.230078 0
M  V30 7 N 0.777299 -2.198329 0.237611 0
M  V30 8 C 1.004287 -1.965521 -1.154520 0
M  V30 9 C 1.667323 -0.674541 -1.473075 0
M  V30 10 C 3.062205 -0.806997 -1.386086 0
M  V30 11 C 3.947654 0.230812 -1.637023 0
M  V30 12 C 3.396122 1.458987 -1.992664 0
M  V30 13 N 2.056630 1.587268 -2.077155 0
M  V30 14 C 1.214310 0.572564 -1.830666 0
M  V30 15 C -0.934398 -0.595475 0.942493 0
M  V30 16 C -1.760457 0.024296 1.850218 0
M  V30 17 C -2.720442 1.100669 1.490133 0
M  V30 18 C -3.358185 1.081124 0.150353 0
M  V30 19 C -2.259558 2.052173 0.376063 0
M  V30 20 N -1.662189 -0.411345 3.142172 0
M  V30 21 C -0.779436 -1.401274 3.442056 0
M  V30 22 H 0.901706 -3.586120 5.175631 0
M  V30 23 H 1.350687 -3.002078 0.597568 0
M  V30 24 H 0.023194 -1.913157 -1.726478 0
M  V30 25 H 1.536504 -2.801640 -1.645816 0
M  V30 26 H 3.608438 -1.723492 -1.116581 0
M  V30 27 H 5.016825 0.155557 -1.577097 0
M  V30 28 H 4.038858 2.306982 -2.199554 0
M  V30 29 H 0.137352 0.590489 -1.881407 0
M  V30 30 H -1.057751 -0.219643 -0.042313 0
M  V30 31 H -3.283728 1.577343 2.296267 0
M  V30 32 H -4.400736 1.458277 0.071036 0
M  V30 33 H -3.161875 0.280819 -0.577085 0
M  V30 34 H -2.581492 3.110130 0.422541 0
M  V30 35 H -1.284088 1.870389 -0.104704 0
M  V30 END ATOM
M  V30 BEGIN BOND
M  V30 1 1 1 2
M  V30 2 1 2 3
M  V30 3 2 3 4
M  V30 4 1 4 5
M  V30 5 1 5 6
M  V30 6 1 6 7
M  V30 7 1 7 8
M  V30 8 1 8 9
M  V30 9 2 9 10
M  V30 10 1 10 11
M  V30 11 2 11 12
M  V30 12 1 12 13
M  V30 13 2 13 14
M  V30 14 2 6 15
M  V30 15 1 15 16
M  V30 16 1 16 17
M  V30 17 1 17 18
M  V30 18 1 18 19
M  V30 19 2 16 20
M  V30 20 1 20 21
M  V30 21 2 21 2
M  V30 22 1 21 5
M  V30 23 1 14 9
M  V30 24 1 19 17
M  V30 25 1 3 22
M  V30 26 1 7 23
M  V30 27 1 8 24
M  V30 28 1 8 25
M  V30 29 1 10 26
M  V30 30 1 11 27
M  V30 31 1 12 28
M  V30 32 1 14 29
M  V30 33 1 15 30
M  V30 34 1 17 31
M  V30 35 1 18 32
M  V30 36 1 18 33
M  V30 37 1 19 34
M  V30 38 1 19 35
M  V30 END BOND
M  V30 END CTAB
M  END
>  <Dataset>  (816) 
ChEMBL_Kinases

>  <Ligand_Instance>  (816) 
nan

>  <PDB_ID>  (816) 
nan

>  <Standardized_SMILES>  (816) 
Brc1cnn2c(NCc3cccnc3)cc(C3CC3)nc12

>  <Name>  (816) 
nan

>  <Pocket>  (816) 
nan

>  <ATP_Site>  (816) 
nan

>  <Peripheral>  (816) 
nan

>  <Num_H_Atoms_ProtBoundConf>  (816) 
nan

>  <Num_Resolved_Atoms>  (816) 
nan

>  <Num_Not_Resolved_Atoms>  (816) 
nan

$$$$
CHEMBL401043
     RDKit          3D

  0  0  0  0  0  0  0  0  0  0999 V3000
M  V30 BEGIN CTAB
M  V30 COUNTS 41 43 0 0 0
M  V30 BEGIN ATOM
M  V30 1 C -1.548148 -3.875555 2.387619 0
M  V30 2 C -0.808151 -3.054161 3.415854 0
M  V30 3 N 0.325772 -2.361623 2.805113 0
M  V30 4 C 0.188179 -1.423148 1.710856 0
M  V30 5 O -1.019530 -1.717559 1.852880 0
M  V30 6 C 1.448504 -0.852904 1.261555 0
M  V30 7 C 1.572404 0.032777 0.300036 0
M  V30 8 C 2.734737 0.685091 -0.264814 0
M  V30 9 O 3.883340 0.432930 0.115948 0
M  V30 10 N 2.367403 1.611266 -1.276290 0
M  V30 11 C 0.954898 1.535163 -1.344364 0
M  V30 12 C 0.151937 2.269871 -2.197739 0
M  V30 13 C -1.215167 2.104161 -2.163134 0
M  V30 14 C -1.740617 1.183281 -1.249649 0
M  V30 15 S -3.485863 1.033324 -1.270729 0
M  V30 16 N -4.081921 2.205630 -0.123677 0
M  V30 17 O -4.039160 1.262867 -2.631418 0
M  V30 18 O -3.799539 -0.350896 -0.762855 0
M  V30 19 C -0.878046 0.488930 -0.432637 0
M  V30 20 C 0.475955 0.623962 -0.436733 0
M  V30 21 C 2.696165 -1.204475 1.923383 0
M  V30 22 C 3.664424 -0.476531 2.603761 0
M  V30 23 C 4.675924 -1.321360 2.992468 0
M  V30 24 C 4.359139 -2.591510 2.563491 0
M  V30 25 N 3.185424 -2.463269 1.941534 0
M  V30 26 H -2.552053 -3.447627 2.125496 0
M  V30 27 H -0.997217 -4.006158 1.436329 0
M  V30 28 H -1.693052 -4.926652 2.768137 0
M  V30 29 H -0.436691 -3.708452 4.238450 0
M  V30 30 H -1.493207 -2.281595 3.812203 0
M  V30 31 H 1.280940 -2.603395 3.246610 0
M  V30 32 H 3.057960 2.180680 -1.802046 0
M  V30 33 H 0.546166 2.981176 -2.904429 0
M  V30 34 H -1.845640 2.674084 -2.825741 0
M  V30 35 H -3.352122 2.471895 0.560158 0
M  V30 36 H -4.438688 3.064304 -0.594396 0
M  V30 37 H -1.432622 -0.153140 0.188801 0
M  V30 38 H 3.559153 0.603508 2.773685 0
M  V30 39 H 5.538105 -0.933745 3.545426 0
M  V30 40 H 4.982191 -3.443130 2.736920 0
M  V30 41 H 2.761547 -3.344066 1.529020 0
M  V30 END ATOM
M  V30 BEGIN BOND
M  V30 1 1 1 2
M  V30 2 1 2 3
M  V30 3 1 3 4
M  V30 4 2 4 5
M  V30 5 1 4 6
M  V30 6 2 6 7
M  V30 7 1 7 8
M  V30 8 2 8 9
M  V30 9 1 8 10
M  V30 10 1 10 11
M  V30 11 2 11 12
M  V30 12 1 12 13
M  V30 13 2 13 14
M  V30 14 1 14 15
M  V30 15 1 15 16
M  V30 16 2 15 17
M  V30 17 2 15 18
M  V30 18 1 14 19
M  V30 19 2 19 20
M  V30 20 1 6 21
M  V30 21 2 21 22
M  V30 22 1 22 23
M  V30 23 2 23 24
M  V30 24 1 24 25
M  V30 25 1 20 7
M  V30 26 1 25 21
M  V30 27 1 20 11
M  V30 28 1 1 26
M  V30 29 1 1 27
M  V30 30 1 1 28
M  V30 31 1 2 29
M  V30 32 1 2 30
M  V30 33 1 3 31
M  V30 34 1 10 32
M  V30 35 1 12 33
M  V30 36 1 13 34
M  V30 37 1 16 35
M  V30 38 1 16 36
M  V30 39 1 19 37
M  V30 40 1 22 38
M  V30 41 1 23 39
M  V30 42 1 24 40
M  V30 43 1 25 41
M  V30 END BOND
M  V30 END CTAB
M  END
>  <Dataset>  (817) 
ChEMBL_Kinases

>  <Ligand_Instance>  (817) 
nan

>  <PDB_ID>  (817) 
nan

>  <Standardized_SMILES>  (817) 
CCNC(=O)/C(=C1/C(=O)Nc2ccc(S(N)(=O)=O)cc21)c1ccc[nH]1

>  <Name>  (817) 
nan

>  <Pocket>  (817) 
nan

>  <ATP_Site>  (817) 
nan

>  <Peripheral>  (817) 
nan

>  <Num_H_Atoms_ProtBoundConf>  (817) 
nan

>  <Num_Resolved_Atoms>  (817) 
nan

>  <Num_Not_Resolved_Atoms>  (817) 
nan

$$$$
CHEMBL400980
     RDKit          3D

  0  0  0  0  0  0  0  0  0  0999 V3000
M  V30 BEGIN CTAB
M  V30 COUNTS 56 59 0 0 0
M  V30 BEGIN ATOM
M  V30 1 C 2.393263 -1.360199 0.145175 0
M  V30 2 C 2.633800 -0.189443 -0.701027 0
M  V30 3 O 2.410070 -0.107859 -1.950432 0
M  V30 4 N 3.172762 0.922201 0.033135 0
M  V30 5 C 3.493905 1.011443 1.465034 0
M  V30 6 C 5.018857 0.943721 1.513430 0
M  V30 7 C 5.522782 2.098300 0.676182 0
M  V30 8 C 4.441695 2.962767 0.114468 0
M  V30 9 C 3.460454 2.138441 -0.691543 0
M  V30 10 C 2.271956 2.907555 -1.144030 0
M  V30 11 C 1.348753 3.385557 -0.082598 0
M  V30 12 O 0.742684 2.451158 0.724061 0
M  V30 13 C -0.116904 1.429734 0.410360 0
M  V30 14 C -0.684534 0.964303 -0.755236 0
M  V30 15 C -1.538074 -0.117251 -0.767804 0
M  V30 16 C -1.836937 -0.756423 0.417254 0
M  V30 17 C -2.746196 -1.901623 0.369546 0
M  V30 18 N -3.164943 -2.660743 1.407108 0
M  V30 19 C -4.003417 -3.626789 0.950068 0
M  V30 20 C -4.673092 -4.627795 1.634425 0
M  V30 21 C -5.481472 -5.502873 0.935609 0
M  V30 22 C -6.243383 -6.599129 1.522545 0
M  V30 23 N -6.109319 -6.733371 2.941511 0
M  V30 24 O -6.980840 -7.402584 0.892233 0
M  V30 25 C -5.573585 -5.320979 -0.432667 0
M  V30 26 C -4.901382 -4.315405 -1.123128 0
M  V30 27 C -4.093605 -3.444001 -0.410917 0
M  V30 28 N -3.314939 -2.379326 -0.752974 0
M  V30 29 C -1.300187 -0.337387 1.617537 0
M  V30 30 C -0.433923 0.765479 1.605499 0
M  V30 31 H 1.424248 -1.259354 0.681030 0
M  V30 32 H 2.339752 -2.284158 -0.475254 0
M  V30 33 H 3.187072 -1.550010 0.888090 0
M  V30 34 H 3.001826 0.245533 2.069077 0
M  V30 35 H 3.196922 1.997301 1.842899 0
M  V30 36 H 5.312695 -0.020410 1.049869 0
M  V30 37 H 5.387241 1.002900 2.557054 0
M  V30 38 H 6.229286 2.725287 1.272998 0
M  V30 39 H 6.081514 1.683375 -0.207021 0
M  V30 40 H 4.955627 3.648025 -0.622071 0
M  V30 41 H 3.917820 3.605056 0.820966 0
M  V30 42 H 4.007584 1.817357 -1.619197 0
M  V30 43 H 1.808033 2.365240 -1.981744 0
M  V30 44 H 2.690143 3.845361 -1.630934 0
M  V30 45 H 0.513681 3.939059 -0.613981 0
M  V30 46 H 1.843511 4.202625 0.507088 0
M  V30 47 H -0.369940 1.555222 -1.593751 0
M  V30 48 H -1.920055 -0.390020 -1.738402 0
M  V30 49 H -4.603908 -4.774070 2.706073 0
M  V30 50 H -6.539151 -6.401032 3.848029 0
M  V30 51 H -5.491609 -7.246890 3.634916 0
M  V30 52 H -6.186609 -5.969292 -1.032896 0
M  V30 53 H -4.998268 -4.203589 -2.198453 0
M  V30 54 H -3.190477 -2.009042 -1.723321 0
M  V30 55 H -1.590638 -0.897205 2.489908 0
M  V30 56 H -0.097041 0.969389 2.629046 0
M  V30 END ATOM
M  V30 BEGIN BOND
M  V30 1 1 1 2
M  V30 2 2 2 3
M  V30 3 1 2 4
M  V30 4 1 4 5
M  V30 5 1 5 6
M  V30 6 1 6 7
M  V30 7 1 7 8
M  V30 8 1 8 9
M  V30 9 1 9 10
M  V30 10 1 10 11
M  V30 11 1 11 12
M  V30 12 1 12 13
M  V30 13 2 13 14
M  V30 14 1 14 15
M  V30 15 2 15 16
M  V30 16 1 16 17
M  V30 17 2 17 18
M  V30 18 1 18 19
M  V30 19 2 19 20
M  V30 20 1 20 21
M  V30 21 1 21 22
M  V30 22 1 22 23
M  V30 23 2 22 24
M  V30 24 2 21 25
M  V30 25 1 25 26
M  V30 26 2 26 27
M  V30 27 1 27 28
M  V30 28 1 16 29
M  V30 29 2 29 30
M  V30 30 1 9 4
M  V30 31 1 30 13
M  V30 32 1 28 17
M  V30 33 1 27 19
M  V30 34 1 1 31
M  V30 35 1 1 32
M  V30 36 1 1 33
M  V30 37 1 5 34
M  V30 38 1 5 35
M  V30 39 1 6 36
M  V30 40 1 6 37
M  V30 41 1 7 38
M  V30 42 1 7 39
M  V30 43 1 8 40
M  V30 44 1 8 41
M  V30 45 1 9 42
M  V30 46 1 10 43
M  V30 47 1 10 44
M  V30 48 1 11 45
M  V30 49 1 11 46
M  V30 50 1 14 47
M  V30 51 1 15 48
M  V30 52 1 20 49
M  V30 53 1 23 50
M  V30 54 1 23 51
M  V30 55 1 25 52
M  V30 56 1 26 53
M  V30 57 1 28 54
M  V30 58 1 29 55
M  V30 59 1 30 56
M  V30 END BOND
M  V30 END CTAB
M  END
>  <Dataset>  (818) 
ChEMBL_Kinases

>  <Ligand_Instance>  (818) 
nan

>  <PDB_ID>  (818) 
nan

>  <Standardized_SMILES>  (818) 
CC(=O)N1CCCCC1CCOc1ccc(-c2nc3cc(C(N)=O)ccc3[nH]2)cc1

>  <Name>  (818) 
nan

>  <Pocket>  (818) 
nan

>  <ATP_Site>  (818) 
nan

>  <Peripheral>  (818) 
nan

>  <Num_H_Atoms_ProtBoundConf>  (818) 
nan

>  <Num_Resolved_Atoms>  (818) 
nan

>  <Num_Not_Resolved_Atoms>  (818) 
nan

$$$$
CHEMBL400936
     RDKit          3D

  0  0  0  0  0  0  0  0  0  0999 V3000
M  V30 BEGIN CTAB
M  V30 COUNTS 45 48 0 0 0
M  V30 BEGIN ATOM
M  V30 1 C 1.527543 -7.983745 1.849380 0
M  V30 2 N 0.898687 -6.706556 1.690382 0
M  V30 3 C -0.368253 -6.853185 1.007914 0
M  V30 4 C -0.335399 -5.898457 -0.187130 0
M  V30 5 C 0.682299 -4.864018 0.231569 0
M  V30 6 O 0.177405 -3.844573 1.024708 0
M  V30 7 C 0.213370 -2.497221 0.820810 0
M  V30 8 C -0.405087 -1.779586 1.847579 0
M  V30 9 C -0.475157 -0.395561 1.828692 0
M  V30 10 C 0.080308 0.301386 0.767258 0
M  V30 11 C 0.036226 1.768644 0.693540 0
M  V30 12 N -0.531511 2.568014 1.621821 0
M  V30 13 C -0.400735 3.858564 1.255071 0
M  V30 14 C -0.760108 5.108583 1.765539 0
M  V30 15 C -0.438016 6.256904 1.072820 0
M  V30 16 C -0.816949 7.580695 1.610496 0
M  V30 17 N -0.492311 8.748884 0.911437 0
M  V30 18 O -1.438370 7.517725 2.723581 0
M  V30 19 C 0.248752 6.197326 -0.144181 0
M  V30 20 C 0.606066 4.965041 -0.652818 0
M  V30 21 C 0.274869 3.820443 0.055733 0
M  V30 22 N 0.549275 2.538640 -0.300085 0
M  V30 23 C 0.697586 -0.397551 -0.259355 0
M  V30 24 C 0.757980 -1.777437 -0.223669 0
M  V30 25 C 1.687113 -5.739608 0.952275 0
M  V30 26 H 1.121021 -8.484670 2.764917 0
M  V30 27 H 1.240086 -8.611466 0.961378 0
M  V30 28 H 2.629704 -7.965032 1.831809 0
M  V30 29 H -0.472660 -7.876626 0.606364 0
M  V30 30 H -1.226680 -6.591247 1.691194 0
M  V30 31 H -1.349724 -5.499262 -0.292335 0
M  V30 32 H 0.059397 -6.402347 -1.089276 0
M  V30 33 H 1.159577 -4.457047 -0.660492 0
M  V30 34 H -0.874215 -2.207082 2.727294 0
M  V30 35 H -0.946085 0.190784 2.606393 0
M  V30 36 H -1.281057 5.123223 2.691851 0
M  V30 37 H -1.328460 9.038770 0.329268 0
M  V30 38 H 0.466024 9.167404 1.036381 0
M  V30 39 H 0.461990 7.153910 -0.623141 0
M  V30 40 H 1.128807 5.012663 -1.588789 0
M  V30 41 H 1.037928 2.204043 -1.135720 0
M  V30 42 H 1.150230 0.078000 -1.114733 0
M  V30 43 H 1.217613 -2.400943 -0.977398 0
M  V30 44 H 2.426475 -6.201453 0.276023 0
M  V30 45 H 2.233279 -5.137976 1.715790 0
M  V30 END ATOM
M  V30 BEGIN BOND
M  V30 1 1 1 2
M  V30 2 1 2 3
M  V30 3 1 3 4
M  V30 4 1 4 5
M  V30 5 1 5 6
M  V30 6 1 6 7
M  V30 7 2 7 8
M  V30 8 1 8 9
M  V30 9 2 9 10
M  V30 10 1 10 11
M  V30 11 2 11 12
M  V30 12 1 12 13
M  V30 13 2 13 14
M  V30 14 1 14 15
M  V30 15 1 15 16
M  V30 16 1 16 17
M  V30 17 2 16 18
M  V30 18 2 15 19
M  V30 19 1 19 20
M  V30 20 2 20 21
M  V30 21 1 21 22
M  V30 22 1 10 23
M  V30 23 2 23 24
M  V30 24 1 5 25
M  V30 25 1 25 2
M  V30 26 1 24 7
M  V30 27 1 22 11
M  V30 28 1 21 13
M  V30 29 1 1 26
M  V30 30 1 1 27
M  V30 31 1 1 28
M  V30 32 1 3 29
M  V30 33 1 3 30
M  V30 34 1 4 31
M  V30 35 1 4 32
M  V30 36 1 5 33
M  V30 37 1 8 34
M  V30 38 1 9 35
M  V30 39 1 14 36
M  V30 40 1 17 37
M  V30 41 1 17 38
M  V30 42 1 19 39
M  V30 43 1 20 40
M  V30 44 1 22 41
M  V30 45 1 23 42
M  V30 46 1 24 43
M  V30 47 1 25 44
M  V30 48 1 25 45
M  V30 END BOND
M  V30 END CTAB
M  END
>  <Dataset>  (819) 
ChEMBL_Kinases

>  <Ligand_Instance>  (819) 
nan

>  <PDB_ID>  (819) 
nan

>  <Standardized_SMILES>  (819) 
CN1CCC(Oc2ccc(-c3nc4cc(C(N)=O)ccc4[nH]3)cc2)C1

>  <Name>  (819) 
nan

>  <Pocket>  (819) 
nan

>  <ATP_Site>  (819) 
nan

>  <Peripheral>  (819) 
nan

>  <Num_H_Atoms_ProtBoundConf>  (819) 
nan

>  <Num_Resolved_Atoms>  (819) 
nan

>  <Num_Not_Resolved_Atoms>  (819) 
nan

$$$$
CHEMBL400908
     RDKit          3D

  0  0  0  0  0  0  0  0  0  0999 V3000
M  V30 BEGIN CTAB
M  V30 COUNTS 59 63 0 0 0
M  V30 BEGIN ATOM
M  V30 1 C 2.979333 -0.981185 5.177970 0
M  V30 2 N 4.209347 -1.107522 4.464046 0
M  V30 3 C 4.615003 -2.446501 4.203395 0
M  V30 4 C 4.449525 -0.153901 3.439524 0
M  V30 5 C 3.464209 -0.122235 2.347758 0
M  V30 6 C 2.385007 0.728231 2.508519 0
M  V30 7 C 1.400647 0.845062 1.556124 0
M  V30 8 N 1.448192 0.121014 0.403833 0
M  V30 9 C 0.650113 0.018483 -0.699965 0
M  V30 10 C -0.575330 0.842357 -0.764516 0
M  V30 11 C -0.562357 1.771150 -1.784178 0
M  V30 12 C -1.696244 2.555562 -1.866747 0
M  V30 13 N -2.729271 2.424421 -1.021451 0
M  V30 14 C -2.702136 1.504046 -0.038273 0
M  V30 15 N -3.729506 1.274460 0.914346 0
M  V30 16 C -3.812393 0.316165 1.986027 0
M  V30 17 C -3.765453 -1.092552 1.555002 0
M  V30 18 C -2.674559 -1.911801 1.442281 0
M  V30 19 C -2.764193 -3.219957 1.015116 0
M  V30 20 C -3.999656 -3.739038 0.683943 0
M  V30 21 F -4.056770 -5.022821 0.268758 0
M  V30 22 C -5.147870 -2.978871 0.770457 0
M  V30 23 F -6.360533 -3.468632 0.451891 0
M  V30 24 C -4.985744 -1.681560 1.203828 0
M  V30 25 N -1.627157 0.735808 0.066619 0
M  V30 26 C 1.217304 -0.895209 -1.563820 0
M  V30 27 C 0.603004 -1.226394 -2.834382 0
M  V30 28 C -0.633861 -1.817413 -3.022169 0
M  V30 29 C -1.093866 -2.076254 -4.305711 0
M  V30 30 C -0.335330 -1.752929 -5.407919 0
M  V30 31 F -0.765072 -1.996745 -6.670504 0
M  V30 32 C 0.917718 -1.155325 -5.252997 0
M  V30 33 C 1.348202 -0.909850 -3.951243 0
M  V30 34 N 2.342074 -1.323489 -0.965461 0
M  V30 35 C 2.496886 -0.714221 0.233220 0
M  V30 36 C 3.512618 -0.864407 1.166548 0
M  V30 37 H 2.746483 0.075739 5.417313 0
M  V30 38 H 2.124483 -1.532576 4.735967 0
M  V30 39 H 3.115026 -1.460679 6.190578 0
M  V30 40 H 5.072288 -2.840832 5.157575 0
M  V30 41 H 5.491826 -2.379702 3.501262 0
M  V30 42 H 3.835521 -3.104986 3.817082 0
M  V30 43 H 5.473704 -0.332177 3.043916 0
M  V30 44 H 4.503808 0.846416 3.921845 0
M  V30 45 H 2.287076 1.335546 3.407481 0
M  V30 46 H 0.588076 1.511190 1.720416 0
M  V30 47 H 0.204272 1.966498 -2.518195 0
M  V30 48 H -1.886893 3.345300 -2.596611 0
M  V30 49 H -4.545787 1.944788 0.768297 0
M  V30 50 H -4.762816 0.472186 2.534202 0
M  V30 51 H -3.020753 0.531683 2.765785 0
M  V30 52 H -1.734885 -1.493396 1.706804 0
M  V30 53 H -1.865068 -3.823590 0.944673 0
M  V30 54 H -5.903587 -1.097266 1.265679 0
M  V30 55 H -1.187552 -2.050221 -2.117013 0
M  V30 56 H -2.065343 -2.539507 -4.418299 0
M  V30 57 H 1.503321 -0.906541 -6.127786 0
M  V30 58 H 2.320941 -0.447643 -3.885285 0
M  V30 59 H 4.352845 -1.513113 1.063991 0
M  V30 END ATOM
M  V30 BEGIN BOND
M  V30 1 1 1 2
M  V30 2 1 2 3
M  V30 3 1 2 4
M  V30 4 1 4 5
M  V30 5 1 5 6
M  V30 6 2 6 7
M  V30 7 1 7 8
M  V30 8 1 8 9
M  V30 9 1 9 10
M  V30 10 2 10 11
M  V30 11 1 11 12
M  V30 12 2 12 13
M  V30 13 1 13 14
M  V30 14 1 14 15
M  V30 15 1 15 16
M  V30 16 1 16 17
M  V30 17 2 17 18
M  V30 18 1 18 19
M  V30 19 2 19 20
M  V30 20 1 20 21
M  V30 21 1 20 22
M  V30 22 1 22 23
M  V30 23 2 22 24
M  V30 24 2 14 25
M  V30 25 2 9 26
M  V30 26 1 26 27
M  V30 27 2 27 28
M  V30 28 1 28 29
M  V30 29 2 29 30
M  V30 30 1 30 31
M  V30 31 1 30 32
M  V30 32 2 32 33
M  V30 33 1 26 34
M  V30 34 2 34 35
M  V30 35 1 35 36
M  V30 36 2 36 5
M  V30 37 1 35 8
M  V30 38 1 25 10
M  V30 39 1 33 27
M  V30 40 1 24 17
M  V30 41 1 1 37
M  V30 42 1 1 38
M  V30 43 1 1 39
M  V30 44 1 3 40
M  V30 45 1 3 41
M  V30 46 1 3 42
M  V30 47 1 4 43
M  V30 48 1 4 44
M  V30 49 1 6 45
M  V30 50 1 7 46
M  V30 51 1 11 47
M  V30 52 1 12 48
M  V30 53 1 15 49
M  V30 54 1 16 50
M  V30 55 1 16 51
M  V30 56 1 18 52
M  V30 57 1 19 53
M  V30 58 1 24 54
M  V30 59 1 28 55
M  V30 60 1 29 56
M  V30 61 1 32 57
M  V30 62 1 33 58
M  V30 63 1 36 59
M  V30 END BOND
M  V30 END CTAB
M  END
>  <Dataset>  (820) 
ChEMBL_Kinases

>  <Ligand_Instance>  (820) 
nan

>  <PDB_ID>  (820) 
nan

>  <Standardized_SMILES>  (820) 
CN(C)Cc1ccn2c(-c3ccnc(NCc4ccc(F)c(F)c4)n3)c(-c3ccc(F)cc3)nc2c1

>  <Name>  (820) 
nan

>  <Pocket>  (820) 
nan

>  <ATP_Site>  (820) 
nan

>  <Peripheral>  (820) 
nan

>  <Num_H_Atoms_ProtBoundConf>  (820) 
nan

>  <Num_Resolved_Atoms>  (820) 
nan

>  <Num_Not_Resolved_Atoms>  (820) 
nan

$$$$
CHEMBL96345
     RDKit          3D

  0  0  0  0  0  0  0  0  0  0999 V3000
M  V30 BEGIN CTAB
M  V30 COUNTS 60 64 0 0 0
M  V30 BEGIN ATOM
M  V30 1 C 3.430814 -2.651517 5.229214 0
M  V30 2 C 2.742290 -2.917910 3.908209 0
M  V30 3 N 3.358823 -2.088700 2.905761 0
M  V30 4 C 3.114581 -0.696435 3.066869 0
M  V30 5 C 1.776246 -0.222394 2.512454 0
M  V30 6 C 1.408562 -1.122429 1.384379 0
M  V30 7 C 0.415216 -0.592827 0.438304 0
M  V30 8 C 0.588117 0.594362 -0.284225 0
M  V30 9 C -0.394779 1.046963 -1.173445 0
M  V30 10 C -0.112911 2.302586 -1.877919 0
M  V30 11 C 0.509875 2.530809 -3.066271 0
M  V30 12 C 0.644878 3.831301 -3.504982 0
M  V30 13 C 0.184572 4.928066 -2.809527 0
M  V30 14 F 0.345370 6.194879 -3.294089 0
M  V30 15 C -0.454571 4.684861 -1.588394 0
M  V30 16 C -0.599456 3.382980 -1.131434 0
M  V30 17 Cl -1.425983 3.293235 0.411961 0
M  V30 18 C -1.561967 0.343400 -1.367829 0
M  V30 19 C -1.783629 -0.825169 -0.686333 0
M  V30 20 C -0.783448 -1.224622 0.175536 0
M  V30 21 N -2.962617 -1.613220 -0.829260 0
M  V30 22 C -3.098458 -2.811254 -0.079388 0
M  V30 23 C -2.593315 -3.925923 -0.731761 0
M  V30 24 Cl -1.857318 -3.867201 -2.327172 0
M  V30 25 C -2.630835 -5.195248 -0.163861 0
M  V30 26 C -3.200901 -5.301661 1.096945 0
M  V30 27 C -3.708336 -4.205270 1.760907 0
M  V30 28 C -3.659522 -2.953651 1.175587 0
M  V30 29 Cl -4.269708 -1.486217 1.911879 0
M  V30 30 C -3.978898 -1.179816 -1.724831 0
M  V30 31 O -5.038198 -1.838158 -1.888501 0
M  V30 32 N -3.727236 0.020776 -2.410853 0
M  V30 33 C -2.555798 0.867501 -2.311624 0
M  V30 34 C 2.716230 -1.484399 0.678572 0
M  V30 35 C 3.306870 -2.576646 1.573212 0
M  V30 36 H 4.345559 -2.012819 5.106039 0
M  V30 37 H 2.741327 -2.114847 5.944386 0
M  V30 38 H 3.695475 -3.599567 5.737284 0
M  V30 39 H 2.870705 -3.994758 3.683118 0
M  V30 40 H 1.665476 -2.640196 4.038322 0
M  V30 41 H 3.106899 -0.516266 4.183609 0
M  V30 42 H 3.965863 -0.128790 2.647447 0
M  V30 43 H 1.009885 -0.110981 3.302067 0
M  V30 44 H 1.968840 0.789904 2.048720 0
M  V30 45 H 0.960717 -2.059991 1.822454 0
M  V30 46 H 1.520664 1.157966 -0.130113 0
M  V30 47 H 0.835033 1.640076 -3.541723 0
M  V30 48 H 1.146609 3.969989 -4.454325 0
M  V30 49 H -0.796530 5.567738 -1.081509 0
M  V30 50 H -0.961495 -2.161128 0.720841 0
M  V30 51 H -2.259797 -6.085094 -0.618315 0
M  V30 52 H -3.270014 -6.265408 1.614683 0
M  V30 53 H -4.160867 -4.267345 2.752669 0
M  V30 54 H -4.462950 0.363099 -3.078290 0
M  V30 55 H -2.913691 1.889052 -2.091372 0
M  V30 56 H -2.087485 0.807698 -3.338458 0
M  V30 57 H 3.414151 -0.633111 0.714476 0
M  V30 58 H 2.574328 -1.820943 -0.357203 0
M  V30 59 H 2.610335 -3.452147 1.461757 0
M  V30 60 H 4.293075 -2.908145 1.200214 0
M  V30 END ATOM
M  V30 BEGIN BOND
M  V30 1 1 1 2
M  V30 2 1 2 3
M  V30 3 1 3 4
M  V30 4 1 4 5
M  V30 5 1 5 6
M  V30 6 1 6 7
M  V30 7 2 7 8
M  V30 8 1 8 9
M  V30 9 1 9 10
M  V30 10 2 10 11
M  V30 11 1 11 12
M  V30 12 2 12 13
M  V30 13 1 13 14
M  V30 14 1 13 15
M  V30 15 2 15 16
M  V30 16 1 16 17
M  V30 17 2 9 18
M  V30 18 1 18 19
M  V30 19 2 19 20
M  V30 20 1 19 21
M  V30 21 1 21 22
M  V30 22 2 22 23
M  V30 23 1 23 24
M  V30 24 1 23 25
M  V30 25 2 25 26
M  V30 26 1 26 27
M  V30 27 2 27 28
M  V30 28 1 28 29
M  V30 29 1 21 30
M  V30 30 2 30 31
M  V30 31 1 30 32
M  V30 32 1 32 33
M  V30 33 1 6 34
M  V30 34 1 34 35
M  V30 35 1 35 3
M  V30 36 1 20 7
M  V30 37 1 28 22
M  V30 38 1 16 10
M  V30 39 1 33 18
M  V30 40 1 1 36
M  V30 41 1 1 37
M  V30 42 1 1 38
M  V30 43 1 2 39
M  V30 44 1 2 40
M  V30 45 1 4 41
M  V30 46 1 4 42
M  V30 47 1 5 43
M  V30 48 1 5 44
M  V30 49 1 6 45
M  V30 50 1 8 46
M  V30 51 1 11 47
M  V30 52 1 12 48
M  V30 53 1 15 49
M  V30 54 1 20 50
M  V30 55 1 25 51
M  V30 56 1 26 52
M  V30 57 1 27 53
M  V30 58 1 32 54
M  V30 59 1 33 55
M  V30 60 1 33 56
M  V30 61 1 34 57
M  V30 62 1 34 58
M  V30 63 1 35 59
M  V30 64 1 35 60
M  V30 END BOND
M  V30 END CTAB
M  END
>  <Dataset>  (821) 
ChEMBL_Kinases

>  <Ligand_Instance>  (821) 
nan

>  <PDB_ID>  (821) 
nan

>  <Standardized_SMILES>  (821) 
CCN1CCC(c2cc(-c3ccc(F)cc3Cl)c3c(c2)N(c2c(Cl)cccc2Cl)C(=O)NC3)CC1

>  <Name>  (821) 
nan

>  <Pocket>  (821) 
nan

>  <ATP_Site>  (821) 
nan

>  <Peripheral>  (821) 
nan

>  <Num_H_Atoms_ProtBoundConf>  (821) 
nan

>  <Num_Resolved_Atoms>  (821) 
nan

>  <Num_Not_Resolved_Atoms>  (821) 
nan

$$$$
CHEMBL96565
     RDKit          3D

  0  0  0  0  0  0  0  0  0  0999 V3000
M  V30 BEGIN CTAB
M  V30 COUNTS 61 66 0 0 0
M  V30 BEGIN ATOM
M  V30 1 O 4.485697 -3.110810 2.468080 0
M  V30 2 C 3.774440 -2.134090 2.166314 0
M  V30 3 N 4.216872 -0.781588 2.393788 0
M  V30 4 C 3.516663 0.429301 2.101726 0
M  V30 5 C 2.186752 0.186292 1.495534 0
M  V30 6 C 1.427488 1.295822 1.174772 0
M  V30 7 C 1.942683 2.636903 1.434902 0
M  V30 8 C 2.677497 3.283789 0.461509 0
M  V30 9 C 3.223830 4.546086 0.567609 0
M  V30 10 C 3.018271 5.230924 1.759430 0
M  V30 11 F 3.535374 6.466762 1.903484 0
M  V30 12 C 2.285346 4.595807 2.741057 0
M  V30 13 C 1.739965 3.333198 2.632472 0
M  V30 14 Cl 0.820767 2.559661 3.887981 0
M  V30 15 C 0.188185 1.072427 0.609935 0
M  V30 16 C -0.296477 -0.195648 0.365083 0
M  V30 17 C -1.637543 -0.357473 -0.244498 0
M  V30 18 C -2.599045 -1.044010 0.714366 0
M  V30 19 C -3.932448 -1.118735 0.022230 0
M  V30 20 N -3.773256 -1.880545 -1.188763 0
M  V30 21 C -4.969628 -2.490396 -1.649574 0
M  V30 22 C -6.136398 -1.590181 -1.945731 0
M  V30 23 C -5.457479 -2.391145 -3.039674 0
M  V30 24 C -3.002789 -1.136547 -2.118459 0
M  V30 25 C -1.570342 -1.039305 -1.568677 0
M  V30 26 C 0.455710 -1.307736 0.682590 0
M  V30 27 C 1.704298 -1.066881 1.251983 0
M  V30 28 N 2.463428 -2.226836 1.571682 0
M  V30 29 C 2.010466 -3.569232 1.339654 0
M  V30 30 C 1.293371 -4.301775 2.271948 0
M  V30 31 Cl 0.911054 -3.586476 3.800964 0
M  V30 32 C 0.909958 -5.583568 1.939773 0
M  V30 33 C 1.229874 -6.139948 0.699672 0
M  V30 34 C 1.953681 -5.383549 -0.225487 0
M  V30 35 C 2.343862 -4.087929 0.104341 0
M  V30 36 Cl 3.245506 -3.216024 -1.113772 0
M  V30 37 H 5.157987 -0.583849 2.823334 0
M  V30 38 H 3.322834 0.927200 3.085184 0
M  V30 39 H 4.137151 1.156153 1.541479 0
M  V30 40 H 2.848074 2.752460 -0.488205 0
M  V30 41 H 3.789124 4.983204 -0.245508 0
M  V30 42 H 2.108612 5.117471 3.694435 0
M  V30 43 H -0.389292 1.962907 0.366916 0
M  V30 44 H -2.082895 0.648729 -0.425535 0
M  V30 45 H -2.662511 -0.416256 1.615065 0
M  V30 46 H -2.227567 -2.063416 0.912875 0
M  V30 47 H -4.180641 -0.073892 -0.300647 0
M  V30 48 H -4.736760 -1.501961 0.679708 0
M  V30 49 H -5.265472 -3.382358 -1.014456 0
M  V30 50 H -7.148526 -1.931231 -1.711803 0
M  V30 51 H -5.942102 -0.502324 -1.893582 0
M  V30 52 H -4.859173 -1.846484 -3.762225 0
M  V30 53 H -5.968100 -3.301252 -3.417293 0
M  V30 54 H -2.981994 -1.522212 -3.158140 0
M  V30 55 H -3.366296 -0.083369 -2.118083 0
M  V30 56 H -1.023926 -0.390668 -2.270109 0
M  V30 57 H -1.171020 -2.071108 -1.511928 0
M  V30 58 H 0.040959 -2.277604 0.475401 0
M  V30 59 H 0.354098 -6.123888 2.688115 0
M  V30 60 H 0.885842 -7.136153 0.545256 0
M  V30 61 H 2.148144 -5.897261 -1.143067 0
M  V30 END ATOM
M  V30 BEGIN BOND
M  V30 1 2 1 2
M  V30 2 1 2 3
M  V30 3 1 3 4
M  V30 4 1 4 5
M  V30 5 2 5 6
M  V30 6 1 6 7
M  V30 7 2 7 8
M  V30 8 1 8 9
M  V30 9 2 9 10
M  V30 10 1 10 11
M  V30 11 1 10 12
M  V30 12 2 12 13
M  V30 13 1 13 14
M  V30 14 1 6 15
M  V30 15 2 15 16
M  V30 16 1 16 17
M  V30 17 1 17 18
M  V30 18 1 18 19
M  V30 19 1 19 20
M  V30 20 1 20 21
M  V30 21 1 21 22
M  V30 22 1 22 23
M  V30 23 1 20 24
M  V30 24 1 24 25
M  V30 25 1 16 26
M  V30 26 2 26 27
M  V30 27 1 27 28
M  V30 28 1 28 29
M  V30 29 2 29 30
M  V30 30 1 30 31
M  V30 31 1 30 32
M  V30 32 2 32 33
M  V30 33 1 33 34
M  V30 34 2 34 35
M  V30 35 1 35 36
M  V30 36 1 28 2
M  V30 37 1 35 29
M  V30 38 1 27 5
M  V30 39 1 13 7
M  V30 40 1 25 17
M  V30 41 1 23 21
M  V30 42 1 3 37
M  V30 43 1 4 38
M  V30 44 1 4 39
M  V30 45 1 8 40
M  V30 46 1 9 41
M  V30 47 1 12 42
M  V30 48 1 15 43
M  V30 49 1 17 44
M  V30 50 1 18 45
M  V30 51 1 18 46
M  V30 52 1 19 47
M  V30 53 1 19 48
M  V30 54 1 21 49
M  V30 55 1 22 50
M  V30 56 1 22 51
M  V30 57 1 23 52
M  V30 58 1 23 53
M  V30 59 1 24 54
M  V30 60 1 24 55
M  V30 61 1 25 56
M  V30 62 1 25 57
M  V30 63 1 26 58
M  V30 64 1 32 59
M  V30 65 1 33 60
M  V30 66 1 34 61
M  V30 END BOND
M  V30 END CTAB
M  END
>  <Dataset>  (822) 
ChEMBL_Kinases

>  <Ligand_Instance>  (822) 
nan

>  <PDB_ID>  (822) 
nan

>  <Standardized_SMILES>  (822) 
O=C1NCc2c(-c3ccc(F)cc3Cl)cc(C3CCN(C4CC4)CC3)cc2N1c1c(Cl)cccc1Cl

>  <Name>  (822) 
nan

>  <Pocket>  (822) 
nan

>  <ATP_Site>  (822) 
nan

>  <Peripheral>  (822) 
nan

>  <Num_H_Atoms_ProtBoundConf>  (822) 
nan

>  <Num_Resolved_Atoms>  (822) 
nan

>  <Num_Not_Resolved_Atoms>  (822) 
nan

$$$$
CHEMBL4865763
     RDKit          3D

  0  0  0  0  0  0  0  0  0  0999 V3000
M  V30 BEGIN CTAB
M  V30 COUNTS 49 52 0 0 0
M  V30 BEGIN ATOM
M  V30 1 C 0.128201 -1.912135 4.339262 0
M  V30 2 C 0.889324 -3.201685 4.161661 0
M  V30 3 C 0.910519 -3.647964 2.743203 0
M  V30 4 C 0.339661 -3.046604 1.627150 0
M  V30 5 C 0.591112 -3.790705 0.491096 0
M  V30 6 N 0.142993 -3.457799 -0.838248 0
M  V30 7 C -0.590922 -2.223200 -0.934502 0
M  V30 8 N 0.056508 -1.110653 -1.354648 0
M  V30 9 C -0.563671 0.098966 -1.461761 0
M  V30 10 N 0.269392 1.140040 -1.939498 0
M  V30 11 C 1.474389 1.819134 -1.548503 0 CFG=2
M  V30 12 C 2.651013 0.867168 -1.477205 0
M  V30 13 C 1.368172 2.568630 -0.294478 0
M  V30 14 C 2.365351 2.476798 0.679291 0
M  V30 15 C 2.361729 3.149272 1.886086 0
M  V30 16 C 1.285962 3.974309 2.143421 0
M  V30 17 F 1.283779 4.640472 3.338711 0
M  V30 18 C 0.270768 4.103048 1.216046 0
M  V30 19 C 0.322213 3.408240 0.023109 0
M  V30 20 N -1.854058 0.174520 -1.137291 0
M  V30 21 C -2.563744 -0.903146 -0.709239 0
M  V30 22 C -3.899607 -0.776873 -0.388740 0
M  V30 23 C -4.550076 -1.917797 0.034131 0
M  V30 24 C -3.944098 -3.158467 0.151824 0
M  V30 25 C -2.608081 -3.268156 -0.172431 0
M  V30 26 C -1.925979 -2.140273 -0.601029 0
M  V30 27 N 1.313656 -4.837169 0.933863 0
M  V30 28 N 1.500777 -4.757535 2.238318 0
M  V30 29 H 0.779250 -1.039255 4.163922 0
M  V30 30 H -0.288772 -1.834177 5.375053 0
M  V30 31 H -0.749822 -1.843853 3.673772 0
M  V30 32 H 0.404363 -3.971377 4.803512 0
M  V30 33 H 1.947753 -3.086336 4.480634 0
M  V30 34 H -0.212092 -2.112550 1.731664 0
M  V30 35 H 0.418284 -4.168321 -1.569696 0
M  V30 36 H -0.252740 1.384006 -2.813592 0
M  V30 37 H 1.711183 2.528173 -2.372931 0
M  V30 38 H 3.567282 1.481839 -1.421437 0
M  V30 39 H 2.567285 0.278604 -0.565391 0
M  V30 40 H 2.747747 0.263117 -2.404191 0
M  V30 41 H 3.250169 1.841525 0.546816 0
M  V30 42 H 3.158573 3.043535 2.606406 0
M  V30 43 H -0.513343 4.771484 1.525919 0
M  V30 44 H -0.485794 3.533974 -0.675406 0
M  V30 45 H -4.430290 0.170177 -0.459412 0
M  V30 46 H -5.595337 -1.926137 0.307448 0
M  V30 47 H -4.466950 -4.045168 0.486327 0
M  V30 48 H -2.024255 -4.184658 -0.119980 0
M  V30 49 H 2.035125 -5.462488 2.796563 0
M  V30 END ATOM
M  V30 BEGIN BOND
M  V30 1 1 1 2
M  V30 2 1 2 3
M  V30 3 2 3 4
M  V30 4 1 4 5
M  V30 5 1 5 6
M  V30 6 1 6 7
M  V30 7 2 7 8
M  V30 8 1 8 9
M  V30 9 1 9 10
M  V30 10 1 10 11
M  V30 11 1 11 12
M  V30 12 1 11 13
M  V30 13 2 13 14
M  V30 14 1 14 15
M  V30 15 2 15 16
M  V30 16 1 16 17
M  V30 17 1 16 18
M  V30 18 2 18 19
M  V30 19 2 9 20
M  V30 20 1 20 21
M  V30 21 2 21 22
M  V30 22 1 22 23
M  V30 23 2 23 24
M  V30 24 1 24 25
M  V30 25 2 25 26
M  V30 26 2 5 27
M  V30 27 1 27 28
M  V30 28 1 28 3
M  V30 29 1 26 7
M  V30 30 1 19 13
M  V30 31 1 26 21
M  V30 32 1 1 29
M  V30 33 1 1 30
M  V30 34 1 1 31
M  V30 35 1 2 32
M  V30 36 1 2 33
M  V30 37 1 4 34
M  V30 38 1 6 35
M  V30 39 1 10 36
M  V30 40 1 11 37 CFG=3
M  V30 41 1 12 38
M  V30 42 1 12 39
M  V30 43 1 12 40
M  V30 44 1 14 41
M  V30 45 1 15 42
M  V30 46 1 18 43
M  V30 47 1 19 44
M  V30 48 1 22 45
M  V30 49 1 23 46
M  V30 50 1 24 47
M  V30 51 1 25 48
M  V30 52 1 28 49
M  V30 END BOND
M  V30 END CTAB
M  END
>  <Dataset>  (823) 
ChEMBL_Kinases

>  <Ligand_Instance>  (823) 
nan

>  <PDB_ID>  (823) 
nan

>  <Standardized_SMILES>  (823) 
CCc1cc(Nc2nc(N[C@H](C)c3ccc(F)cc3)nc3ccccc23)n[nH]1

>  <Name>  (823) 
nan

>  <Pocket>  (823) 
nan

>  <ATP_Site>  (823) 
nan

>  <Peripheral>  (823) 
nan

>  <Num_H_Atoms_ProtBoundConf>  (823) 
nan

>  <Num_Resolved_Atoms>  (823) 
nan

>  <Num_Not_Resolved_Atoms>  (823) 
nan

$$$$
CHEMBL4865770
     RDKit          3D

  0  0  0  0  0  0  0  0  0  0999 V3000
M  V30 BEGIN CTAB
M  V30 COUNTS 38 41 0 0 0
M  V30 BEGIN ATOM
M  V30 1 O -2.319224 -1.729389 3.370541 0
M  V30 2 C -1.627626 -1.935553 2.338526 0
M  V30 3 N -1.566736 -3.153121 1.770992 0
M  V30 4 C -0.839500 -3.403029 0.672252 0
M  V30 5 C -0.093979 -2.415992 0.039853 0
M  V30 6 N 0.668904 -2.736982 -1.109117 0
M  V30 7 C 1.173884 -1.948708 -2.165144 0
M  V30 8 C 2.239617 -2.364013 -2.936447 0
M  V30 9 C 2.733573 -1.617425 -3.976794 0
M  V30 10 C 2.187706 -0.399010 -4.313112 0
M  V30 11 C 1.123105 0.057127 -3.573088 0
M  V30 12 F 0.581531 1.254434 -3.898427 0
M  V30 13 C 0.657553 -0.724275 -2.536332 0
M  V30 14 C -0.168921 -1.192632 0.629818 0
M  V30 15 C -0.909448 -0.908156 1.760230 0
M  V30 16 C -0.955578 0.425888 2.353825 0
M  V30 17 C -1.917930 1.335616 1.953156 0
M  V30 18 C -1.912102 2.583836 2.550965 0
M  V30 19 C -0.964149 2.891418 3.517262 0
M  V30 20 C -0.009519 1.963841 3.902772 0
M  V30 21 N 1.000500 1.996655 4.792283 0
M  V30 22 C 1.637032 0.807386 4.778276 0
M  V30 23 C 1.020054 -0.016261 3.853291 0
M  V30 24 C -0.008472 0.731640 3.318519 0
M  V30 25 H -2.118557 -3.915713 2.226296 0
M  V30 26 H -0.862217 -4.422390 0.298461 0
M  V30 27 H 0.912551 -3.761966 -1.203505 0
M  V30 28 H 2.693202 -3.331813 -2.689517 0
M  V30 29 H 3.583497 -2.003657 -4.551827 0
M  V30 30 H 2.590944 0.169371 -5.132232 0
M  V30 31 H -0.178310 -0.294218 -2.025373 0
M  V30 32 H 0.368839 -0.360938 0.240702 0
M  V30 33 H -2.660894 1.089219 1.193291 0
M  V30 34 H -2.654058 3.322385 2.259712 0
M  V30 35 H -1.001621 3.881635 3.955084 0
M  V30 36 H 1.264676 2.812239 5.408185 0
M  V30 37 H 2.479985 0.538037 5.379740 0
M  V30 38 H 1.326410 -1.046620 3.629065 0
M  V30 END ATOM
M  V30 BEGIN BOND
M  V30 1 2 1 2
M  V30 2 1 2 3
M  V30 3 1 3 4
M  V30 4 2 4 5
M  V30 5 1 5 6
M  V30 6 1 6 7
M  V30 7 2 7 8
M  V30 8 1 8 9
M  V30 9 2 9 10
M  V30 10 1 10 11
M  V30 11 1 11 12
M  V30 12 2 11 13
M  V30 13 1 5 14
M  V30 14 2 14 15
M  V30 15 1 15 16
M  V30 16 2 16 17
M  V30 17 1 17 18
M  V30 18 2 18 19
M  V30 19 1 19 20
M  V30 20 1 20 21
M  V30 21 1 21 22
M  V30 22 2 22 23
M  V30 23 1 23 24
M  V30 24 1 15 2
M  V30 25 1 24 16
M  V30 26 1 13 7
M  V30 27 2 24 20
M  V30 28 1 3 25
M  V30 29 1 4 26
M  V30 30 1 6 27
M  V30 31 1 8 28
M  V30 32 1 9 29
M  V30 33 1 10 30
M  V30 34 1 13 31
M  V30 35 1 14 32
M  V30 36 1 17 33
M  V30 37 1 18 34
M  V30 38 1 19 35
M  V30 39 1 21 36
M  V30 40 1 22 37
M  V30 41 1 23 38
M  V30 END BOND
M  V30 END CTAB
M  END
>  <Dataset>  (824) 
ChEMBL_Kinases

>  <Ligand_Instance>  (824) 
nan

>  <PDB_ID>  (824) 
nan

>  <Standardized_SMILES>  (824) 
O=c1[nH]cc(Nc2cccc(F)c2)cc1-c1cccc2[nH]ccc12

>  <Name>  (824) 
nan

>  <Pocket>  (824) 
nan

>  <ATP_Site>  (824) 
nan

>  <Peripheral>  (824) 
nan

>  <Num_H_Atoms_ProtBoundConf>  (824) 
nan

>  <Num_Resolved_Atoms>  (824) 
nan

>  <Num_Not_Resolved_Atoms>  (824) 
nan

$$$$
CHEMBL103009
     RDKit          3D

  0  0  0  0  0  0  0  0  0  0999 V3000
M  V30 BEGIN CTAB
M  V30 COUNTS 21 21 0 0 0
M  V30 BEGIN ATOM
M  V30 1 C -0.291224 2.520485 3.686176 0
M  V30 2 O 0.783988 1.759522 3.226288 0
M  V30 3 C 0.795972 0.947833 2.109080 0
M  V30 4 C 2.019078 0.306045 1.895850 0
M  V30 5 C 2.127777 -0.538524 0.786509 0
M  V30 6 C 1.055043 -0.714399 -0.049338 0
M  V30 7 C 1.284818 -1.616376 -1.171464 0
M  V30 8 O 2.397979 -2.174417 -1.329565 0
M  V30 9 C 0.200889 -1.904474 -2.168919 0
M  V30 10 Br 0.891727 -3.132378 -3.488477 0
M  V30 11 C -0.141415 -0.098412 0.142886 0
M  V30 12 C -0.263184 0.739934 1.236391 0
M  V30 13 H -0.771036 1.922810 4.507708 0
M  V30 14 H -0.011143 3.506818 4.108679 0
M  V30 15 H -1.065902 2.710416 2.897335 0
M  V30 16 H 2.884322 0.429764 2.544903 0
M  V30 17 H 3.099516 -1.029412 0.643396 0
M  V30 18 H -0.133573 -0.990981 -2.683720 0
M  V30 19 H -0.668348 -2.380052 -1.667467 0
M  V30 20 H -0.967557 -0.245965 -0.517568 0
M  V30 21 H -1.179888 1.266928 1.459873 0
M  V30 END ATOM
M  V30 BEGIN BOND
M  V30 1 1 1 2
M  V30 2 1 2 3
M  V30 3 2 3 4
M  V30 4 1 4 5
M  V30 5 2 5 6
M  V30 6 1 6 7
M  V30 7 2 7 8
M  V30 8 1 7 9
M  V30 9 1 9 10
M  V30 10 1 6 11
M  V30 11 2 11 12
M  V30 12 1 12 3
M  V30 13 1 1 13
M  V30 14 1 1 14
M  V30 15 1 1 15
M  V30 16 1 4 16
M  V30 17 1 5 17
M  V30 18 1 9 18
M  V30 19 1 9 19
M  V30 20 1 11 20
M  V30 21 1 12 21
M  V30 END BOND
M  V30 END CTAB
M  END
>  <Dataset>  (825) 
ChEMBL_Kinases

>  <Ligand_Instance>  (825) 
nan

>  <PDB_ID>  (825) 
nan

>  <Standardized_SMILES>  (825) 
COc1ccc(C(=O)CBr)cc1

>  <Name>  (825) 
nan

>  <Pocket>  (825) 
nan

>  <ATP_Site>  (825) 
nan

>  <Peripheral>  (825) 
nan

>  <Num_H_Atoms_ProtBoundConf>  (825) 
nan

>  <Num_Resolved_Atoms>  (825) 
nan

>  <Num_Not_Resolved_Atoms>  (825) 
nan

$$$$
CHEMBL4865829
     RDKit          3D

  0  0  0  0  0  0  0  0  0  0999 V3000
M  V30 BEGIN CTAB
M  V30 COUNTS 54 56 0 0 0
M  V30 BEGIN ATOM
M  V30 1 C 1.989318 -1.896151 0.038783 0
M  V30 2 C 2.863555 -2.192218 -1.161802 0
M  V30 3 C 2.673430 -3.629016 -1.598870 0
M  V30 4 C 4.309056 -1.919446 -0.829132 0
M  V30 5 N 4.433628 -0.531887 -0.464947 0
M  V30 6 C 4.134088 0.603546 -1.251617 0
M  V30 7 C 2.938113 1.279983 -1.319104 0
M  V30 8 C 2.772313 2.376785 -2.128442 0
M  V30 9 O 1.550918 3.040625 -2.175644 0
M  V30 10 C 0.452944 2.628049 -1.413392 0
M  V30 11 C 0.113095 3.027592 -0.136109 0
M  V30 12 C -1.018209 2.506417 0.459164 0
M  V30 13 C -1.803602 1.593531 -0.215966 0
M  V30 14 N -2.980207 1.065522 0.431505 0
M  V30 15 C -2.933314 -0.126936 1.230245 0
M  V30 16 O -1.873768 -0.767501 1.404908 0
M  V30 17 N -4.190907 -0.503099 1.795184 0
M  V30 18 C -4.158242 -1.695099 2.596678 0
M  V30 19 C -4.395140 -2.878622 1.910411 0
M  V30 20 C -4.388852 -4.100728 2.582560 0
M  V30 21 C -4.142706 -4.084629 3.928566 0
M  V30 22 C -3.906604 -2.903924 4.611787 0
M  V30 23 C -3.640228 -2.906178 6.083767 0
M  V30 24 F -2.751330 -1.904334 6.440825 0
M  V30 25 F -4.851114 -2.771186 6.735412 0
M  V30 26 F -3.130354 -4.135916 6.456457 0
M  V30 27 C -3.909401 -1.672384 3.953966 0
M  V30 28 C -1.474922 1.177792 -1.508926 0
M  V30 29 C -0.328205 1.710343 -2.103939 0
M  V30 30 N 3.830512 2.771776 -2.861108 0
M  V30 31 C 5.010501 2.114472 -2.802673 0
M  V30 32 N 5.145297 1.038499 -1.997661 0
M  V30 33 H 1.055615 -1.430720 -0.331226 0
M  V30 34 H 1.759780 -2.828251 0.597471 0
M  V30 35 H 2.501992 -1.145974 0.663886 0
M  V30 36 H 2.589368 -1.513280 -1.970122 0
M  V30 37 H 3.226026 -3.763363 -2.548864 0
M  V30 38 H 1.608595 -3.794731 -1.810588 0
M  V30 39 H 3.095656 -4.295740 -0.819302 0
M  V30 40 H 4.925973 -2.136835 -1.732308 0
M  V30 41 H 4.687515 -2.548849 -0.021662 0
M  V30 42 H 4.765194 -0.158050 0.438298 0
M  V30 43 H 2.142740 0.898853 -0.700517 0
M  V30 44 H 0.791750 3.738008 0.292304 0
M  V30 45 H -1.253037 2.837820 1.450972 0
M  V30 46 H -3.778364 1.670058 0.216933 0
M  V30 47 H -5.072070 0.042494 1.641726 0
M  V30 48 H -4.591268 -2.870222 0.828059 0
M  V30 49 H -4.566874 -5.038357 2.091899 0
M  V30 50 H -4.137307 -5.035596 4.453617 0
M  V30 51 H -3.729033 -0.729806 4.454091 0
M  V30 52 H -2.143391 0.456568 -1.973548 0
M  V30 53 H -0.161893 1.332278 -3.088199 0
M  V30 54 H 5.834330 2.474563 -3.415105 0
M  V30 END ATOM
M  V30 BEGIN BOND
M  V30 1 1 1 2
M  V30 2 1 2 3
M  V30 3 1 2 4
M  V30 4 1 4 5
M  V30 5 1 5 6
M  V30 6 2 6 7
M  V30 7 1 7 8
M  V30 8 1 8 9
M  V30 9 1 9 10
M  V30 10 2 10 11
M  V30 11 1 11 12
M  V30 12 2 12 13
M  V30 13 1 13 14
M  V30 14 1 14 15
M  V30 15 2 15 16
M  V30 16 1 15 17
M  V30 17 1 17 18
M  V30 18 2 18 19
M  V30 19 1 19 20
M  V30 20 2 20 21
M  V30 21 1 21 22
M  V30 22 1 22 23
M  V30 23 1 23 24
M  V30 24 1 23 25
M  V30 25 1 23 26
M  V30 26 2 22 27
M  V30 27 1 13 28
M  V30 28 2 28 29
M  V30 29 2 8 30
M  V30 30 1 30 31
M  V30 31 2 31 32
M  V30 32 1 32 6
M  V30 33 1 29 10
M  V30 34 1 27 18
M  V30 35 1 1 33
M  V30 36 1 1 34
M  V30 37 1 1 35
M  V30 38 1 2 36
M  V30 39 1 3 37
M  V30 40 1 3 38
M  V30 41 1 3 39
M  V30 42 1 4 40
M  V30 43 1 4 41
M  V30 44 1 5 42
M  V30 45 1 7 43
M  V30 46 1 11 44
M  V30 47 1 12 45
M  V30 48 1 14 46
M  V30 49 1 17 47
M  V30 50 1 19 48
M  V30 51 1 20 49
M  V30 52 1 21 50
M  V30 53 1 27 51
M  V30 54 1 28 52
M  V30 55 1 29 53
M  V30 56 1 31 54
M  V30 END BOND
M  V30 END CTAB
M  END
>  <Dataset>  (826) 
ChEMBL_Kinases

>  <Ligand_Instance>  (826) 
nan

>  <PDB_ID>  (826) 
nan

>  <Standardized_SMILES>  (826) 
CC(C)CNc1cc(Oc2ccc(NC(=O)Nc3cccc(C(F)(F)F)c3)cc2)ncn1

>  <Name>  (826) 
nan

>  <Pocket>  (826) 
nan

>  <ATP_Site>  (826) 
nan

>  <Peripheral>  (826) 
nan

>  <Num_H_Atoms_ProtBoundConf>  (826) 
nan

>  <Num_Resolved_Atoms>  (826) 
nan

>  <Num_Not_Resolved_Atoms>  (826) 
nan

$$$$
CHEMBL4865837
     RDKit          3D

  0  0  0  0  0  0  0  0  0  0999 V3000
M  V30 BEGIN CTAB
M  V30 COUNTS 42 45 0 0 0
M  V30 BEGIN ATOM
M  V30 1 C 0.337406 -7.528332 0.161644 0
M  V30 2 O 0.272758 -6.322821 -0.578091 0
M  V30 3 C 0.819818 -5.132597 -0.110170 0
M  V30 4 C 1.461031 -5.051348 1.106321 0
M  V30 5 C 1.982881 -3.843377 1.515222 0
M  V30 6 C 1.825202 -2.773017 0.661210 0
M  V30 7 C 1.195582 -2.788852 -0.564728 0
M  V30 8 N 1.028560 -1.682036 -1.414499 0
M  V30 9 C 1.038832 -0.297936 -1.193298 0
M  V30 10 C 1.288433 0.608152 -2.210292 0
M  V30 11 N 1.289639 1.937017 -2.028650 0
M  V30 12 C 1.047690 2.514252 -0.838041 0
M  V30 13 O 1.052827 3.761540 -0.684940 0
M  V30 14 C 0.788534 1.680071 0.231535 0
M  V30 15 C 0.520385 2.267326 1.543519 0
M  V30 16 C 1.516727 2.536380 2.470518 0
M  V30 17 C 1.216682 3.090925 3.695796 0
M  V30 18 C -0.103719 3.373298 3.979704 0
M  V30 19 C -1.136973 3.121913 3.083780 0
M  V30 20 N -2.479598 3.299248 3.112601 0
M  V30 21 C -2.983202 2.864896 1.937820 0
M  V30 22 C -1.969297 2.394753 1.120186 0
M  V30 23 C -0.801500 2.558008 1.846661 0
M  V30 24 C 0.792945 0.316277 0.018324 0
M  V30 25 C 0.698266 -4.022179 -0.913233 0
M  V30 26 H -0.470886 -7.558635 0.933100 0
M  V30 27 H 0.267578 -8.383599 -0.539856 0
M  V30 28 H 1.303674 -7.653345 0.692376 0
M  V30 29 H 1.557036 -5.918984 1.736246 0
M  V30 30 H 2.480584 -3.776772 2.457611 0
M  V30 31 H 2.264564 -1.858141 1.031183 0
M  V30 32 H 0.859021 -1.935730 -2.438090 0
M  V30 33 H 1.497965 0.248251 -3.221847 0
M  V30 34 H 1.487376 2.567542 -2.846434 0
M  V30 35 H 2.525375 2.282911 2.164249 0
M  V30 36 H 2.019631 3.287258 4.394346 0
M  V30 37 H -0.338392 3.812302 4.950526 0
M  V30 38 H -2.951997 3.710319 3.948084 0
M  V30 39 H -4.027338 2.886853 1.685764 0
M  V30 40 H -2.064518 1.984858 0.122216 0
M  V30 41 H 0.573102 -0.257356 0.893370 0
M  V30 42 H 0.182205 -4.111837 -1.880029 0
M  V30 END ATOM
M  V30 BEGIN BOND
M  V30 1 1 1 2
M  V30 2 1 2 3
M  V30 3 2 3 4
M  V30 4 1 4 5
M  V30 5 2 5 6
M  V30 6 1 6 7
M  V30 7 1 7 8
M  V30 8 1 8 9
M  V30 9 2 9 10
M  V30 10 1 10 11
M  V30 11 1 11 12
M  V30 12 2 12 13
M  V30 13 1 12 14
M  V30 14 1 14 15
M  V30 15 2 15 16
M  V30 16 1 16 17
M  V30 17 2 17 18
M  V30 18 1 18 19
M  V30 19 1 19 20
M  V30 20 1 20 21
M  V30 21 2 21 22
M  V30 22 1 22 23
M  V30 23 2 14 24
M  V30 24 2 7 25
M  V30 25 1 25 3
M  V30 26 1 24 9
M  V30 27 1 23 15
M  V30 28 2 23 19
M  V30 29 1 1 26
M  V30 30 1 1 27
M  V30 31 1 1 28
M  V30 32 1 4 29
M  V30 33 1 5 30
M  V30 34 1 6 31
M  V30 35 1 8 32
M  V30 36 1 10 33
M  V30 37 1 11 34
M  V30 38 1 16 35
M  V30 39 1 17 36
M  V30 40 1 18 37
M  V30 41 1 20 38
M  V30 42 1 21 39
M  V30 43 1 22 40
M  V30 44 1 24 41
M  V30 45 1 25 42
M  V30 END BOND
M  V30 END CTAB
M  END
>  <Dataset>  (827) 
ChEMBL_Kinases

>  <Ligand_Instance>  (827) 
nan

>  <PDB_ID>  (827) 
nan

>  <Standardized_SMILES>  (827) 
COc1cccc(Nc2c[nH]c(=O)c(-c3cccc4[nH]ccc34)c2)c1

>  <Name>  (827) 
nan

>  <Pocket>  (827) 
nan

>  <ATP_Site>  (827) 
nan

>  <Peripheral>  (827) 
nan

>  <Num_H_Atoms_ProtBoundConf>  (827) 
nan

>  <Num_Resolved_Atoms>  (827) 
nan

>  <Num_Not_Resolved_Atoms>  (827) 
nan

$$$$
CHEMBL4865933
     RDKit          3D

  0  0  0  0  0  0  0  0  0  0999 V3000
M  V30 BEGIN CTAB
M  V30 COUNTS 63 67 0 0 0
M  V30 BEGIN ATOM
M  V30 1 C 2.860745 -3.733767 3.277742 0
M  V30 2 C 3.526364 -2.439000 2.840131 0
M  V30 3 C 4.032071 -2.634948 1.449333 0
M  V30 4 N 2.676400 -1.282819 3.007286 0
M  V30 5 C 2.648231 -0.425677 4.068251 0
M  V30 6 O 3.371784 -0.503842 5.094156 0
M  V30 7 C 1.706455 0.530357 3.833994 0
M  V30 8 C 1.239906 1.627232 4.521383 0
M  V30 9 N 0.273704 2.396537 4.008547 0
M  V30 10 C -0.271103 2.127425 2.813500 0
M  V30 11 N -1.293266 2.985769 2.327778 0
M  V30 12 C -2.032950 2.936086 1.117689 0
M  V30 13 C -3.003698 3.884428 0.813412 0
M  V30 14 C -3.723334 3.849532 -0.346351 0
M  V30 15 C -3.536122 2.881324 -1.281619 0
M  V30 16 C -2.586455 1.909942 -1.038988 0
M  V30 17 C -1.884270 1.979424 0.137392 0
M  V30 18 C -2.390946 0.866014 -2.056320 0
M  V30 19 C -3.610633 0.553224 -2.846031 0
M  V30 20 N -4.719067 1.437980 -2.681107 0
M  V30 21 C -4.314102 2.838640 -2.542796 0
M  V30 22 N 0.174294 1.063093 2.135211 0
M  V30 23 C 1.138131 0.266669 2.609243 0
M  V30 24 N 1.762805 -0.850400 2.142097 0
M  V30 25 C 1.403491 -1.396564 0.878547 0
M  V30 26 N 0.779157 -2.580613 0.699690 0
M  V30 27 C 0.487517 -2.996135 -0.564707 0
M  V30 28 C -0.193769 -4.301931 -0.637214 0
M  V30 29 C -1.684297 -4.152193 -0.592923 0
M  V30 30 C 0.187131 -4.962676 -1.948165 0
M  V30 31 C 0.282231 -5.174092 0.437940 0
M  V30 32 N 0.640160 -5.855449 1.278851 0
M  V30 33 C 0.805186 -2.250989 -1.697609 0
M  V30 34 C 1.443099 -1.040354 -1.521363 0
M  V30 35 C 1.725416 -0.643618 -0.250599 0
M  V30 36 F 2.359905 0.570279 -0.157832 0
M  V30 37 H 3.167152 -4.598347 2.674203 0
M  V30 38 H 1.769788 -3.589711 3.128507 0
M  V30 39 H 3.060870 -3.930806 4.350180 0
M  V30 40 H 4.406732 -2.278209 3.526349 0
M  V30 41 H 5.064455 -3.084896 1.527831 0
M  V30 42 H 3.444485 -3.424114 0.912385 0
M  V30 43 H 4.173331 -1.714445 0.877906 0
M  V30 44 H 1.669310 1.857171 5.485903 0
M  V30 45 H -1.568133 3.804891 2.950205 0
M  V30 46 H -3.204327 4.696509 1.529955 0
M  V30 47 H -4.464000 4.628542 -0.508352 0
M  V30 48 H -1.162407 1.189192 0.256444 0
M  V30 49 H -2.011245 -0.056888 -1.550783 0
M  V30 50 H -1.599003 1.204252 -2.758476 0
M  V30 51 H -3.965627 -0.475505 -2.592107 0
M  V30 52 H -3.374407 0.480920 -3.947551 0
M  V30 53 H -5.209602 1.199146 -1.795724 0
M  V30 54 H -3.593487 3.021349 -3.367901 0
M  V30 55 H -5.197410 3.472665 -2.542651 0
M  V30 56 H -1.895560 -3.105487 -0.236742 0
M  V30 57 H -2.185165 -4.285462 -1.580748 0
M  V30 58 H -2.134190 -4.806982 0.195095 0
M  V30 59 H -0.406849 -4.522912 -2.754528 0
M  V30 60 H -0.155008 -6.027897 -1.840697 0
M  V30 61 H 1.251321 -4.865321 -2.164550 0
M  V30 62 H 0.524258 -2.680886 -2.654675 0
M  V30 63 H 1.659080 -0.518226 -2.427731 0
M  V30 END ATOM
M  V30 BEGIN BOND
M  V30 1 1 1 2
M  V30 2 1 2 3
M  V30 3 1 2 4
M  V30 4 1 4 5
M  V30 5 2 5 6
M  V30 6 1 5 7
M  V30 7 2 7 8
M  V30 8 1 8 9
M  V30 9 2 9 10
M  V30 10 1 10 11
M  V30 11 1 11 12
M  V30 12 2 12 13
M  V30 13 1 13 14
M  V30 14 2 14 15
M  V30 15 1 15 16
M  V30 16 2 16 17
M  V30 17 1 16 18
M  V30 18 1 18 19
M  V30 19 1 19 20
M  V30 20 1 20 21
M  V30 21 1 10 22
M  V30 22 2 22 23
M  V30 23 1 23 24
M  V30 24 1 24 25
M  V30 25 2 25 26
M  V30 26 1 26 27
M  V30 27 1 27 28
M  V30 28 1 28 29
M  V30 29 1 28 30
M  V30 30 1 28 31
M  V30 31 3 31 32
M  V30 32 2 27 33
M  V30 33 1 33 34
M  V30 34 2 34 35
M  V30 35 1 35 36
M  V30 36 1 24 4
M  V30 37 1 35 25
M  V30 38 1 23 7
M  V30 39 1 17 12
M  V30 40 1 21 15
M  V30 41 1 1 37
M  V30 42 1 1 38
M  V30 43 1 1 39
M  V30 44 1 2 40
M  V30 45 1 3 41
M  V30 46 1 3 42
M  V30 47 1 3 43
M  V30 48 1 8 44
M  V30 49 1 11 45
M  V30 50 1 13 46
M  V30 51 1 14 47
M  V30 52 1 17 48
M  V30 53 1 18 49
M  V30 54 1 18 50
M  V30 55 1 19 51
M  V30 56 1 19 52
M  V30 57 1 20 53
M  V30 58 1 21 54
M  V30 59 1 21 55
M  V30 60 1 29 56
M  V30 61 1 29 57
M  V30 62 1 29 58
M  V30 63 1 30 59
M  V30 64 1 30 60
M  V30 65 1 30 61
M  V30 66 1 33 62
M  V30 67 1 34 63
M  V30 END BOND
M  V30 END CTAB
M  END
>  <Dataset>  (828) 
ChEMBL_Kinases

>  <Ligand_Instance>  (828) 
nan

>  <PDB_ID>  (828) 
nan

>  <Standardized_SMILES>  (828) 
CC(C)n1c(=O)c2cnc(Nc3ccc4c(c3)CCNC4)nc2n1-c1nc(C(C)(C)C#N)ccc1F

>  <Name>  (828) 
nan

>  <Pocket>  (828) 
nan

>  <ATP_Site>  (828) 
nan

>  <Peripheral>  (828) 
nan

>  <Num_H_Atoms_ProtBoundConf>  (828) 
nan

>  <Num_Resolved_Atoms>  (828) 
nan

>  <Num_Not_Resolved_Atoms>  (828) 
nan

$$$$
CHEMBL4865938
     RDKit          3D

  0  0  0  0  0  0  0  0  0  0999 V3000
M  V30 BEGIN CTAB
M  V30 COUNTS 46 49 0 0 0
M  V30 BEGIN ATOM
M  V30 1 C 3.502366 -0.998471 3.274017 0
M  V30 2 C 2.572949 -0.443787 2.196185 0
M  V30 3 C 1.984302 0.824042 2.760921 0
M  V30 4 N 3.301847 -0.257962 0.973134 0
M  V30 5 C 4.497443 -0.811987 0.698324 0
M  V30 6 N 4.857247 -0.409210 -0.532487 0
M  V30 7 N 3.897275 0.372837 -0.991632 0
M  V30 8 C 2.928771 0.485074 -0.090531 0
M  V30 9 C 1.703481 1.263953 -0.234424 0
M  V30 10 C 1.744494 2.606182 -0.611914 0
M  V30 11 C 0.554301 3.308886 -0.736622 0
M  V30 12 C -0.682803 2.753314 -0.506941 0
M  V30 13 N -1.963054 3.134831 -0.536475 0
M  V30 14 N -2.778578 2.121606 -0.204287 0
M  V30 15 C -2.034929 1.014178 0.060367 0
M  V30 16 C -2.572831 -0.285948 0.456015 0
M  V30 17 C -3.575240 -0.436979 1.420631 0
M  V30 18 C -4.056580 -1.683962 1.766302 0
M  V30 19 C -3.543291 -2.809589 1.151991 0
M  V30 20 C -2.557198 -2.730670 0.196107 0
M  V30 21 S -1.897123 -4.143839 -0.590443 0
M  V30 22 C -0.509229 -4.833557 0.234039 0
M  V30 23 O -1.433842 -3.702222 -1.961271 0
M  V30 24 O -3.006186 -5.143218 -0.736475 0
M  V30 25 C -2.104933 -1.455795 -0.118354 0
M  V30 26 C -0.727997 1.422154 -0.132292 0
M  V30 27 C 0.453778 0.720279 -0.007309 0
M  V30 28 H 3.957820 -1.944236 2.977461 0
M  V30 29 H 4.229520 -0.204858 3.519967 0
M  V30 30 H 2.891204 -1.148738 4.199482 0
M  V30 31 H 1.792727 -1.228598 2.059364 0
M  V30 32 H 2.325646 1.049638 3.800085 0
M  V30 33 H 0.879948 0.668464 2.868371 0
M  V30 34 H 2.210203 1.713479 2.136913 0
M  V30 35 H 5.129766 -1.473992 1.296898 0
M  V30 36 H 2.711993 3.058215 -0.796442 0
M  V30 37 H 0.599616 4.346205 -1.029181 0
M  V30 38 H -2.255389 4.119460 -0.793992 0
M  V30 39 H -3.962735 0.454987 1.888610 0
M  V30 40 H -4.834028 -1.765570 2.518004 0
M  V30 41 H -3.926566 -3.776463 1.429842 0
M  V30 42 H -0.828046 -5.620511 0.959179 0
M  V30 43 H 0.113987 -4.097368 0.757312 0
M  V30 44 H 0.163414 -5.340459 -0.502909 0
M  V30 45 H -1.324165 -1.424604 -0.878335 0
M  V30 46 H 0.458941 -0.311659 0.280697 0
M  V30 END ATOM
M  V30 BEGIN BOND
M  V30 1 1 1 2
M  V30 2 1 2 3
M  V30 3 1 2 4
M  V30 4 1 4 5
M  V30 5 2 5 6
M  V30 6 1 6 7
M  V30 7 2 7 8
M  V30 8 1 8 9
M  V30 9 2 9 10
M  V30 10 1 10 11
M  V30 11 2 11 12
M  V30 12 1 12 13
M  V30 13 1 13 14
M  V30 14 2 14 15
M  V30 15 1 15 16
M  V30 16 2 16 17
M  V30 17 1 17 18
M  V30 18 2 18 19
M  V30 19 1 19 20
M  V30 20 1 20 21
M  V30 21 1 21 22
M  V30 22 2 21 23
M  V30 23 2 21 24
M  V30 24 2 20 25
M  V30 25 1 15 26
M  V30 26 2 26 27
M  V30 27 1 8 4
M  V30 28 1 27 9
M  V30 29 1 26 12
M  V30 30 1 25 16
M  V30 31 1 1 28
M  V30 32 1 1 29
M  V30 33 1 1 30
M  V30 34 1 2 31
M  V30 35 1 3 32
M  V30 36 1 3 33
M  V30 37 1 3 34
M  V30 38 1 5 35
M  V30 39 1 10 36
M  V30 40 1 11 37
M  V30 41 1 13 38
M  V30 42 1 17 39
M  V30 43 1 18 40
M  V30 44 1 19 41
M  V30 45 1 22 42
M  V30 46 1 22 43
M  V30 47 1 22 44
M  V30 48 1 25 45
M  V30 49 1 27 46
M  V30 END BOND
M  V30 END CTAB
M  END
>  <Dataset>  (829) 
ChEMBL_Kinases

>  <Ligand_Instance>  (829) 
nan

>  <PDB_ID>  (829) 
nan

>  <Standardized_SMILES>  (829) 
CC(C)n1cnnc1-c1ccc2[nH]nc(-c3cccc(S(C)(=O)=O)c3)c2c1

>  <Name>  (829) 
nan

>  <Pocket>  (829) 
nan

>  <ATP_Site>  (829) 
nan

>  <Peripheral>  (829) 
nan

>  <Num_H_Atoms_ProtBoundConf>  (829) 
nan

>  <Num_Resolved_Atoms>  (829) 
nan

>  <Num_Not_Resolved_Atoms>  (829) 
nan

$$$$
CHEMBL4865963
     RDKit          3D

  0  0  0  0  0  0  0  0  0  0999 V3000
M  V30 BEGIN CTAB
M  V30 COUNTS 71 76 0 0 0
M  V30 BEGIN ATOM
M  V30 1 C 5.691427 0.309452 1.002269 0
M  V30 2 C 5.179962 0.501855 -0.204924 0
M  V30 3 C 4.575845 1.109436 -1.389720 0
M  V30 4 N 3.315405 0.478689 -1.753232 0
M  V30 5 C 3.293019 -0.576945 -2.594112 0
M  V30 6 O 4.233822 -1.174682 -3.176118 0
M  V30 7 C 1.948593 -0.896472 -2.699897 0
M  V30 8 C 1.273423 -1.886947 -3.413360 0
M  V30 9 N -0.078277 -1.944418 -3.307833 0
M  V30 10 C -0.791130 -1.103081 -2.558195 0
M  V30 11 N -2.188634 -1.348000 -2.587529 0
M  V30 12 C -2.732746 -2.106777 -1.511754 0
M  V30 13 C -1.899067 -2.447736 -0.461206 0
M  V30 14 C -2.301954 -3.183110 0.649611 0
M  V30 15 C -3.623251 -3.589319 0.685860 0
M  V30 16 N -4.180376 -4.336108 1.775806 0
M  V30 17 C -5.475824 -5.028432 1.813268 0
M  V30 18 C -5.132832 -6.455364 2.231169 0
M  V30 19 N -3.746200 -6.728595 2.284355 0
M  V30 20 C -3.131472 -7.351193 1.172185 0
M  V30 21 C -2.940252 -5.900899 3.092368 0
M  V30 22 C -3.490581 -4.493200 3.055840 0
M  V30 23 C -4.495149 -3.272729 -0.342341 0
M  V30 24 C -4.043496 -2.531931 -1.436862 0
M  V30 25 N -0.139599 -0.143488 -1.866362 0
M  V30 26 C 1.205488 -0.026453 -1.923138 0
M  V30 27 N 2.109061 0.795624 -1.366608 0
M  V30 28 C 1.853426 1.869616 -0.469536 0
M  V30 29 C 1.886326 1.364872 0.836643 0
M  V30 30 C 1.669038 2.198450 1.941395 0
M  V30 31 C 1.420689 3.537062 1.698348 0
M  V30 32 C 1.393182 4.010494 0.404624 0
M  V30 33 C 1.603774 3.205087 -0.676999 0
M  V30 34 C 1.112350 5.480697 0.342876 0 CFG=1
M  V30 35 C 1.993994 6.119707 -0.705357 0
M  V30 36 O -0.235332 5.625145 0.115525 0
M  V30 37 C 1.465299 5.897391 1.732439 0
M  V30 38 C 1.150166 4.696469 2.571762 0
M  V30 39 H 6.141633 -0.230800 1.825802 0
M  V30 40 H 5.663804 1.267563 1.551606 0
M  V30 41 H 5.343127 -0.562737 -0.447767 0
M  V30 42 H 4.433537 2.201544 -1.223872 0
M  V30 43 H 5.279476 1.030559 -2.237816 0
M  V30 44 H 1.800589 -2.598348 -4.039002 0
M  V30 45 H -2.778753 -0.982981 -3.365740 0
M  V30 46 H -0.853906 -2.158255 -0.432593 0
M  V30 47 H -1.636807 -3.434190 1.450976 0
M  V30 48 H -6.017586 -4.989394 0.867713 0
M  V30 49 H -6.090328 -4.563886 2.607176 0
M  V30 50 H -5.632984 -6.718225 3.168786 0
M  V30 51 H -5.565883 -7.119006 1.438423 0
M  V30 52 H -3.890144 -7.470694 0.364411 0
M  V30 53 H -2.333202 -6.693158 0.743269 0
M  V30 54 H -2.668129 -8.328853 1.369868 0
M  V30 55 H -1.913603 -5.860313 2.677585 0
M  V30 56 H -2.830672 -6.251607 4.159083 0
M  V30 57 H -2.639123 -3.782812 3.169550 0
M  V30 58 H -4.205223 -4.311058 3.893874 0
M  V30 59 H -5.527581 -3.519749 -0.443636 0
M  V30 60 H -4.636253 -2.235980 -2.283351 0
M  V30 61 H 2.068103 0.345502 1.168807 0
M  V30 62 H 1.680702 1.874454 2.968308 0
M  V30 63 H 1.610636 3.439665 -1.726952 0
M  V30 64 H 2.978769 5.614683 -0.727526 0
M  V30 65 H 1.534217 5.882978 -1.703385 0
M  V30 66 H 2.040670 7.201858 -0.597859 0
M  V30 67 H -0.715416 4.753327 0.026580 0
M  V30 68 H 0.791241 6.768752 1.982472 0
M  V30 69 H 2.540893 6.174807 1.771091 0
M  V30 70 H 0.087523 4.730877 2.875023 0
M  V30 71 H 1.829832 4.721881 3.457433 0
M  V30 END ATOM
M  V30 BEGIN BOND
M  V30 1 2 1 2
M  V30 2 1 2 3
M  V30 3 1 3 4
M  V30 4 1 4 5
M  V30 5 2 5 6
M  V30 6 1 5 7
M  V30 7 2 7 8
M  V30 8 1 8 9
M  V30 9 2 9 10
M  V30 10 1 10 11
M  V30 11 1 11 12
M  V30 12 2 12 13
M  V30 13 1 13 14
M  V30 14 2 14 15
M  V30 15 1 15 16
M  V30 16 1 16 17
M  V30 17 1 17 18
M  V30 18 1 18 19
M  V30 19 1 19 20
M  V30 20 1 19 21
M  V30 21 1 21 22
M  V30 22 1 15 23
M  V30 23 2 23 24
M  V30 24 1 10 25
M  V30 25 2 25 26
M  V30 26 1 26 27
M  V30 27 1 27 28
M  V30 28 2 28 29
M  V30 29 1 29 30
M  V30 30 2 30 31
M  V30 31 1 31 32
M  V30 32 2 32 33
M  V30 33 1 32 34
M  V30 34 1 34 35
M  V30 35 1 34 36 CFG=3
M  V30 36 1 34 37
M  V30 37 1 37 38
M  V30 38 1 27 4
M  V30 39 1 33 28
M  V30 40 1 26 7
M  V30 41 1 38 31
M  V30 42 1 24 12
M  V30 43 1 22 16
M  V30 44 1 1 39
M  V30 45 1 1 40
M  V30 46 1 2 41
M  V30 47 1 3 42
M  V30 48 1 3 43
M  V30 49 1 8 44
M  V30 50 1 11 45
M  V30 51 1 13 46
M  V30 52 1 14 47
M  V30 53 1 17 48
M  V30 54 1 17 49
M  V30 55 1 18 50
M  V30 56 1 18 51
M  V30 57 1 20 52
M  V30 58 1 20 53
M  V30 59 1 20 54
M  V30 60 1 21 55
M  V30 61 1 21 56
M  V30 62 1 22 57
M  V30 63 1 22 58
M  V30 64 1 23 59
M  V30 65 1 24 60
M  V30 66 1 29 61
M  V30 67 1 30 62
M  V30 68 1 33 63
M  V30 69 1 35 64
M  V30 70 1 35 65
M  V30 71 1 35 66
M  V30 72 1 36 67
M  V30 73 1 37 68
M  V30 74 1 37 69
M  V30 75 1 38 70
M  V30 76 1 38 71
M  V30 END BOND
M  V30 END CTAB
M  END
>  <Dataset>  (830) 
ChEMBL_Kinases

>  <Ligand_Instance>  (830) 
nan

>  <PDB_ID>  (830) 
nan

>  <Standardized_SMILES>  (830) 
C=CCn1c(=O)c2cnc(Nc3ccc(N4CCN(C)CC4)cc3)nc2n1-c1ccc2c(c1)[C@@](C)(O)CC2

>  <Name>  (830) 
nan

>  <Pocket>  (830) 
nan

>  <ATP_Site>  (830) 
nan

>  <Peripheral>  (830) 
nan

>  <Num_H_Atoms_ProtBoundConf>  (830) 
nan

>  <Num_Resolved_Atoms>  (830) 
nan

>  <Num_Not_Resolved_Atoms>  (830) 
nan

$$$$
CHEMBL4866051
     RDKit          3D

  0  0  0  0  0  0  0  0  0  0999 V3000
M  V30 BEGIN CTAB
M  V30 COUNTS 41 42 0 0 0
M  V30 BEGIN ATOM
M  V30 1 C 2.238106 -5.541657 1.147352 0
M  V30 2 N 2.319510 -4.156001 1.592430 0
M  V30 3 C 1.855581 -3.276090 0.561653 0
M  V30 4 C 1.919330 -1.832676 0.952818 0
M  V30 5 C 1.099093 -1.478816 2.148491 0
M  V30 6 N -0.298650 -1.744532 1.933617 0
M  V30 7 C -1.035593 -1.015363 0.926168 0
M  V30 8 N -0.441555 -0.081516 0.185123 0
M  V30 9 C -1.000338 0.673036 -0.766770 0
M  V30 10 N -0.077742 1.569103 -1.372969 0
M  V30 11 C 0.522066 2.587064 -0.574384 0
M  V30 12 C 0.240688 2.691323 0.775081 0
M  V30 13 C 0.831572 3.669785 1.555520 0
M  V30 14 C 1.716788 4.562308 0.995620 0
M  V30 15 C 2.334550 5.579959 1.814129 0
M  V30 16 N 2.833698 6.384431 2.483262 0
M  V30 17 N 1.984532 4.454309 -0.319441 0
M  V30 18 C 1.410463 3.494961 -1.104807 0
M  V30 19 N -2.325612 0.435163 -0.977364 0
M  V30 20 C -3.001202 -0.478930 -0.284724 0
M  V30 21 C -2.384100 -1.231520 0.685379 0
M  V30 22 C -3.119073 -2.239027 1.459855 0
M  V30 23 F -4.451452 -2.270433 1.033748 0
M  V30 24 F -2.638150 -3.527706 1.276371 0
M  V30 25 F -3.168219 -1.932473 2.795142 0
M  V30 26 H 1.169419 -5.785280 1.099530 0
M  V30 27 H 2.747729 -5.611220 0.180167 0
M  V30 28 H 2.711665 -6.218027 1.890823 0
M  V30 29 H 1.869704 -4.004974 2.500745 0
M  V30 30 H 2.513816 -3.402490 -0.327356 0
M  V30 31 H 0.841231 -3.601087 0.248668 0
M  V30 32 H 1.599270 -1.230878 0.096683 0
M  V30 33 H 3.002847 -1.610347 1.159628 0
M  V30 34 H 1.429732 -2.096183 3.010225 0
M  V30 35 H 1.282016 -0.426389 2.457318 0
M  V30 36 H -0.857821 -2.462146 2.474702 0
M  V30 37 H 0.161623 1.494437 -2.373220 0
M  V30 38 H -0.445644 2.021139 1.272773 0
M  V30 39 H 0.585933 3.722114 2.626422 0
M  V30 40 H 1.619271 3.405929 -2.149349 0
M  V30 41 H -4.042248 -0.585349 -0.533977 0
M  V30 END ATOM
M  V30 BEGIN BOND
M  V30 1 1 1 2
M  V30 2 1 2 3
M  V30 3 1 3 4
M  V30 4 1 4 5
M  V30 5 1 5 6
M  V30 6 1 6 7
M  V30 7 2 7 8
M  V30 8 1 8 9
M  V30 9 1 9 10
M  V30 10 1 10 11
M  V30 11 2 11 12
M  V30 12 1 12 13
M  V30 13 2 13 14
M  V30 14 1 14 15
M  V30 15 3 15 16
M  V30 16 1 14 17
M  V30 17 2 17 18
M  V30 18 2 9 19
M  V30 19 1 19 20
M  V30 20 2 20 21
M  V30 21 1 21 22
M  V30 22 1 22 23
M  V30 23 1 22 24
M  V30 24 1 22 25
M  V30 25 1 21 7
M  V30 26 1 18 11
M  V30 27 1 1 26
M  V30 28 1 1 27
M  V30 29 1 1 28
M  V30 30 1 2 29
M  V30 31 1 3 30
M  V30 32 1 3 31
M  V30 33 1 4 32
M  V30 34 1 4 33
M  V30 35 1 5 34
M  V30 36 1 5 35
M  V30 37 1 6 36
M  V30 38 1 10 37
M  V30 39 1 12 38
M  V30 40 1 13 39
M  V30 41 1 18 40
M  V30 42 1 20 41
M  V30 END BOND
M  V30 END CTAB
M  END
>  <Dataset>  (831) 
ChEMBL_Kinases

>  <Ligand_Instance>  (831) 
nan

>  <PDB_ID>  (831) 
nan

>  <Standardized_SMILES>  (831) 
CNCCCNc1nc(Nc2ccc(C#N)nc2)ncc1C(F)(F)F

>  <Name>  (831) 
nan

>  <Pocket>  (831) 
nan

>  <ATP_Site>  (831) 
nan

>  <Peripheral>  (831) 
nan

>  <Num_H_Atoms_ProtBoundConf>  (831) 
nan

>  <Num_Resolved_Atoms>  (831) 
nan

>  <Num_Not_Resolved_Atoms>  (831) 
nan

$$$$
CHEMBL4866091
     RDKit          3D

  0  0  0  0  0  0  0  0  0  0999 V3000
M  V30 BEGIN CTAB
M  V30 COUNTS 64 68 0 0 0
M  V30 BEGIN ATOM
M  V30 1 C 9.038191 0.740319 2.686467 0
M  V30 2 C 8.958410 0.859679 4.197897 0
M  V30 3 O 7.685435 1.079645 4.647787 0
M  V30 4 C 6.767768 0.116792 4.341273 0
M  V30 5 C 6.131710 -0.574285 5.517197 0
M  V30 6 N 5.692660 0.690254 3.550870 0
M  V30 7 C 4.798421 -0.020750 2.804860 0
M  V30 8 C 3.939697 0.890849 2.207506 0
M  V30 9 C 2.842187 0.467955 1.325747 0
M  V30 10 C 2.974555 -0.666915 0.543093 0
M  V30 11 C 1.929449 -1.042557 -0.276057 0
M  V30 12 C 0.795937 -0.254548 -0.268384 0
M  V30 13 C -0.368392 -0.418928 -0.990237 0
M  V30 14 C -1.209603 0.640894 -0.628255 0
M  V30 15 C -2.578778 0.987662 -1.072095 0
M  V30 16 O -3.271683 1.957556 -0.701215 0
M  V30 17 N -3.117307 0.081783 -2.027943 0
M  V30 18 C -4.328385 -0.061168 -2.757416 0
M  V30 19 C -4.622807 0.457459 -3.990273 0
M  V30 20 C -5.872483 0.183820 -4.504836 0
M  V30 21 C -6.757624 -0.579183 -3.784103 0
M  V30 22 C -6.448101 -1.104587 -2.525722 0
M  V30 23 C -7.444418 -1.904178 -1.825832 0
M  V30 24 N -8.751567 -1.532716 -1.838100 0
M  V30 25 N -9.457335 -2.409199 -1.139290 0
M  V30 26 C -8.579555 -3.319834 -0.698004 0
M  V30 27 N -7.312502 -3.033845 -1.109279 0
M  V30 28 C -6.074706 -3.734531 -0.869241 0
M  V30 29 C -5.434116 -4.264326 -2.133303 0
M  V30 30 C -5.104935 -3.005052 0.003047 0
M  V30 31 N -5.216772 -0.805241 -2.075395 0
M  V30 32 N -0.585467 1.416874 0.274326 0
M  V30 33 C 0.640557 0.889299 0.509140 0
M  V30 34 C 1.690475 1.259797 1.326913 0
M  V30 35 C 4.347609 2.144259 2.617095 0
M  V30 36 N 5.413232 1.993352 3.431546 0
M  V30 37 H 8.371368 1.436516 2.174983 0
M  V30 38 H 8.810768 -0.332227 2.456131 0
M  V30 39 H 10.068257 0.919749 2.315676 0
M  V30 40 H 9.473909 0.014961 4.698059 0
M  V30 41 H 9.552484 1.764547 4.459550 0
M  V30 42 H 7.280737 -0.686000 3.758157 0
M  V30 43 H 5.302620 -1.191272 5.101628 0
M  V30 44 H 6.801459 -1.302560 6.023007 0
M  V30 45 H 5.659646 0.131415 6.229584 0
M  V30 46 H 4.772847 -1.092195 2.705026 0
M  V30 47 H 3.886906 -1.244246 0.579277 0
M  V30 48 H 1.981903 -1.930239 -0.914547 0
M  V30 49 H -0.695075 -1.162915 -1.716058 0
M  V30 50 H -2.579260 -0.763798 -2.386014 0
M  V30 51 H -3.836835 1.042340 -4.453383 0
M  V30 52 H -6.093391 0.598960 -5.479238 0
M  V30 53 H -7.730853 -0.750915 -4.263761 0
M  V30 54 H -8.815039 -4.194597 -0.083394 0
M  V30 55 H -6.374859 -4.660799 -0.293453 0
M  V30 56 H -6.169176 -4.515598 -2.907647 0
M  V30 57 H -4.816070 -5.156128 -1.834953 0
M  V30 58 H -4.723715 -3.521737 -2.512406 0
M  V30 59 H -5.502878 -2.058019 0.408791 0
M  V30 60 H -4.153705 -2.902416 -0.558573 0
M  V30 61 H -4.810415 -3.593470 0.920980 0
M  V30 62 H -0.949356 2.293630 0.744439 0
M  V30 63 H 1.597476 2.144669 1.942398 0
M  V30 64 H 3.790957 3.000560 2.249672 0
M  V30 END ATOM
M  V30 BEGIN BOND
M  V30 1 1 1 2
M  V30 2 1 2 3
M  V30 3 1 3 4
M  V30 4 1 4 5
M  V30 5 1 4 6
M  V30 6 1 6 7
M  V30 7 2 7 8
M  V30 8 1 8 9
M  V30 9 2 9 10
M  V30 10 1 10 11
M  V30 11 2 11 12
M  V30 12 1 12 13
M  V30 13 2 13 14
M  V30 14 1 14 15
M  V30 15 2 15 16
M  V30 16 1 15 17
M  V30 17 1 17 18
M  V30 18 2 18 19
M  V30 19 1 19 20
M  V30 20 2 20 21
M  V30 21 1 21 22
M  V30 22 1 22 23
M  V30 23 2 23 24
M  V30 24 1 24 25
M  V30 25 2 25 26
M  V30 26 1 26 27
M  V30 27 1 27 28
M  V30 28 1 28 29
M  V30 29 1 28 30
M  V30 30 2 22 31
M  V30 31 1 14 32
M  V30 32 1 32 33
M  V30 33 2 33 34
M  V30 34 1 8 35
M  V30 35 2 35 36
M  V30 36 1 36 6
M  V30 37 1 34 9
M  V30 38 1 33 12
M  V30 39 1 31 18
M  V30 40 1 27 23
M  V30 41 1 1 37
M  V30 42 1 1 38
M  V30 43 1 1 39
M  V30 44 1 2 40
M  V30 45 1 2 41
M  V30 46 1 4 42
M  V30 47 1 5 43
M  V30 48 1 5 44
M  V30 49 1 5 45
M  V30 50 1 7 46
M  V30 51 1 10 47
M  V30 52 1 11 48
M  V30 53 1 13 49
M  V30 54 1 17 50
M  V30 55 1 19 51
M  V30 56 1 20 52
M  V30 57 1 21 53
M  V30 58 1 26 54
M  V30 59 1 28 55
M  V30 60 1 29 56
M  V30 61 1 29 57
M  V30 62 1 29 58
M  V30 63 1 30 59
M  V30 64 1 30 60
M  V30 65 1 30 61
M  V30 66 1 32 62
M  V30 67 1 34 63
M  V30 68 1 35 64
M  V30 END BOND
M  V30 END CTAB
M  END
>  <Dataset>  (832) 
ChEMBL_Kinases

>  <Ligand_Instance>  (832) 
nan

>  <PDB_ID>  (832) 
nan

>  <Standardized_SMILES>  (832) 
CCOC(C)n1cc(-c2ccc3cc(C(=O)Nc4cccc(-c5nncn5C(C)C)n4)[nH]c3c2)cn1

>  <Name>  (832) 
nan

>  <Pocket>  (832) 
nan

>  <ATP_Site>  (832) 
nan

>  <Peripheral>  (832) 
nan

>  <Num_H_Atoms_ProtBoundConf>  (832) 
nan

>  <Num_Resolved_Atoms>  (832) 
nan

>  <Num_Not_Resolved_Atoms>  (832) 
nan

$$$$
CHEMBL4866245
     RDKit          3D

  0  0  0  0  0  0  0  0  0  0999 V3000
M  V30 BEGIN CTAB
M  V30 COUNTS 56 58 0 0 0
M  V30 BEGIN ATOM
M  V30 1 C -3.020125 1.221245 2.749024 0
M  V30 2 C -1.688594 0.811853 2.247069 0
M  V30 3 C -0.714713 1.780405 2.151532 0
M  V30 4 C 0.554190 1.504269 1.696668 0
M  V30 5 N 1.497654 2.555909 1.628600 0
M  V30 6 C 2.841514 2.526416 1.203452 0
M  V30 7 O 3.339822 1.453304 0.817551 0
M  V30 8 C 3.740309 3.691592 1.173762 0
M  V30 9 C 5.083278 3.313047 0.673961 0
M  V30 10 C 5.263399 3.411057 -0.693117 0
M  V30 11 C 6.439482 3.102455 -1.331661 0
M  V30 12 C 7.491196 2.669966 -0.535173 0
M  V30 13 C 7.353774 2.556910 0.842253 0
M  V30 14 C 6.138347 2.881551 1.452290 0
M  V30 15 C 0.751443 0.189831 1.352828 0
M  V30 16 C -0.199348 -0.799058 1.436812 0
M  V30 17 C -1.458813 -0.478631 1.898276 0
M  V30 18 C -2.458750 -1.536424 1.983948 0
M  V30 19 C -3.306077 -1.768274 3.047300 0
M  V30 20 N -4.202047 -2.772056 3.038964 0
M  V30 21 C -4.311873 -3.608648 1.972579 0
M  V30 22 N -5.293493 -4.616256 2.101055 0
M  V30 23 C -3.494253 -3.432358 0.875736 0
M  V30 24 C -3.649168 -4.354782 -0.243754 0
M  V30 25 O -4.513445 -5.248554 -0.140475 0
M  V30 26 N -2.867782 -4.275007 -1.424479 0
M  V30 27 C -3.017492 -5.191527 -2.543759 0
M  V30 28 C -1.698920 -5.909887 -2.829110 0
M  V30 29 C -3.332705 -4.371528 -3.780231 0
M  V30 30 C -2.584211 -2.397944 0.906374 0
M  V30 31 H -3.082166 1.292528 3.854359 0
M  V30 32 H -3.851745 0.608095 2.337078 0
M  V30 33 H -3.203946 2.281021 2.402641 0
M  V30 34 H -0.958546 2.812876 2.449319 0
M  V30 35 H 1.213297 3.514427 1.923153 0
M  V30 36 H 3.333498 4.530744 0.541991 0
M  V30 37 H 3.857800 4.058998 2.215939 0
M  V30 38 H 4.466265 3.746593 -1.364397 0
M  V30 39 H 6.572945 3.182518 -2.409549 0
M  V30 40 H 8.451601 2.409831 -0.985666 0
M  V30 41 H 8.144339 2.225760 1.493592 0
M  V30 42 H 5.950457 2.820022 2.522422 0
M  V30 43 H 1.715173 -0.117785 0.986328 0
M  V30 44 H 0.028473 -1.819278 1.146643 0
M  V30 45 H -3.215851 -1.101725 3.893799 0
M  V30 46 H -5.186238 -5.645233 2.336042 0
M  V30 47 H -6.194961 -4.124428 1.909231 0
M  V30 48 H -2.141156 -3.532790 -1.525107 0
M  V30 49 H -3.809228 -5.944706 -2.350848 0
M  V30 50 H -1.166156 -6.137366 -1.865600 0
M  V30 51 H -1.001280 -5.271219 -3.408314 0
M  V30 52 H -1.886454 -6.829829 -3.410667 0
M  V30 53 H -3.824065 -3.402111 -3.519235 0
M  V30 54 H -2.395004 -4.062468 -4.312573 0
M  V30 55 H -3.931110 -4.952147 -4.519472 0
M  V30 56 H -1.945034 -2.257067 0.053460 0
M  V30 END ATOM
M  V30 BEGIN BOND
M  V30 1 1 1 2
M  V30 2 2 2 3
M  V30 3 1 3 4
M  V30 4 1 4 5
M  V30 5 1 5 6
M  V30 6 2 6 7
M  V30 7 1 6 8
M  V30 8 1 8 9
M  V30 9 2 9 10
M  V30 10 1 10 11
M  V30 11 2 11 12
M  V30 12 1 12 13
M  V30 13 2 13 14
M  V30 14 2 4 15
M  V30 15 1 15 16
M  V30 16 2 16 17
M  V30 17 1 17 18
M  V30 18 2 18 19
M  V30 19 1 19 20
M  V30 20 2 20 21
M  V30 21 1 21 22
M  V30 22 1 21 23
M  V30 23 1 23 24
M  V30 24 2 24 25
M  V30 25 1 24 26
M  V30 26 1 26 27
M  V30 27 1 27 28
M  V30 28 1 27 29
M  V30 29 2 23 30
M  V30 30 1 17 2
M  V30 31 1 30 18
M  V30 32 1 14 9
M  V30 33 1 1 31
M  V30 34 1 1 32
M  V30 35 1 1 33
M  V30 36 1 3 34
M  V30 37 1 5 35
M  V30 38 1 8 36
M  V30 39 1 8 37
M  V30 40 1 10 38
M  V30 41 1 11 39
M  V30 42 1 12 40
M  V30 43 1 13 41
M  V30 44 1 14 42
M  V30 45 1 15 43
M  V30 46 1 16 44
M  V30 47 1 19 45
M  V30 48 1 22 46
M  V30 49 1 22 47
M  V30 50 1 26 48
M  V30 51 1 27 49
M  V30 52 1 28 50
M  V30 53 1 28 51
M  V30 54 1 28 52
M  V30 55 1 29 53
M  V30 56 1 29 54
M  V30 57 1 29 55
M  V30 58 1 30 56
M  V30 END BOND
M  V30 END CTAB
M  END
>  <Dataset>  (833) 
ChEMBL_Kinases

>  <Ligand_Instance>  (833) 
nan

>  <PDB_ID>  (833) 
nan

>  <Standardized_SMILES>  (833) 
Cc1cc(NC(=O)Cc2ccccc2)ccc1-c1cnc(N)c(C(=O)NC(C)C)c1

>  <Name>  (833) 
nan

>  <Pocket>  (833) 
nan

>  <ATP_Site>  (833) 
nan

>  <Peripheral>  (833) 
nan

>  <Num_H_Atoms_ProtBoundConf>  (833) 
nan

>  <Num_Resolved_Atoms>  (833) 
nan

>  <Num_Not_Resolved_Atoms>  (833) 
nan

$$$$
CHEMBL402306
     RDKit          3D

  0  0  0  0  0  0  0  0  0  0999 V3000
M  V30 BEGIN CTAB
M  V30 COUNTS 69 73 0 0 0
M  V30 BEGIN ATOM
M  V30 1 C 2.769590 2.210685 6.442204 0
M  V30 2 N 3.478483 1.752362 5.244487 0
M  V30 3 C 3.938359 0.396731 5.554853 0
M  V30 4 C 2.561256 1.657909 4.121303 0
M  V30 5 C 2.070488 3.028896 3.689776 0
M  V30 6 N 1.169255 2.823686 2.564507 0
M  V30 7 C 0.571942 3.981799 2.011354 0
M  V30 8 O 0.912194 5.037352 2.581263 0
M  V30 9 C -0.357236 4.027015 0.890776 0
M  V30 10 C -0.917431 5.250217 0.613966 0
M  V30 11 C -1.801172 5.360631 -0.428050 0
M  V30 12 C -2.082486 4.229219 -1.148988 0
M  V30 13 C -1.557315 2.963242 -0.930868 0
M  V30 14 N -1.924031 1.864713 -1.740207 0
M  V30 15 C -1.304215 0.600494 -1.805842 0
M  V30 16 N -0.210030 0.265807 -1.076374 0
M  V30 17 C 0.356416 -0.931549 -1.183164 0
M  V30 18 N -0.215107 -1.751792 -2.037269 0
M  V30 19 C -1.260866 -1.463876 -2.748808 0
M  V30 20 C -1.814632 -2.357430 -3.613835 0
M  V30 21 C -2.882523 -1.600699 -4.111082 0
M  V30 22 N -2.880339 -0.364341 -3.528446 0
M  V30 23 N -1.871445 -0.288001 -2.685443 0
M  V30 24 C -1.484726 -3.698340 -4.034917 0
M  V30 25 C -2.522597 -4.722621 -4.120216 0
M  V30 26 C -3.185142 -5.336414 -2.981321 0
M  V30 27 C -2.513539 -6.205792 -2.035809 0
M  V30 28 C -1.530341 -5.733416 -1.089143 0
M  V30 29 O -1.477542 -4.501788 -0.865272 0
M  V30 30 N -0.490733 -5.682239 -0.155188 0
M  V30 31 C 0.051135 -4.507983 0.504803 0
M  V30 32 C 0.033712 -4.345720 1.895195 0
M  V30 33 C 0.511052 -3.171995 2.448952 0
M  V30 34 C 1.016008 -2.126380 1.665353 0
M  V30 35 C 1.003841 -2.351276 0.312708 0
M  V30 36 C 0.545308 -3.497946 -0.282217 0
M  V30 37 N 1.463774 -1.149783 -0.334094 0
M  V30 38 C -0.688163 2.933464 0.121285 0
M  V30 39 H 1.758837 1.794810 6.454597 0
M  V30 40 H 2.774062 3.331125 6.519622 0
M  V30 41 H 3.355961 1.852995 7.303706 0
M  V30 42 H 3.742415 -0.277313 4.690253 0
M  V30 43 H 3.458241 -0.006966 6.461884 0
M  V30 44 H 5.042328 0.370872 5.719730 0
M  V30 45 H 3.102871 1.180687 3.281039 0
M  V30 46 H 1.719670 1.004232 4.409322 0
M  V30 47 H 2.893208 3.714585 3.465201 0
M  V30 48 H 1.470586 3.481600 4.511530 0
M  V30 49 H 0.912033 1.895276 2.116576 0
M  V30 50 H -0.679640 6.131423 1.195092 0
M  V30 51 H -2.234514 6.315015 -0.640337 0
M  V30 52 H -2.802369 4.395271 -1.968903 0
M  V30 53 H -2.754922 2.062567 -2.338394 0
M  V30 54 H -3.689889 -1.750667 -4.826130 0
M  V30 55 H -0.639712 -4.116185 -3.406888 0
M  V30 56 H -0.943362 -3.572045 -5.039051 0
M  V30 57 H -3.379185 -4.216982 -4.716933 0
M  V30 58 H -2.228309 -5.503488 -4.916234 0
M  V30 59 H -4.094344 -5.885896 -3.379568 0
M  V30 60 H -3.683142 -4.497694 -2.384906 0
M  V30 61 H -1.972512 -7.008145 -2.653123 0
M  V30 62 H -3.227690 -6.869635 -1.441347 0
M  V30 63 H 0.071460 -6.450863 0.240688 0
M  V30 64 H -0.372913 -5.205024 2.389098 0
M  V30 65 H 0.466238 -3.118405 3.542292 0
M  V30 66 H 1.385179 -1.220558 2.142530 0
M  V30 67 H 0.581712 -3.667860 -1.341632 0
M  V30 68 H 2.291566 -0.587446 -0.234135 0
M  V30 69 H -0.196230 2.024093 0.422516 0
M  V30 END ATOM
M  V30 BEGIN BOND
M  V30 1 1 1 2
M  V30 2 1 2 3
M  V30 3 1 2 4
M  V30 4 1 4 5
M  V30 5 1 5 6
M  V30 6 1 6 7
M  V30 7 2 7 8
M  V30 8 1 7 9
M  V30 9 2 9 10
M  V30 10 1 10 11
M  V30 11 2 11 12
M  V30 12 1 12 13
M  V30 13 1 13 14
M  V30 14 1 14 15
M  V30 15 2 15 16
M  V30 16 1 16 17
M  V30 17 2 17 18
M  V30 18 1 18 19
M  V30 19 2 19 20
M  V30 20 1 20 21
M  V30 21 2 21 22
M  V30 22 1 22 23
M  V30 23 1 20 24
M  V30 24 1 24 25
M  V30 25 1 25 26
M  V30 26 1 26 27
M  V30 27 1 27 28
M  V30 28 2 28 29
M  V30 29 1 28 30
M  V30 30 1 30 31
M  V30 31 2 31 32
M  V30 32 1 32 33
M  V30 33 2 33 34
M  V30 34 1 34 35
M  V30 35 2 35 36
M  V30 36 1 35 37
M  V30 37 2 13 38
M  V30 38 1 38 9
M  V30 39 1 23 15
M  V30 40 1 36 31
M  V30 41 1 37 17
M  V30 42 1 23 19
M  V30 43 1 1 39
M  V30 44 1 1 40
M  V30 45 1 1 41
M  V30 46 1 3 42
M  V30 47 1 3 43
M  V30 48 1 3 44
M  V30 49 1 4 45
M  V30 50 1 4 46
M  V30 51 1 5 47
M  V30 52 1 5 48
M  V30 53 1 6 49
M  V30 54 1 10 50
M  V30 55 1 11 51
M  V30 56 1 12 52
M  V30 57 1 14 53
M  V30 58 1 21 54
M  V30 59 1 24 55
M  V30 60 1 24 56
M  V30 61 1 25 57
M  V30 62 1 25 58
M  V30 63 1 26 59
M  V30 64 1 26 60
M  V30 65 1 27 61
M  V30 66 1 27 62
M  V30 67 1 30 63
M  V30 68 1 32 64
M  V30 69 1 33 65
M  V30 70 1 34 66
M  V30 71 1 36 67
M  V30 72 1 37 68
M  V30 73 1 38 69
M  V30 END BOND
M  V30 END CTAB
M  END
>  <Dataset>  (834) 
ChEMBL_Kinases

>  <Ligand_Instance>  (834) 
nan

>  <PDB_ID>  (834) 
nan

>  <Standardized_SMILES>  (834) 
CN(C)CCNC(=O)c1cccc(Nc2nc3nc4c(cnn24)CCCCC(=O)Nc2cccc(c2)N3)c1

>  <Name>  (834) 
nan

>  <Pocket>  (834) 
nan

>  <ATP_Site>  (834) 
nan

>  <Peripheral>  (834) 
nan

>  <Num_H_Atoms_ProtBoundConf>  (834) 
nan

>  <Num_Resolved_Atoms>  (834) 
nan

>  <Num_Not_Resolved_Atoms>  (834) 
nan

$$$$
CHEMBL402272
     RDKit          3D

  0  0  0  0  0  0  0  0  0  0999 V3000
M  V30 BEGIN CTAB
M  V30 COUNTS 28 30 0 0 0
M  V30 BEGIN ATOM
M  V30 1 N -2.903918 -3.470871 3.295543 0
M  V30 2 C -2.267505 -2.203308 3.428435 0
M  V30 3 N -2.398274 -1.354227 4.461944 0
M  V30 4 C -1.723055 -0.170701 4.448706 0
M  V30 5 C -0.886522 0.211256 3.395595 0
M  V30 6 C -0.793083 -0.699368 2.366535 0
M  V30 7 C 0.054303 -0.399726 1.216285 0
M  V30 8 C 0.808507 0.742369 1.029521 0
M  V30 9 C 1.435607 0.580924 -0.188027 0
M  V30 10 C 1.095092 -0.612497 -0.751903 0
M  V30 11 N 0.252257 -1.179429 0.135143 0
M  V30 12 C 1.545103 -1.170422 -2.053018 0
M  V30 13 C 2.913416 -0.600257 -2.365043 0
M  V30 14 N 2.800791 0.842311 -2.244662 0
M  V30 15 C 2.371977 1.386209 -1.001719 0
M  V30 16 O 2.748557 2.520678 -0.556368 0
M  V30 17 N -1.470311 -1.861024 2.404090 0
M  V30 18 H -2.521300 -4.204308 3.937789 0
M  V30 19 H -3.665898 -3.452625 2.558895 0
M  V30 20 H -1.843508 0.496436 5.290757 0
M  V30 21 H -0.364193 1.153523 3.410911 0
M  V30 22 H 0.913977 1.595686 1.666536 0
M  V30 23 H -0.222482 -2.112139 0.048324 0
M  V30 24 H 0.847835 -0.751142 -2.823593 0
M  V30 25 H 1.552198 -2.276940 -2.031700 0
M  V30 26 H 3.658434 -0.917008 -1.593472 0
M  V30 27 H 3.257566 -0.899300 -3.378931 0
M  V30 28 H 3.010034 1.552915 -3.003965 0
M  V30 END ATOM
M  V30 BEGIN BOND
M  V30 1 1 1 2
M  V30 2 2 2 3
M  V30 3 1 3 4
M  V30 4 2 4 5
M  V30 5 1 5 6
M  V30 6 1 6 7
M  V30 7 2 7 8
M  V30 8 1 8 9
M  V30 9 2 9 10
M  V30 10 1 10 11
M  V30 11 1 10 12
M  V30 12 1 12 13
M  V30 13 1 13 14
M  V30 14 1 14 15
M  V30 15 2 15 16
M  V30 16 2 6 17
M  V30 17 1 17 2
M  V30 18 1 11 7
M  V30 19 1 15 9
M  V30 20 1 1 18
M  V30 21 1 1 19
M  V30 22 1 4 20
M  V30 23 1 5 21
M  V30 24 1 8 22
M  V30 25 1 11 23
M  V30 26 1 12 24
M  V30 27 1 12 25
M  V30 28 1 13 26
M  V30 29 1 13 27
M  V30 30 1 14 28
M  V30 END BOND
M  V30 END CTAB
M  END
>  <Dataset>  (835) 
ChEMBL_Kinases

>  <Ligand_Instance>  (835) 
nan

>  <PDB_ID>  (835) 
nan

>  <Standardized_SMILES>  (835) 
Nc1nccc(-c2cc3c([nH]2)CCNC3=O)n1

>  <Name>  (835) 
nan

>  <Pocket>  (835) 
nan

>  <ATP_Site>  (835) 
nan

>  <Peripheral>  (835) 
nan

>  <Num_H_Atoms_ProtBoundConf>  (835) 
nan

>  <Num_Resolved_Atoms>  (835) 
nan

>  <Num_Not_Resolved_Atoms>  (835) 
nan

$$$$
CHEMBL402246
     RDKit          3D

  0  0  0  0  0  0  0  0  0  0999 V3000
M  V30 BEGIN CTAB
M  V30 COUNTS 72 76 0 0 0
M  V30 BEGIN ATOM
M  V30 1 C 2.271180 -2.873603 4.180344 0
M  V30 2 N 2.344444 -2.773840 2.708132 0
M  V30 3 C 1.587831 -3.932169 2.236459 0
M  V30 4 C 3.703637 -2.873695 2.272297 0
M  V30 5 C 3.936840 -2.741439 0.806104 0
M  V30 6 N 3.506033 -1.483526 0.240053 0
M  V30 7 C 2.162692 -1.417447 -0.279140 0
M  V30 8 C 4.351677 -0.339689 0.174259 0
M  V30 9 O 5.536803 -0.154438 0.537885 0
M  V30 10 C 3.992220 0.976210 -0.375916 0
M  V30 11 C 4.721757 1.745818 -1.258707 0
M  V30 12 C 4.291689 2.980333 -1.717784 0
M  V30 13 C 3.059960 3.450832 -1.254677 0
M  V30 14 C 2.254929 2.760225 -0.373870 0
M  V30 15 N 0.996146 3.299734 0.089187 0
M  V30 16 C 0.040257 2.271467 -0.020561 0
M  V30 17 N -0.431428 2.332660 -1.306752 0
M  V30 18 C -1.359317 1.420346 -1.704186 0
M  V30 19 N -1.722686 0.535538 -0.778783 0
M  V30 20 C -1.296742 0.453988 0.434977 0
M  V30 21 C -1.607491 -0.406920 1.418743 0
M  V30 22 C -0.792484 0.061525 2.482822 0
M  V30 23 N -0.057257 1.142118 2.082005 0
M  V30 24 N -0.392899 1.343928 0.828996 0
M  V30 25 C -2.412007 -1.609895 1.678553 0
M  V30 26 C -3.586484 -1.511406 2.544195 0
M  V30 27 C -4.827412 -0.794273 2.181222 0
M  V30 28 C -5.715943 -1.412369 1.167523 0
M  V30 29 C -5.285470 -1.480864 -0.215300 0
M  V30 30 O -4.516602 -0.571386 0.046504 0
M  V30 31 N -5.185315 -1.884946 -1.573814 0
M  V30 32 C -4.234212 -1.188436 -2.370698 0
M  V30 33 C -3.919327 -2.059855 -3.381501 0
M  V30 34 C -2.940922 -1.738995 -4.337990 0
M  V30 35 C -2.274045 -0.506618 -4.255507 0
M  V30 36 C -2.698205 0.265048 -3.180977 0
M  V30 37 C -3.641356 0.019282 -2.222727 0
M  V30 38 N -1.909345 1.439212 -3.040402 0
M  V30 39 C 2.781246 1.548603 0.014476 0
M  V30 40 H 1.509477 -2.161441 4.534229 0
M  V30 41 H 2.014337 -3.898627 4.492475 0
M  V30 42 H 3.282480 -2.620032 4.553135 0
M  V30 43 H 2.104856 -4.884315 2.486561 0
M  V30 44 H 0.581843 -3.949924 2.727980 0
M  V30 45 H 1.520994 -3.867014 1.140564 0
M  V30 46 H 4.301364 -2.095835 2.800294 0
M  V30 47 H 4.130312 -3.865895 2.573825 0
M  V30 48 H 3.388175 -3.562021 0.254550 0
M  V30 49 H 5.013294 -2.967549 0.592806 0
M  V30 50 H 2.165711 -0.662459 -1.097845 0
M  V30 51 H 1.409839 -1.162116 0.474766 0
M  V30 52 H 1.902567 -2.420057 -0.751593 0
M  V30 53 H 5.677418 1.323671 -1.588035 0
M  V30 54 H 4.932448 3.498925 -2.399556 0
M  V30 55 H 2.760267 4.405024 -1.637810 0
M  V30 56 H 1.070964 4.285267 0.384452 0
M  V30 57 H -0.617873 -0.233974 3.526812 0
M  V30 58 H -1.740368 -2.414158 2.199608 0
M  V30 59 H -2.576611 -2.175843 0.697205 0
M  V30 60 H -3.875836 -2.635096 2.745127 0
M  V30 61 H -3.269898 -1.244361 3.611083 0
M  V30 62 H -4.640966 0.281372 1.955069 0
M  V30 63 H -5.461271 -0.736366 3.127370 0
M  V30 64 H -6.678707 -0.799001 1.163100 0
M  V30 65 H -6.055423 -2.415751 1.564264 0
M  V30 66 H -5.874519 -2.602096 -1.521065 0
M  V30 67 H -4.353017 -3.055797 -3.572477 0
M  V30 68 H -2.626936 -2.380172 -5.180052 0
M  V30 69 H -1.499878 -0.127756 -4.926061 0
M  V30 70 H -3.838268 0.779562 -1.509622 0
M  V30 71 H -1.721221 2.174551 -3.729898 0
M  V30 72 H 2.214322 0.980094 0.703929 0
M  V30 END ATOM
M  V30 BEGIN BOND
M  V30 1 1 1 2
M  V30 2 1 2 3
M  V30 3 1 2 4
M  V30 4 1 4 5
M  V30 5 1 5 6
M  V30 6 1 6 7
M  V30 7 1 6 8
M  V30 8 2 8 9
M  V30 9 1 8 10
M  V30 10 2 10 11
M  V30 11 1 11 12
M  V30 12 2 12 13
M  V30 13 1 13 14
M  V30 14 1 14 15
M  V30 15 1 15 16
M  V30 16 2 16 17
M  V30 17 1 17 18
M  V30 18 2 18 19
M  V30 19 1 19 20
M  V30 20 2 20 21
M  V30 21 1 21 22
M  V30 22 2 22 23
M  V30 23 1 23 24
M  V30 24 1 21 25
M  V30 25 1 25 26
M  V30 26 1 26 27
M  V30 27 1 27 28
M  V30 28 1 28 29
M  V30 29 2 29 30
M  V30 30 1 29 31
M  V30 31 1 31 32
M  V30 32 2 32 33
M  V30 33 1 33 34
M  V30 34 2 34 35
M  V30 35 1 35 36
M  V30 36 2 36 37
M  V30 37 1 36 38
M  V30 38 2 14 39
M  V30 39 1 39 10
M  V30 40 1 24 16
M  V30 41 1 37 32
M  V30 42 1 38 18
M  V30 43 1 24 20
M  V30 44 1 1 40
M  V30 45 1 1 41
M  V30 46 1 1 42
M  V30 47 1 3 43
M  V30 48 1 3 44
M  V30 49 1 3 45
M  V30 50 1 4 46
M  V30 51 1 4 47
M  V30 52 1 5 48
M  V30 53 1 5 49
M  V30 54 1 7 50
M  V30 55 1 7 51
M  V30 56 1 7 52
M  V30 57 1 11 53
M  V30 58 1 12 54
M  V30 59 1 13 55
M  V30 60 1 15 56
M  V30 61 1 22 57
M  V30 62 1 25 58
M  V30 63 1 25 59
M  V30 64 1 26 60
M  V30 65 1 26 61
M  V30 66 1 27 62
M  V30 67 1 27 63
M  V30 68 1 28 64
M  V30 69 1 28 65
M  V30 70 1 31 66
M  V30 71 1 33 67
M  V30 72 1 34 68
M  V30 73 1 35 69
M  V30 74 1 37 70
M  V30 75 1 38 71
M  V30 76 1 39 72
M  V30 END BOND
M  V30 END CTAB
M  END
>  <Dataset>  (836) 
ChEMBL_Kinases

>  <Ligand_Instance>  (836) 
nan

>  <PDB_ID>  (836) 
nan

>  <Standardized_SMILES>  (836) 
CN(C)CCN(C)C(=O)c1cccc(Nc2nc3nc4c(cnn24)CCCCC(=O)Nc2cccc(c2)N3)c1

>  <Name>  (836) 
nan

>  <Pocket>  (836) 
nan

>  <ATP_Site>  (836) 
nan

>  <Peripheral>  (836) 
nan

>  <Num_H_Atoms_ProtBoundConf>  (836) 
nan

>  <Num_Resolved_Atoms>  (836) 
nan

>  <Num_Not_Resolved_Atoms>  (836) 
nan

$$$$
CHEMBL402228
     RDKit          3D

  0  0  0  0  0  0  0  0  0  0999 V3000
M  V30 BEGIN CTAB
M  V30 COUNTS 57 60 0 0 0
M  V30 BEGIN ATOM
M  V30 1 C 1.800378 1.545372 3.203837 0
M  V30 2 O 1.698754 0.901248 1.949725 0
M  V30 3 C 1.975204 -0.419415 1.736755 0
M  V30 4 C 2.379610 -1.169607 2.818661 0
M  V30 5 C 2.672424 -2.522735 2.647248 0
M  V30 6 C 2.547585 -3.084919 1.378132 0
M  V30 7 C 2.135694 -2.279742 0.324838 0
M  V30 8 C 1.840904 -0.941740 0.468288 0
M  V30 9 N 1.422766 -0.178979 -0.673612 0
M  V30 10 C 2.228781 0.955985 -1.081278 0
M  V30 11 C 1.486577 2.266358 -0.967835 0
M  V30 12 N 0.055222 1.870872 -0.695470 0
M  V30 13 C -0.749444 3.049699 -0.735291 0
M  V30 14 C -2.017870 2.952124 0.013118 0
M  V30 15 C -3.011038 1.910507 -0.261678 0
M  V30 16 N -2.652084 0.550749 0.012982 0
M  V30 17 C -2.292908 0.110636 1.315889 0
M  V30 18 O -2.275598 0.934042 2.273016 0
M  V30 19 C -1.936040 -1.293632 1.596946 0
M  V30 20 N -1.915213 -2.367319 0.787259 0
M  V30 21 C -1.528020 -3.479051 1.437183 0
M  V30 22 C -1.514977 -4.631183 0.537913 0
M  V30 23 C -0.510157 -5.098840 -0.285777 0
M  V30 24 C -0.776111 -6.232037 -1.044656 0
M  V30 25 C -1.998330 -6.867458 -0.978785 0
M  V30 26 N -2.967016 -6.398786 -0.170731 0
M  V30 27 C -2.735395 -5.293799 0.582047 0
M  V30 28 N -1.310526 -3.037725 2.689356 0
M  V30 29 O -1.554242 -1.762377 2.759385 0
M  V30 30 C -0.267199 1.014149 -1.882443 0
M  V30 31 C 0.262779 -0.350478 -1.551999 0
M  V30 32 H 1.452481 2.594570 3.095595 0
M  V30 33 H 1.208839 1.053739 3.995878 0
M  V30 34 H 2.846730 1.596143 3.575631 0
M  V30 35 H 2.469125 -0.701174 3.805585 0
M  V30 36 H 2.986405 -3.046812 3.554617 0
M  V30 37 H 2.784026 -4.135053 1.289797 0
M  V30 38 H 2.061243 -2.794704 -0.642797 0
M  V30 39 H 3.183055 0.959212 -0.529064 0
M  V30 40 H 2.498830 0.769460 -2.161498 0
M  V30 41 H 1.828529 2.774486 -0.050453 0
M  V30 42 H 1.529602 2.898073 -1.863945 0
M  V30 43 H -0.129575 3.908755 -0.320682 0
M  V30 44 H -0.926011 3.379025 -1.817634 0
M  V30 45 H -2.570232 3.963830 -0.014027 0
M  V30 46 H -1.699154 2.856153 1.121946 0
M  V30 47 H -3.946648 2.112231 0.323859 0
M  V30 48 H -3.362842 2.024417 -1.327252 0
M  V30 49 H -2.631853 -0.208437 -0.701762 0
M  V30 50 H 0.375844 -4.506118 -0.231011 0
M  V30 51 H 0.062304 -6.536193 -1.664644 0
M  V30 52 H -2.138558 -7.745890 -1.597771 0
M  V30 53 H -3.602472 -5.039001 1.177058 0
M  V30 54 H 0.344944 1.413228 -2.748496 0
M  V30 55 H -1.286831 1.135811 -2.139096 0
M  V30 56 H -0.462266 -1.056169 -1.163428 0
M  V30 57 H 0.691989 -0.835251 -2.478342 0
M  V30 END ATOM
M  V30 BEGIN BOND
M  V30 1 1 1 2
M  V30 2 1 2 3
M  V30 3 2 3 4
M  V30 4 1 4 5
M  V30 5 2 5 6
M  V30 6 1 6 7
M  V30 7 2 7 8
M  V30 8 1 8 9
M  V30 9 1 9 10
M  V30 10 1 10 11
M  V30 11 1 11 12
M  V30 12 1 12 13
M  V30 13 1 13 14
M  V30 14 1 14 15
M  V30 15 1 15 16
M  V30 16 1 16 17
M  V30 17 2 17 18
M  V30 18 1 17 19
M  V30 19 2 19 20
M  V30 20 1 20 21
M  V30 21 1 21 22
M  V30 22 2 22 23
M  V30 23 1 23 24
M  V30 24 2 24 25
M  V30 25 1 25 26
M  V30 26 2 26 27
M  V30 27 2 21 28
M  V30 28 1 28 29
M  V30 29 1 12 30
M  V30 30 1 30 31
M  V30 31 1 8 3
M  V30 32 1 31 9
M  V30 33 1 29 19
M  V30 34 1 27 22
M  V30 35 1 1 32
M  V30 36 1 1 33
M  V30 37 1 1 34
M  V30 38 1 4 35
M  V30 39 1 5 36
M  V30 40 1 6 37
M  V30 41 1 7 38
M  V30 42 1 10 39
M  V30 43 1 10 40
M  V30 44 1 11 41
M  V30 45 1 11 42
M  V30 46 1 13 43
M  V30 47 1 13 44
M  V30 48 1 14 45
M  V30 49 1 14 46
M  V30 50 1 15 47
M  V30 51 1 15 48
M  V30 52 1 16 49
M  V30 53 1 23 50
M  V30 54 1 24 51
M  V30 55 1 25 52
M  V30 56 1 27 53
M  V30 57 1 30 54
M  V30 58 1 30 55
M  V30 59 1 31 56
M  V30 60 1 31 57
M  V30 END BOND
M  V30 END CTAB
M  END
>  <Dataset>  (837) 
ChEMBL_Kinases

>  <Ligand_Instance>  (837) 
nan

>  <PDB_ID>  (837) 
nan

>  <Standardized_SMILES>  (837) 
COc1ccccc1N1CCN(CCCNC(=O)c2nc(-c3cccnc3)no2)CC1

>  <Name>  (837) 
nan

>  <Pocket>  (837) 
nan

>  <ATP_Site>  (837) 
nan

>  <Peripheral>  (837) 
nan

>  <Num_H_Atoms_ProtBoundConf>  (837) 
nan

>  <Num_Resolved_Atoms>  (837) 
nan

>  <Num_Not_Resolved_Atoms>  (837) 
nan

$$$$
CHEMBL402227
     RDKit          3D

  0  0  0  0  0  0  0  0  0  0999 V3000
M  V30 BEGIN CTAB
M  V30 COUNTS 32 34 0 0 0
M  V30 BEGIN ATOM
M  V30 1 O -0.560212 -2.659570 2.679566 0
M  V30 2 C 0.247752 -1.735155 2.414533 0
M  V30 3 C 1.714592 -1.814590 2.497500 0
M  V30 4 C 2.279932 -0.924677 1.401010 0 CFG=1
M  V30 5 C 1.759749 -1.464963 0.111212 0
M  V30 6 C 1.236682 -2.730673 -0.156686 0
M  V30 7 C 0.813767 -3.012642 -1.429079 0
M  V30 8 C 0.873163 -2.123068 -2.460809 0
M  V30 9 C 1.390404 -0.857049 -2.216418 0
M  V30 10 C 1.828370 -0.541821 -0.931808 0
M  V30 11 O 1.798816 0.384147 1.656562 0
M  V30 12 C 0.421703 0.564316 1.612591 0
M  V30 13 C -0.150466 1.765937 1.202521 0
M  V30 14 C -1.531097 1.912446 1.170293 0
M  V30 15 O -2.002320 3.147559 0.747207 0
M  V30 16 C -2.331519 0.858154 1.547743 0
M  V30 17 O -3.708818 1.048527 1.500222 0
M  V30 18 C -1.762822 -0.329720 1.953083 0
M  V30 19 O -2.581797 -1.389620 2.332735 0
M  V30 20 C -0.384720 -0.489763 1.990052 0
M  V30 21 H 2.002186 -1.323672 3.464182 0
M  V30 22 H 2.117899 -2.832625 2.486035 0
M  V30 23 H 3.387757 -0.924597 1.423359 0
M  V30 24 H 1.227955 -3.366225 0.713804 0
M  V30 25 H 0.419840 -4.012577 -1.564251 0
M  V30 26 H 0.512944 -2.427621 -3.452948 0
M  V30 27 H 1.446587 -0.129921 -3.029579 0
M  V30 28 H 2.217820 0.468858 -0.829660 0
M  V30 29 H 0.504156 2.583729 0.909277 0
M  V30 30 H -2.363662 3.795962 1.451778 0
M  V30 31 H -4.185109 1.215778 0.607555 0
M  V30 32 H -2.941650 -1.999163 1.605792 0
M  V30 END ATOM
M  V30 BEGIN BOND
M  V30 1 2 1 2
M  V30 2 1 2 3
M  V30 3 1 3 4
M  V30 4 1 4 5
M  V30 5 2 5 6
M  V30 6 1 6 7
M  V30 7 2 7 8
M  V30 8 1 8 9
M  V30 9 2 9 10
M  V30 10 1 4 11
M  V30 11 1 11 12
M  V30 12 2 12 13
M  V30 13 1 13 14
M  V30 14 1 14 15
M  V30 15 2 14 16
M  V30 16 1 16 17
M  V30 17 1 16 18
M  V30 18 1 18 19
M  V30 19 2 18 20
M  V30 20 1 20 2
M  V30 21 1 10 5
M  V30 22 1 20 12
M  V30 23 1 3 21
M  V30 24 1 3 22
M  V30 25 1 4 23 CFG=3
M  V30 26 1 6 24
M  V30 27 1 7 25
M  V30 28 1 8 26
M  V30 29 1 9 27
M  V30 30 1 10 28
M  V30 31 1 13 29
M  V30 32 1 15 30
M  V30 33 1 17 31
M  V30 34 1 19 32
M  V30 END BOND
M  V30 END CTAB
M  END
>  <Dataset>  (838) 
ChEMBL_Kinases

>  <Ligand_Instance>  (838) 
nan

>  <PDB_ID>  (838) 
nan

>  <Standardized_SMILES>  (838) 
O=C1C[C@@H](c2ccccc2)Oc2cc(O)c(O)c(O)c21

>  <Name>  (838) 
nan

>  <Pocket>  (838) 
nan

>  <ATP_Site>  (838) 
nan

>  <Peripheral>  (838) 
nan

>  <Num_H_Atoms_ProtBoundConf>  (838) 
nan

>  <Num_Resolved_Atoms>  (838) 
nan

>  <Num_Not_Resolved_Atoms>  (838) 
nan

$$$$
CHEMBL4866123
     RDKit          3D

  0  0  0  0  0  0  0  0  0  0999 V3000
M  V30 BEGIN CTAB
M  V30 COUNTS 54 58 0 0 0
M  V30 BEGIN ATOM
M  V30 1 C 1.283967 -4.394045 4.848728 0
M  V30 2 O 2.643365 -4.593784 4.614366 0
M  V30 3 C 2.901189 -4.796921 3.278810 0
M  V30 4 N 2.493635 -3.671745 2.484313 0
M  V30 5 C 3.218219 -2.585493 2.144102 0
M  V30 6 C 2.454528 -1.736565 1.370137 0
M  V30 7 C 2.820848 -0.433543 0.773055 0
M  V30 8 C 4.087871 -0.103880 0.345192 0
M  V30 9 C 4.267642 1.155502 -0.190367 0
M  V30 10 C 3.238373 2.065626 -0.304020 0
M  V30 11 C 1.951452 1.739769 0.127081 0
M  V30 12 C 0.842143 2.683155 0.027142 0
M  V30 13 N 0.862252 3.992134 0.373729 0
M  V30 14 N -0.321454 4.551981 0.149886 0
M  V30 15 C -1.145470 3.614918 -0.351474 0
M  V30 16 C -2.484430 3.704767 -0.747549 0
M  V30 17 C -3.016871 2.507166 -1.226572 0
M  V30 18 C -2.357063 1.319974 -1.329670 0
M  V30 19 C -3.127827 0.206405 -1.867159 0
M  V30 20 N -3.885258 0.329837 -2.994105 0
M  V30 21 N -4.487960 -0.808977 -3.281283 0
M  V30 22 C -4.135632 -1.701770 -2.345953 0
M  V30 23 N -3.309865 -1.067446 -1.495863 0
M  V30 24 C -2.687941 -1.644961 -0.338179 0
M  V30 25 C -3.735514 -2.223137 0.622062 0
M  V30 26 C -1.863296 -2.835753 -0.820661 0
M  V30 27 C -1.039627 1.297258 -0.922960 0
M  V30 28 C -0.431965 2.428570 -0.437177 0
M  V30 29 C 1.793864 0.476284 0.658874 0
M  V30 30 C 1.229801 -2.362115 1.257849 0
M  V30 31 N 1.302808 -3.519695 1.943268 0
M  V30 32 H 0.897314 -3.508181 4.301836 0
M  V30 33 H 0.731135 -5.316190 4.618914 0
M  V30 34 H 1.136482 -4.186385 5.939911 0
M  V30 35 H 4.014602 -4.886508 3.163005 0
M  V30 36 H 2.434552 -5.742551 2.920035 0
M  V30 37 H 4.237838 -2.409333 2.433306 0
M  V30 38 H 4.855510 -0.858107 0.459602 0
M  V30 39 H 5.267942 1.389200 -0.517625 0
M  V30 40 H 3.421813 3.039770 -0.728236 0
M  V30 41 H -0.584351 5.552829 0.329224 0
M  V30 42 H -3.058067 4.619913 -0.689403 0
M  V30 43 H -4.070760 2.613627 -1.528176 0
M  V30 44 H -4.450077 -2.725427 -2.284240 0
M  V30 45 H -2.094048 -0.944093 0.242928 0
M  V30 46 H -3.183691 -2.959355 1.243405 0
M  V30 47 H -4.131716 -1.410800 1.250710 0
M  V30 48 H -4.555309 -2.702278 0.060922 0
M  V30 49 H -1.623179 -3.551838 -0.029528 0
M  V30 50 H -2.478543 -3.361688 -1.595999 0
M  V30 51 H -0.930016 -2.439397 -1.228298 0
M  V30 52 H -0.519215 0.353294 -1.007725 0
M  V30 53 H 0.789550 0.233767 0.990981 0
M  V30 54 H 0.421410 -1.917240 0.697548 0
M  V30 END ATOM
M  V30 BEGIN BOND
M  V30 1 1 1 2
M  V30 2 1 2 3
M  V30 3 1 3 4
M  V30 4 1 4 5
M  V30 5 2 5 6
M  V30 6 1 6 7
M  V30 7 2 7 8
M  V30 8 1 8 9
M  V30 9 2 9 10
M  V30 10 1 10 11
M  V30 11 1 11 12
M  V30 12 2 12 13
M  V30 13 1 13 14
M  V30 14 1 14 15
M  V30 15 2 15 16
M  V30 16 1 16 17
M  V30 17 2 17 18
M  V30 18 1 18 19
M  V30 19 2 19 20
M  V30 20 1 20 21
M  V30 21 2 21 22
M  V30 22 1 22 23
M  V30 23 1 23 24
M  V30 24 1 24 25
M  V30 25 1 24 26
M  V30 26 1 18 27
M  V30 27 2 27 28
M  V30 28 2 11 29
M  V30 29 1 6 30
M  V30 30 2 30 31
M  V30 31 1 31 4
M  V30 32 1 29 7
M  V30 33 1 28 12
M  V30 34 1 28 15
M  V30 35 1 23 19
M  V30 36 1 1 32
M  V30 37 1 1 33
M  V30 38 1 1 34
M  V30 39 1 3 35
M  V30 40 1 3 36
M  V30 41 1 5 37
M  V30 42 1 8 38
M  V30 43 1 9 39
M  V30 44 1 10 40
M  V30 45 1 14 41
M  V30 46 1 16 42
M  V30 47 1 17 43
M  V30 48 1 22 44
M  V30 49 1 24 45
M  V30 50 1 25 46
M  V30 51 1 25 47
M  V30 52 1 25 48
M  V30 53 1 26 49
M  V30 54 1 26 50
M  V30 55 1 26 51
M  V30 56 1 27 52
M  V30 57 1 29 53
M  V30 58 1 30 54
M  V30 END BOND
M  V30 END CTAB
M  END
>  <Dataset>  (839) 
ChEMBL_Kinases

>  <Ligand_Instance>  (839) 
nan

>  <PDB_ID>  (839) 
nan

>  <Standardized_SMILES>  (839) 
COCn1cc(-c2cccc(-c3n[nH]c4ccc(-c5nncn5C(C)C)cc34)c2)cn1

>  <Name>  (839) 
nan

>  <Pocket>  (839) 
nan

>  <ATP_Site>  (839) 
nan

>  <Peripheral>  (839) 
nan

>  <Num_H_Atoms_ProtBoundConf>  (839) 
nan

>  <Num_Resolved_Atoms>  (839) 
nan

>  <Num_Not_Resolved_Atoms>  (839) 
nan

$$$$
CHEMBL4866139
     RDKit          3D

  0  0  0  0  0  0  0  0  0  0999 V3000
M  V30 BEGIN CTAB
M  V30 COUNTS 59 62 0 0 0
M  V30 BEGIN ATOM
M  V30 1 C 6.276221 -1.800577 0.247563 0
M  V30 2 O 4.983726 -1.353307 0.609749 0
M  V30 3 C 3.828278 -1.977711 0.168061 0
M  V30 4 C 3.773285 -3.074978 -0.656750 0
M  V30 5 C 2.626246 -3.666885 -1.075515 0
M  V30 6 C 1.399810 -3.152717 -0.657805 0
M  V30 7 C 1.444114 -2.042229 0.177622 0
M  V30 8 C 2.637880 -1.438892 0.602032 0
M  V30 9 N 2.570638 -0.286491 1.441350 0
M  V30 10 C 1.480022 0.368423 2.068090 0
M  V30 11 N 1.538988 0.133437 3.409096 0
M  V30 12 C 0.654399 0.603442 4.294696 0
M  V30 13 C -0.373803 1.371033 3.797062 0
M  V30 14 C -1.365757 1.905543 4.722174 0
M  V30 15 N -1.224138 1.597471 6.129137 0
M  V30 16 O -2.363251 2.624459 4.446335 0
M  V30 17 C -0.499341 1.649531 2.459278 0
M  V30 18 N -1.477582 2.414206 1.796206 0
M  V30 19 C -2.780184 2.509410 1.313706 0
M  V30 20 C -3.622215 3.530107 1.715909 0
M  V30 21 C -4.928064 3.674589 1.307576 0
M  V30 22 C -5.359782 2.702399 0.441106 0
M  V30 23 C -4.556593 1.670799 0.015113 0
M  V30 24 C -3.256891 1.548579 0.436384 0
M  V30 25 S -2.342440 0.196302 -0.178109 0
M  V30 26 N -3.328378 -0.768208 -1.227498 0
M  V30 27 O -1.126583 0.605314 -0.946231 0
M  V30 28 O -2.004326 -0.673222 1.012104 0
M  V30 29 N 0.451910 1.119001 1.687018 0
M  V30 30 C 0.146922 -3.766421 -1.094461 0
M  V30 31 N 0.181905 -4.431545 -2.348915 0
M  V30 32 C -0.793443 -3.831153 -3.230186 0
M  V30 33 C 1.462232 -4.555554 -2.974772 0
M  V30 34 C 2.540205 -4.846397 -1.962082 0
M  V30 35 H 7.000800 -1.590748 1.093766 0
M  V30 36 H 6.682427 -1.276963 -0.634418 0
M  V30 37 H 6.328131 -2.909410 0.131162 0
M  V30 38 H 4.733347 -3.494894 -0.994611 0
M  V30 39 H 0.532734 -1.591578 0.537265 0
M  V30 40 H 3.493300 0.188373 1.649985 0
M  V30 41 H 0.710058 0.410835 5.364277 0
M  V30 42 H -0.694593 2.506529 6.303631 0
M  V30 43 H -1.754512 0.687849 5.952237 0
M  V30 44 H -0.986941 3.326821 1.568556 0
M  V30 45 H -3.193750 4.259435 2.407167 0
M  V30 46 H -5.573667 4.478160 1.631331 0
M  V30 47 H -6.377565 2.735378 0.068344 0
M  V30 48 H -4.984188 0.936710 -0.678795 0
M  V30 49 H -2.731224 -1.525636 -1.618064 0
M  V30 50 H -3.735115 -0.213124 -2.008784 0
M  V30 51 H -0.649579 -2.978861 -1.061031 0
M  V30 52 H -0.153651 -4.498339 -0.295389 0
M  V30 53 H -1.796976 -3.963931 -2.726108 0
M  V30 54 H -0.889009 -4.337274 -4.213736 0
M  V30 55 H -0.693573 -2.732159 -3.335677 0
M  V30 56 H 1.397706 -5.459638 -3.630272 0
M  V30 57 H 1.731169 -3.732604 -3.670449 0
M  V30 58 H 2.178031 -5.714487 -1.354984 0
M  V30 59 H 3.501500 -5.083138 -2.420896 0
M  V30 END ATOM
M  V30 BEGIN BOND
M  V30 1 1 1 2
M  V30 2 1 2 3
M  V30 3 2 3 4
M  V30 4 1 4 5
M  V30 5 2 5 6
M  V30 6 1 6 7
M  V30 7 2 7 8
M  V30 8 1 8 9
M  V30 9 1 9 10
M  V30 10 2 10 11
M  V30 11 1 11 12
M  V30 12 2 12 13
M  V30 13 1 13 14
M  V30 14 1 14 15
M  V30 15 2 14 16
M  V30 16 1 13 17
M  V30 17 1 17 18
M  V30 18 1 18 19
M  V30 19 2 19 20
M  V30 20 1 20 21
M  V30 21 2 21 22
M  V30 22 1 22 23
M  V30 23 2 23 24
M  V30 24 1 24 25
M  V30 25 1 25 26
M  V30 26 2 25 27
M  V30 27 2 25 28
M  V30 28 2 17 29
M  V30 29 1 6 30
M  V30 30 1 30 31
M  V30 31 1 31 32
M  V30 32 1 31 33
M  V30 33 1 33 34
M  V30 34 1 8 3
M  V30 35 1 29 10
M  V30 36 1 34 5
M  V30 37 1 24 19
M  V30 38 1 1 35
M  V30 39 1 1 36
M  V30 40 1 1 37
M  V30 41 1 4 38
M  V30 42 1 7 39
M  V30 43 1 9 40
M  V30 44 1 12 41
M  V30 45 1 15 42
M  V30 46 1 15 43
M  V30 47 1 18 44
M  V30 48 1 20 45
M  V30 49 1 21 46
M  V30 50 1 22 47
M  V30 51 1 23 48
M  V30 52 1 26 49
M  V30 53 1 26 50
M  V30 54 1 30 51
M  V30 55 1 30 52
M  V30 56 1 32 53
M  V30 57 1 32 54
M  V30 58 1 32 55
M  V30 59 1 33 56
M  V30 60 1 33 57
M  V30 61 1 34 58
M  V30 62 1 34 59
M  V30 END BOND
M  V30 END CTAB
M  END
>  <Dataset>  (840) 
ChEMBL_Kinases

>  <Ligand_Instance>  (840) 
nan

>  <PDB_ID>  (840) 
nan

>  <Standardized_SMILES>  (840) 
COc1cc2c(cc1Nc1ncc(C(N)=O)c(Nc3ccccc3S(N)(=O)=O)n1)CN(C)CC2

>  <Name>  (840) 
nan

>  <Pocket>  (840) 
nan

>  <ATP_Site>  (840) 
nan

>  <Peripheral>  (840) 
nan

>  <Num_H_Atoms_ProtBoundConf>  (840) 
nan

>  <Num_Resolved_Atoms>  (840) 
nan

>  <Num_Not_Resolved_Atoms>  (840) 
nan

$$$$
CHEMBL4866150
     RDKit          3D

  0  0  0  0  0  0  0  0  0  0999 V3000
M  V30 BEGIN CTAB
M  V30 COUNTS 70 74 0 0 0
M  V30 BEGIN ATOM
M  V30 1 O 0.353444 -2.054159 0.225424 0
M  V30 2 C 0.311709 -3.069660 1.003406 0
M  V30 3 N 1.072776 -4.121339 0.494835 0
M  V30 4 C 1.909304 -4.640626 -0.523051 0
M  V30 5 C 1.223248 -4.738161 -1.852993 0
M  V30 6 C 0.753021 -3.456996 -2.421241 0
M  V30 7 C 0.561540 -3.471871 -3.930532 0
M  V30 8 N 1.609240 -4.137083 -4.640945 0
M  V30 9 C 1.352402 -4.026931 -6.058937 0
M  V30 10 C 1.341343 -2.611293 -6.477631 0
M  V30 11 C 2.623036 -2.194912 -6.813028 0
M  V30 12 C 2.888478 -0.898471 -7.247611 0
M  V30 13 C 1.830838 -0.005845 -7.343175 0
M  V30 14 C 0.562973 -0.423054 -7.009663 0
M  V30 15 F -0.503497 0.398644 -7.081124 0
M  V30 16 C 0.301291 -1.713181 -6.577684 0
M  V30 17 C 1.650408 -5.509820 -4.180612 0
M  V30 18 C 2.199343 -5.477341 -2.775424 0
M  V30 19 C -0.471885 -2.980367 2.222527 0
M  V30 20 C -0.519648 -3.965643 3.185447 0
M  V30 21 N -1.254037 -3.878740 4.311096 0
M  V30 22 C -2.012253 -2.781180 4.568291 0
M  V30 23 C -1.959571 -1.801670 3.601206 0
M  V30 24 N -2.719432 -0.580892 3.757596 0
M  V30 25 C -2.183684 0.570950 4.355405 0
M  V30 26 O -0.971237 0.407517 4.730302 0
M  V30 27 C -2.900345 1.824885 4.541518 0
M  V30 28 C -4.222566 2.110796 4.260297 0
M  V30 29 C -4.760220 3.360755 4.483932 0
M  V30 30 N -3.983212 4.333478 4.988744 0
M  V30 31 C -2.678633 4.141494 5.292444 0
M  V30 32 N -1.842813 5.161734 5.821420 0
M  V30 33 C -1.441983 5.685034 7.077842 0
M  V30 34 O -1.851988 5.232653 8.179107 0
M  V30 35 C -0.483326 6.826813 6.918708 0
M  V30 36 C -0.725096 7.823222 5.829864 0
M  V30 37 C 0.481242 6.847451 5.780982 0
M  V30 38 C -2.153389 2.888964 5.065238 0
M  V30 39 C -1.213738 -1.846801 2.419976 0
M  V30 40 H 0.944316 -4.876931 1.245987 0
M  V30 41 H 2.764933 -3.903678 -0.679421 0
M  V30 42 H 2.342667 -5.623172 -0.233822 0
M  V30 43 H 0.327898 -5.424538 -1.680109 0
M  V30 44 H 1.365248 -2.582935 -2.171891 0
M  V30 45 H -0.286249 -3.283993 -2.029964 0
M  V30 46 H 0.580823 -2.401752 -4.251878 0
M  V30 47 H -0.409014 -3.942248 -4.217171 0
M  V30 48 H 2.014024 -4.656678 -6.679348 0
M  V30 49 H 0.317416 -4.455420 -6.221728 0
M  V30 50 H 3.542339 -2.779248 -6.789875 0
M  V30 51 H 3.847429 -0.494849 -7.526809 0
M  V30 52 H 1.931685 1.020679 -7.668504 0
M  V30 53 H -0.639666 -2.147444 -6.293790 0
M  V30 54 H 0.612396 -5.900139 -4.200875 0
M  V30 55 H 2.294592 -6.139156 -4.820662 0
M  V30 56 H 2.321156 -6.473215 -2.334590 0
M  V30 57 H 3.143266 -4.917640 -2.739160 0
M  V30 58 H 0.054014 -4.869005 3.058881 0
M  V30 59 H -2.626009 -2.638626 5.448022 0
M  V30 60 H -3.721128 -0.550120 3.408682 0
M  V30 61 H -4.760515 1.256594 3.858107 0
M  V30 62 H -5.808773 3.506041 4.236785 0
M  V30 63 H -1.536856 5.498834 4.887054 0
M  V30 64 H -0.122723 7.282324 7.864836 0
M  V30 65 H -1.522413 7.688636 5.078434 0
M  V30 66 H -0.439759 8.893155 5.989066 0
M  V30 67 H 1.483374 7.283551 5.901401 0
M  V30 68 H 0.425659 6.071451 4.982069 0
M  V30 69 H -1.114091 2.743338 5.310508 0
M  V30 70 H -1.217350 -1.046493 1.706314 0
M  V30 END ATOM
M  V30 BEGIN BOND
M  V30 1 2 1 2
M  V30 2 1 2 3
M  V30 3 1 3 4
M  V30 4 1 4 5
M  V30 5 1 5 6
M  V30 6 1 6 7
M  V30 7 1 7 8
M  V30 8 1 8 9
M  V30 9 1 9 10
M  V30 10 2 10 11
M  V30 11 1 11 12
M  V30 12 2 12 13
M  V30 13 1 13 14
M  V30 14 1 14 15
M  V30 15 2 14 16
M  V30 16 1 8 17
M  V30 17 1 17 18
M  V30 18 1 2 19
M  V30 19 2 19 20
M  V30 20 1 20 21
M  V30 21 2 21 22
M  V30 22 1 22 23
M  V30 23 1 23 24
M  V30 24 1 24 25
M  V30 25 2 25 26
M  V30 26 1 25 27
M  V30 27 2 27 28
M  V30 28 1 28 29
M  V30 29 2 29 30
M  V30 30 1 30 31
M  V30 31 1 31 32
M  V30 32 1 32 33
M  V30 33 2 33 34
M  V30 34 1 33 35
M  V30 35 1 35 36
M  V30 36 1 36 37
M  V30 37 2 31 38
M  V30 38 2 23 39
M  V30 39 1 18 5
M  V30 40 1 39 19
M  V30 41 1 16 10
M  V30 42 1 38 27
M  V30 43 1 37 35
M  V30 44 1 3 40
M  V30 45 1 4 41
M  V30 46 1 4 42
M  V30 47 1 5 43
M  V30 48 1 6 44
M  V30 49 1 6 45
M  V30 50 1 7 46
M  V30 51 1 7 47
M  V30 52 1 9 48
M  V30 53 1 9 49
M  V30 54 1 11 50
M  V30 55 1 12 51
M  V30 56 1 13 52
M  V30 57 1 16 53
M  V30 58 1 17 54
M  V30 59 1 17 55
M  V30 60 1 18 56
M  V30 61 1 18 57
M  V30 62 1 20 58
M  V30 63 1 22 59
M  V30 64 1 24 60
M  V30 65 1 28 61
M  V30 66 1 29 62
M  V30 67 1 32 63
M  V30 68 1 35 64
M  V30 69 1 36 65
M  V30 70 1 36 66
M  V30 71 1 37 67
M  V30 72 1 37 68
M  V30 73 1 38 69
M  V30 74 1 39 70
M  V30 END BOND
M  V30 END CTAB
M  END
>  <Dataset>  (841) 
ChEMBL_Kinases

>  <Ligand_Instance>  (841) 
nan

>  <PDB_ID>  (841) 
nan

>  <Standardized_SMILES>  (841) 
O=C(NCC1CCN(Cc2cccc(F)c2)CC1)c1cncc(NC(=O)c2ccnc(NC(=O)C3CC3)c2)c1

>  <Name>  (841) 
nan

>  <Pocket>  (841) 
nan

>  <ATP_Site>  (841) 
nan

>  <Peripheral>  (841) 
nan

>  <Num_H_Atoms_ProtBoundConf>  (841) 
nan

>  <Num_Resolved_Atoms>  (841) 
nan

>  <Num_Not_Resolved_Atoms>  (841) 
nan

$$$$
CHEMBL402093
     RDKit          3D

  0  0  0  0  0  0  0  0  0  0999 V3000
M  V30 BEGIN CTAB
M  V30 COUNTS 63 68 0 0 0
M  V30 BEGIN ATOM
M  V30 1 C 1.221921 -3.596815 1.642560 0
M  V30 2 N 0.521341 -2.353934 1.861360 0
M  V30 3 C 0.908857 -1.089874 1.511690 0
M  V30 4 C 2.068019 -0.707652 0.862921 0
M  V30 5 C 2.391070 0.611807 0.539680 0
M  V30 6 S 3.852254 0.963186 -0.314396 0
M  V30 7 O 4.687773 -0.318396 -0.344468 0
M  V30 8 O 4.716949 1.946345 0.453135 0
M  V30 9 N 3.667335 1.463177 -1.899352 0
M  V30 10 C 2.960328 2.635604 -2.216161 0
M  V30 11 C 3.010863 2.784514 -3.760003 0
M  V30 12 N 2.402509 1.640498 -4.361872 0
M  V30 13 C 2.394288 1.673536 -5.799362 0
M  V30 14 C 1.234035 0.805578 -6.236534 0
M  V30 15 C 0.640796 0.290590 -4.941353 0
M  V30 16 C 1.048403 1.415812 -3.979837 0
M  V30 17 C 1.430701 1.515420 0.935621 0
M  V30 18 O 1.646125 2.859602 0.673493 0
M  V30 19 C 0.275334 1.140761 1.580615 0
M  V30 20 C -0.025388 -0.150392 1.887762 0
M  V30 21 C -1.004386 -0.887489 2.483368 0
M  V30 22 C -2.181806 -0.519201 3.052446 0
M  V30 23 C -3.032610 -1.446591 3.603246 0
M  V30 24 C -2.681686 -2.789530 3.577939 0
M  V30 25 C -3.510536 -3.854015 4.133904 0
M  V30 26 C -4.406123 -4.376054 3.193978 0
M  V30 27 C -5.250800 -5.403211 3.620104 0
M  V30 28 C -5.189326 -5.863908 4.903264 0
M  V30 29 C -4.299154 -5.344310 5.835773 0
M  V30 30 C -3.459485 -4.328863 5.426171 0
M  V30 31 Cl -2.301144 -3.594900 6.497107 0
M  V30 32 C -1.492435 -3.192468 3.006846 0
M  V30 33 C -0.672427 -2.222401 2.467007 0
M  V30 34 C -4.237643 -0.846007 4.159521 0
M  V30 35 O -5.190204 -1.438171 4.724036 0
M  V30 36 N -4.058973 0.562679 3.901849 0
M  V30 37 C -2.822241 0.754116 3.236497 0
M  V30 38 O -2.571781 1.934492 2.968294 0
M  V30 39 H 0.894399 -4.326906 2.424756 0
M  V30 40 H 2.296914 -3.412663 1.861186 0
M  V30 41 H 1.060175 -3.999126 0.620847 0
M  V30 42 H 2.786960 -1.476829 0.578390 0
M  V30 43 H 3.286588 0.666447 -2.470027 0
M  V30 44 H 3.397602 3.510508 -1.710323 0
M  V30 45 H 1.884462 2.577035 -1.919276 0
M  V30 46 H 2.501039 3.733056 -4.039676 0
M  V30 47 H 4.089304 2.852976 -4.003707 0
M  V30 48 H 2.299834 2.714134 -6.178351 0
M  V30 49 H 3.320065 1.192905 -6.220618 0
M  V30 50 H 1.545920 -0.019323 -6.907573 0
M  V30 51 H 0.429725 1.410355 -6.715827 0
M  V30 52 H 1.162256 -0.629217 -4.627663 0
M  V30 53 H -0.457252 0.178774 -5.000300 0
M  V30 54 H 0.916912 1.097861 -2.927934 0
M  V30 55 H 0.408689 2.267271 -4.224859 0
M  V30 56 H 0.832312 3.418329 0.449197 0
M  V30 57 H -0.405225 1.911158 1.845360 0
M  V30 58 H -4.492982 -4.045797 2.167525 0
M  V30 59 H -5.958675 -5.825769 2.901179 0
M  V30 60 H -5.855364 -6.650219 5.180218 0
M  V30 61 H -4.261317 -5.718118 6.846604 0
M  V30 62 H -1.202159 -4.244443 2.979068 0
M  V30 63 H -4.826401 1.211497 4.225247 0
M  V30 END ATOM
M  V30 BEGIN BOND
M  V30 1 1 1 2
M  V30 2 1 2 3
M  V30 3 2 3 4
M  V30 4 1 4 5
M  V30 5 1 5 6
M  V30 6 2 6 7
M  V30 7 2 6 8
M  V30 8 1 6 9
M  V30 9 1 9 10
M  V30 10 1 10 11
M  V30 11 1 11 12
M  V30 12 1 12 13
M  V30 13 1 13 14
M  V30 14 1 14 15
M  V30 15 1 15 16
M  V30 16 2 5 17
M  V30 17 1 17 18
M  V30 18 1 17 19
M  V30 19 2 19 20
M  V30 20 1 20 21
M  V30 21 2 21 22
M  V30 22 1 22 23
M  V30 23 2 23 24
M  V30 24 1 24 25
M  V30 25 2 25 26
M  V30 26 1 26 27
M  V30 27 2 27 28
M  V30 28 1 28 29
M  V30 29 2 29 30
M  V30 30 1 30 31
M  V30 31 1 24 32
M  V30 32 2 32 33
M  V30 33 1 23 34
M  V30 34 2 34 35
M  V30 35 1 34 36
M  V30 36 1 36 37
M  V30 37 2 37 38
M  V30 38 1 33 2
M  V30 39 1 20 3
M  V30 40 1 33 21
M  V30 41 1 16 12
M  V30 42 1 37 22
M  V30 43 1 30 25
M  V30 44 1 1 39
M  V30 45 1 1 40
M  V30 46 1 1 41
M  V30 47 1 4 42
M  V30 48 1 9 43
M  V30 49 1 10 44
M  V30 50 1 10 45
M  V30 51 1 11 46
M  V30 52 1 11 47
M  V30 53 1 13 48
M  V30 54 1 13 49
M  V30 55 1 14 50
M  V30 56 1 14 51
M  V30 57 1 15 52
M  V30 58 1 15 53
M  V30 59 1 16 54
M  V30 60 1 16 55
M  V30 61 1 18 56
M  V30 62 1 19 57
M  V30 63 1 26 58
M  V30 64 1 27 59
M  V30 65 1 28 60
M  V30 66 1 29 61
M  V30 67 1 32 62
M  V30 68 1 36 63
M  V30 END BOND
M  V30 END CTAB
M  END
>  <Dataset>  (842) 
ChEMBL_Kinases

>  <Ligand_Instance>  (842) 
nan

>  <PDB_ID>  (842) 
nan

>  <Standardized_SMILES>  (842) 
Cn1c2cc(S(=O)(=O)NCCN3CCCC3)c(O)cc2c2c3c(c(-c4ccccc4Cl)cc21)C(=O)NC3=O

>  <Name>  (842) 
nan

>  <Pocket>  (842) 
nan

>  <ATP_Site>  (842) 
nan

>  <Peripheral>  (842) 
nan

>  <Num_H_Atoms_ProtBoundConf>  (842) 
nan

>  <Num_Resolved_Atoms>  (842) 
nan

>  <Num_Not_Resolved_Atoms>  (842) 
nan

$$$$
CHEMBL4866187
     RDKit          3D

  0  0  0  0  0  0  0  0  0  0999 V3000
M  V30 BEGIN CTAB
M  V30 COUNTS 45 49 0 0 0
M  V30 BEGIN ATOM
M  V30 1 C -0.924567 -4.486625 3.680092 0
M  V30 2 N 0.421655 -4.205020 3.197189 0
M  V30 3 C 1.265086 -5.352324 2.873754 0
M  V30 4 C 1.059065 -2.963101 2.985953 0
M  V30 5 N 2.191177 -2.685813 3.680188 0
M  V30 6 C 2.848107 -1.507450 3.520601 0
M  V30 7 C 2.353723 -0.558513 2.625686 0
M  V30 8 N 1.228865 -0.866422 1.953730 0
M  V30 9 C 0.546141 -0.145724 1.045640 0
M  V30 10 C 0.865995 1.189812 0.552771 0
M  V30 11 C 0.100237 2.310186 0.808267 0
M  V30 12 C 0.362412 3.582507 0.360472 0
M  V30 13 C 1.487159 3.770487 -0.413894 0
M  V30 14 N 1.990534 4.887557 -0.986375 0
M  V30 15 N 3.090666 4.545526 -1.629503 0
M  V30 16 C 3.326840 3.215307 -1.493258 0
M  V30 17 C 2.302363 2.701135 -0.712611 0
M  V30 18 C 1.999551 1.421078 -0.236569 0
M  V30 19 C -0.564415 -0.833087 0.594683 0
M  V30 20 C -1.619960 -0.571775 -0.340625 0
M  V30 21 C -2.644533 0.351039 -0.350264 0
M  V30 22 C -3.548939 0.406455 -1.388554 0
M  V30 23 C -3.484358 -0.447038 -2.466742 0
M  V30 24 F -4.435414 -0.286668 -3.418378 0
M  V30 25 C -2.469329 -1.382277 -2.485440 0
M  V30 26 C -1.553393 -1.441786 -1.438292 0
M  V30 27 N -0.501926 -2.007316 1.289697 0
M  V30 28 C 0.562901 -2.028473 2.097740 0
M  V30 29 H -0.794268 -4.712760 4.769617 0
M  V30 30 H -1.278960 -5.398395 3.189683 0
M  V30 31 H -1.595668 -3.631913 3.619973 0
M  V30 32 H 0.703534 -6.323962 2.976499 0
M  V30 33 H 1.787618 -5.261807 1.915568 0
M  V30 34 H 2.022714 -5.402095 3.709526 0
M  V30 35 H 3.743340 -1.293470 4.073182 0
M  V30 36 H 2.854935 0.388547 2.477047 0
M  V30 37 H -0.783483 2.210079 1.407813 0
M  V30 38 H -0.282980 4.419090 0.599840 0
M  V30 39 H 1.547380 5.849248 -0.906137 0
M  V30 40 H 4.146077 2.645797 -1.902595 0
M  V30 41 H 2.667606 0.612826 -0.495434 0
M  V30 42 H -2.622407 0.978032 0.529921 0
M  V30 43 H -4.283673 1.197960 -1.218457 0
M  V30 44 H -2.446075 -2.032177 -3.339339 0
M  V30 45 H -0.812504 -2.229683 -1.592520 0
M  V30 END ATOM
M  V30 BEGIN BOND
M  V30 1 1 1 2
M  V30 2 1 2 3
M  V30 3 1 2 4
M  V30 4 2 4 5
M  V30 5 1 5 6
M  V30 6 2 6 7
M  V30 7 1 7 8
M  V30 8 1 8 9
M  V30 9 1 9 10
M  V30 10 2 10 11
M  V30 11 1 11 12
M  V30 12 2 12 13
M  V30 13 1 13 14
M  V30 14 1 14 15
M  V30 15 2 15 16
M  V30 16 1 16 17
M  V30 17 2 17 18
M  V30 18 2 9 19
M  V30 19 1 19 20
M  V30 20 2 20 21
M  V30 21 1 21 22
M  V30 22 2 22 23
M  V30 23 1 23 24
M  V30 24 1 23 25
M  V30 25 2 25 26
M  V30 26 1 19 27
M  V30 27 2 27 28
M  V30 28 1 28 4
M  V30 29 1 28 8
M  V30 30 1 18 10
M  V30 31 1 26 20
M  V30 32 1 17 13
M  V30 33 1 1 29
M  V30 34 1 1 30
M  V30 35 1 1 31
M  V30 36 1 3 32
M  V30 37 1 3 33
M  V30 38 1 3 34
M  V30 39 1 6 35
M  V30 40 1 7 36
M  V30 41 1 11 37
M  V30 42 1 12 38
M  V30 43 1 14 39
M  V30 44 1 16 40
M  V30 45 1 18 41
M  V30 46 1 21 42
M  V30 47 1 22 43
M  V30 48 1 25 44
M  V30 49 1 26 45
M  V30 END BOND
M  V30 END CTAB
M  END
>  <Dataset>  (843) 
ChEMBL_Kinases

>  <Ligand_Instance>  (843) 
nan

>  <PDB_ID>  (843) 
nan

>  <Standardized_SMILES>  (843) 
CN(C)c1nccn2c(-c3ccc4[nH]ncc4c3)c(-c3ccc(F)cc3)nc12

>  <Name>  (843) 
nan

>  <Pocket>  (843) 
nan

>  <ATP_Site>  (843) 
nan

>  <Peripheral>  (843) 
nan

>  <Num_H_Atoms_ProtBoundConf>  (843) 
nan

>  <Num_Resolved_Atoms>  (843) 
nan

>  <Num_Not_Resolved_Atoms>  (843) 
nan

$$$$
CHEMBL4866206
     RDKit          3D

  0  0  0  0  0  0  0  0  0  0999 V3000
M  V30 BEGIN CTAB
M  V30 COUNTS 38 41 0 0 0
M  V30 BEGIN ATOM
M  V30 1 O -1.339888 -1.165712 4.174217 0
M  V30 2 C -0.318639 -1.030768 3.444192 0
M  V30 3 N 0.906691 -1.301577 3.926374 0
M  V30 4 C 2.073227 -1.202323 3.264863 0
M  V30 5 C 1.940941 -0.773905 1.960113 0
M  V30 6 N 3.125410 -0.641776 1.178079 0
M  V30 7 C 3.440007 -0.187793 -0.134304 0
M  V30 8 C 4.023258 -0.967676 -1.107658 0
M  V30 9 C 4.306482 -0.467219 -2.361282 0
M  V30 10 C 3.980462 0.859318 -2.608375 0
M  V30 11 C 3.399388 1.635806 -1.638000 0
M  V30 12 C 3.118497 1.122573 -0.379435 0
M  V30 13 Br 2.319419 2.370590 0.812415 0
M  V30 14 C 0.727702 -0.474555 1.384473 0
M  V30 15 C -0.433766 -0.600447 2.128174 0
M  V30 16 C -1.753611 -0.297250 1.572850 0
M  V30 17 C -2.179966 1.007273 1.722052 0
M  V30 18 C -3.424910 1.385886 1.223458 0
M  V30 19 C -4.193480 0.419773 0.588898 0
M  V30 20 C -3.743943 -0.888645 0.449855 0
M  V30 21 N -4.301681 -1.988603 -0.119256 0
M  V30 22 C -3.442798 -3.009691 0.017801 0
M  V30 23 C -2.303080 -2.603452 0.679259 0
M  V30 24 C -2.510735 -1.259971 0.944754 0
M  V30 25 H 0.947576 -1.627357 4.936382 0
M  V30 26 H 3.015299 -1.443155 3.737975 0
M  V30 27 H 4.064547 -0.911852 1.546718 0
M  V30 28 H 4.215464 -1.984369 -0.753466 0
M  V30 29 H 4.764065 -1.173520 -3.040921 0
M  V30 30 H 4.236798 1.174754 -3.621007 0
M  V30 31 H 3.186160 2.662527 -1.940881 0
M  V30 32 H 0.578647 -0.144031 0.385323 0
M  V30 33 H -1.623567 1.791786 2.204625 0
M  V30 34 H -3.847055 2.394231 1.294027 0
M  V30 35 H -5.176287 0.673189 0.182888 0
M  V30 36 H -5.257013 -2.002734 -0.584805 0
M  V30 37 H -3.627567 -4.015244 -0.345313 0
M  V30 38 H -1.417333 -3.155214 0.957117 0
M  V30 END ATOM
M  V30 BEGIN BOND
M  V30 1 2 1 2
M  V30 2 1 2 3
M  V30 3 1 3 4
M  V30 4 2 4 5
M  V30 5 1 5 6
M  V30 6 1 6 7
M  V30 7 2 7 8
M  V30 8 1 8 9
M  V30 9 2 9 10
M  V30 10 1 10 11
M  V30 11 2 11 12
M  V30 12 1 12 13
M  V30 13 1 5 14
M  V30 14 2 14 15
M  V30 15 1 15 16
M  V30 16 2 16 17
M  V30 17 1 17 18
M  V30 18 2 18 19
M  V30 19 1 19 20
M  V30 20 1 20 21
M  V30 21 1 21 22
M  V30 22 2 22 23
M  V30 23 1 23 24
M  V30 24 1 15 2
M  V30 25 1 24 16
M  V30 26 1 12 7
M  V30 27 2 24 20
M  V30 28 1 3 25
M  V30 29 1 4 26
M  V30 30 1 6 27
M  V30 31 1 8 28
M  V30 32 1 9 29
M  V30 33 1 10 30
M  V30 34 1 11 31
M  V30 35 1 14 32
M  V30 36 1 17 33
M  V30 37 1 18 34
M  V30 38 1 19 35
M  V30 39 1 21 36
M  V30 40 1 22 37
M  V30 41 1 23 38
M  V30 END BOND
M  V30 END CTAB
M  END
>  <Dataset>  (844) 
ChEMBL_Kinases

>  <Ligand_Instance>  (844) 
nan

>  <PDB_ID>  (844) 
nan

>  <Standardized_SMILES>  (844) 
O=c1[nH]cc(Nc2ccccc2Br)cc1-c1cccc2[nH]ccc12

>  <Name>  (844) 
nan

>  <Pocket>  (844) 
nan

>  <ATP_Site>  (844) 
nan

>  <Peripheral>  (844) 
nan

>  <Num_H_Atoms_ProtBoundConf>  (844) 
nan

>  <Num_Resolved_Atoms>  (844) 
nan

>  <Num_Not_Resolved_Atoms>  (844) 
nan

$$$$
CHEMBL402355
     RDKit          3D

  0  0  0  0  0  0  0  0  0  0999 V3000
M  V30 BEGIN CTAB
M  V30 COUNTS 68 73 0 0 0
M  V30 BEGIN ATOM
M  V30 1 C 4.285763 -5.486278 3.512941 0
M  V30 2 O 4.733648 -5.386748 2.156797 0
M  V30 3 C 4.363310 -4.310403 1.370216 0
M  V30 4 N 3.579480 -3.236725 1.690522 0
M  V30 5 C 3.322752 -2.272711 0.789129 0
M  V30 6 C 2.474773 -1.157042 1.188576 0
M  V30 7 C 2.748618 -0.299370 2.228728 0
M  V30 8 C 1.886243 0.733858 2.534606 0
M  V30 9 C 0.740308 0.901765 1.784974 0
M  V30 10 C -0.321629 1.938406 1.932737 0
M  V30 11 N -1.380179 1.588676 2.783435 0
M  V30 12 C -2.485908 2.458600 2.905712 0
M  V30 13 C -3.694771 2.043472 2.104211 0
M  V30 14 C -3.440904 0.866846 1.229384 0
M  V30 15 N -4.648412 0.379968 0.607562 0
M  V30 16 C -5.891541 0.169662 1.071084 0
M  V30 17 O -6.261219 0.385942 2.251397 0
M  V30 18 N -6.736764 -0.305986 0.142752 0
M  V30 19 C -6.032304 -0.426136 -1.012923 0
M  V30 20 C -6.322022 -0.848994 -2.295062 0
M  V30 21 C -5.315108 -0.839448 -3.267751 0
M  V30 22 C -4.034681 -0.419937 -2.988916 0
M  V30 23 C -3.776957 -0.004287 -1.700166 0
M  V30 24 C -4.760063 -0.000404 -0.702007 0
M  V30 25 C -2.790392 -0.261714 1.997546 0
M  V30 26 C -1.727209 0.228941 2.945986 0
M  V30 27 C 0.469769 0.021940 0.726375 0
M  V30 28 C 1.326025 -1.035358 0.392696 0
M  V30 29 C 3.805587 -2.262486 -0.509397 0
M  V30 30 C 3.528256 -1.217246 -1.478392 0
M  V30 31 C 2.878385 -1.364665 -2.681948 0
M  V30 32 C 2.637585 -0.341457 -3.573076 0
M  V30 33 C 3.084689 0.941867 -3.232910 0
M  V30 34 C 3.731003 1.084814 -2.034236 0
M  V30 35 C 3.968500 0.069063 -1.152636 0
M  V30 36 C 4.599858 -3.333880 -0.861006 0
M  V30 37 C 4.866622 -4.329184 0.063325 0
M  V30 38 C 5.703612 -5.399472 -0.405807 0
M  V30 39 N 6.389039 -6.262808 -0.779431 0
M  V30 40 H 5.113779 -5.243086 4.218021 0
M  V30 41 H 3.412628 -4.806148 3.654288 0
M  V30 42 H 3.922145 -6.502423 3.760907 0
M  V30 43 H 3.633795 -0.438004 2.800061 0
M  V30 44 H 2.018901 1.440601 3.316192 0
M  V30 45 H -0.688662 2.263506 0.923894 0
M  V30 46 H 0.188687 2.842207 2.374566 0
M  V30 47 H -2.154892 3.506365 2.662523 0
M  V30 48 H -2.794922 2.516186 3.972873 0
M  V30 49 H -3.979079 2.930905 1.476863 0
M  V30 50 H -4.566528 1.863992 2.761790 0
M  V30 51 H -2.775373 1.227839 0.399760 0
M  V30 52 H -7.744795 -0.543786 0.266142 0
M  V30 53 H -7.336823 -1.186356 -2.530245 0
M  V30 54 H -5.524686 -1.167675 -4.277122 0
M  V30 55 H -3.227233 -0.397548 -3.708826 0
M  V30 56 H -2.755653 0.330240 -1.473479 0
M  V30 57 H -2.359041 -0.957493 1.220894 0
M  V30 58 H -3.582285 -0.737753 2.610422 0
M  V30 59 H -0.872211 -0.476460 2.866921 0
M  V30 60 H -2.048714 0.115866 4.026909 0
M  V30 61 H -0.410491 0.096554 0.096716 0
M  V30 62 H 1.089051 -1.696446 -0.427473 0
M  V30 63 H 2.539048 -2.373494 -2.925150 0
M  V30 64 H 2.113762 -0.542598 -4.511743 0
M  V30 65 H 2.907517 1.760906 -3.915239 0
M  V30 66 H 4.086372 2.068545 -1.752997 0
M  V30 67 H 4.486040 0.263091 -0.223089 0
M  V30 68 H 4.988677 -3.349478 -1.864637 0
M  V30 END ATOM
M  V30 BEGIN BOND
M  V30 1 1 1 2
M  V30 2 1 2 3
M  V30 3 2 3 4
M  V30 4 1 4 5
M  V30 5 1 5 6
M  V30 6 2 6 7
M  V30 7 1 7 8
M  V30 8 2 8 9
M  V30 9 1 9 10
M  V30 10 1 10 11
M  V30 11 1 11 12
M  V30 12 1 12 13
M  V30 13 1 13 14
M  V30 14 1 14 15
M  V30 15 1 15 16
M  V30 16 2 16 17
M  V30 17 1 16 18
M  V30 18 1 18 19
M  V30 19 2 19 20
M  V30 20 1 20 21
M  V30 21 2 21 22
M  V30 22 1 22 23
M  V30 23 2 23 24
M  V30 24 1 14 25
M  V30 25 1 25 26
M  V30 26 1 9 27
M  V30 27 2 27 28
M  V30 28 2 5 29
M  V30 29 1 29 30
M  V30 30 2 30 31
M  V30 31 1 31 32
M  V30 32 2 32 33
M  V30 33 1 33 34
M  V30 34 2 34 35
M  V30 35 1 29 36
M  V30 36 2 36 37
M  V30 37 1 37 38
M  V30 38 3 38 39
M  V30 39 1 37 3
M  V30 40 1 28 6
M  V30 41 1 35 30
M  V30 42 1 26 11
M  V30 43 1 24 15
M  V30 44 1 24 19
M  V30 45 1 1 40
M  V30 46 1 1 41
M  V30 47 1 1 42
M  V30 48 1 7 43
M  V30 49 1 8 44
M  V30 50 1 10 45
M  V30 51 1 10 46
M  V30 52 1 12 47
M  V30 53 1 12 48
M  V30 54 1 13 49
M  V30 55 1 13 50
M  V30 56 1 14 51
M  V30 57 1 18 52
M  V30 58 1 20 53
M  V30 59 1 21 54
M  V30 60 1 22 55
M  V30 61 1 23 56
M  V30 62 1 25 57
M  V30 63 1 25 58
M  V30 64 1 26 59
M  V30 65 1 26 60
M  V30 66 1 27 61
M  V30 67 1 28 62
M  V30 68 1 31 63
M  V30 69 1 32 64
M  V30 70 1 33 65
M  V30 71 1 34 66
M  V30 72 1 35 67
M  V30 73 1 36 68
M  V30 END BOND
M  V30 END CTAB
M  END
>  <Dataset>  (845) 
ChEMBL_Kinases

>  <Ligand_Instance>  (845) 
nan

>  <PDB_ID>  (845) 
nan

>  <Standardized_SMILES>  (845) 
COc1nc(-c2ccc(CN3CCC(n4c(=O)[nH]c5ccccc54)CC3)cc2)c(-c2ccccc2)cc1C#N

>  <Name>  (845) 
nan

>  <Pocket>  (845) 
nan

>  <ATP_Site>  (845) 
nan

>  <Peripheral>  (845) 
nan

>  <Num_H_Atoms_ProtBoundConf>  (845) 
nan

>  <Num_Resolved_Atoms>  (845) 
nan

>  <Num_Not_Resolved_Atoms>  (845) 
nan

$$$$
CHEMBL3935525
     RDKit          3D

  0  0  0  0  0  0  0  0  0  0999 V3000
M  V30 BEGIN CTAB
M  V30 COUNTS 48 52 0 0 0
M  V30 BEGIN ATOM
M  V30 1 N 2.593674 -6.561510 -4.521874 0
M  V30 2 C 3.720669 -6.014430 -3.854494 0
M  V30 3 O 4.798787 -6.645527 -4.003151 0
M  V30 4 C 3.620802 -4.805468 -3.056325 0
M  V30 5 C 4.748625 -4.317539 -2.429076 0
M  V30 6 C 4.646831 -3.171798 -1.674502 0
M  V30 7 C 3.431318 -2.495238 -1.530712 0
M  V30 8 N 3.009470 -1.388793 -0.886522 0
M  V30 9 C 1.690642 -1.206790 -1.106898 0
M  V30 10 C 0.899134 -0.102028 -0.560400 0
M  V30 11 C 1.569410 0.805814 0.233634 0
M  V30 12 C 0.826130 1.853184 0.753601 0
M  V30 13 C -0.528915 1.971715 0.480499 0
M  V30 14 C -1.265708 3.140777 1.085146 0
M  V30 15 C -1.808325 2.752423 2.425649 0
M  V30 16 C -1.026292 2.953728 3.549751 0
M  V30 17 C -1.474045 2.614392 4.816944 0
M  V30 18 C -2.727100 2.060180 4.991237 0
M  V30 19 C -3.522096 1.852869 3.871245 0
M  V30 20 C -3.061843 2.198508 2.595710 0
M  V30 21 O -4.791845 1.297866 3.991623 0
M  V30 22 C -5.207164 0.562704 5.122579 0
M  V30 23 C -4.276033 0.647354 6.285018 0
M  V30 24 O -3.314037 1.671716 6.171792 0
M  V30 25 C -1.174873 1.047191 -0.318558 0
M  V30 26 C -0.447697 -0.016057 -0.853557 0
M  V30 27 N 1.280645 -2.220857 -1.905376 0
M  V30 28 C 2.335764 -3.034295 -2.184390 0
M  V30 29 C 2.402188 -4.181464 -2.949175 0
M  V30 30 H 1.566340 -6.502174 -4.353883 0
M  V30 31 H 2.651973 -7.162082 -5.362260 0
M  V30 32 H 5.673759 -4.859685 -2.557069 0
M  V30 33 H 5.518128 -2.762632 -1.167960 0
M  V30 34 H 3.685527 -0.838349 -0.334648 0
M  V30 35 H 2.624473 0.738038 0.462986 0
M  V30 36 H 1.318106 2.586585 1.382135 0
M  V30 37 H -0.607601 4.003998 1.106744 0
M  V30 38 H -2.155926 3.412864 0.470007 0
M  V30 39 H -0.040452 3.385401 3.449756 0
M  V30 40 H -0.896648 2.754052 5.723364 0
M  V30 41 H -3.690247 2.031053 1.741029 0
M  V30 42 H -5.378116 -0.483285 4.780062 0
M  V30 43 H -6.203022 0.942071 5.424343 0
M  V30 44 H -3.778328 -0.339318 6.407317 0
M  V30 45 H -4.835508 0.821146 7.231764 0
M  V30 46 H -2.249307 1.163902 -0.519608 0
M  V30 47 H -0.955083 -0.750954 -1.487133 0
M  V30 48 H 1.547841 -4.576469 -3.441639 0
M  V30 END ATOM
M  V30 BEGIN BOND
M  V30 1 1 1 2
M  V30 2 2 2 3
M  V30 3 1 2 4
M  V30 4 2 4 5
M  V30 5 1 5 6
M  V30 6 2 6 7
M  V30 7 1 7 8
M  V30 8 1 8 9
M  V30 9 1 9 10
M  V30 10 2 10 11
M  V30 11 1 11 12
M  V30 12 2 12 13
M  V30 13 1 13 14
M  V30 14 1 14 15
M  V30 15 2 15 16
M  V30 16 1 16 17
M  V30 17 2 17 18
M  V30 18 1 18 19
M  V30 19 2 19 20
M  V30 20 1 19 21
M  V30 21 1 21 22
M  V30 22 1 22 23
M  V30 23 1 23 24
M  V30 24 1 13 25
M  V30 25 2 25 26
M  V30 26 2 9 27
M  V30 27 1 27 28
M  V30 28 2 28 29
M  V30 29 1 29 4
M  V30 30 1 28 7
M  V30 31 1 26 10
M  V30 32 1 20 15
M  V30 33 1 24 18
M  V30 34 1 1 30
M  V30 35 1 1 31
M  V30 36 1 5 32
M  V30 37 1 6 33
M  V30 38 1 8 34
M  V30 39 1 11 35
M  V30 40 1 12 36
M  V30 41 1 14 37
M  V30 42 1 14 38
M  V30 43 1 16 39
M  V30 44 1 17 40
M  V30 45 1 20 41
M  V30 46 1 22 42
M  V30 47 1 22 43
M  V30 48 1 23 44
M  V30 49 1 23 45
M  V30 50 1 25 46
M  V30 51 1 26 47
M  V30 52 1 29 48
M  V30 END BOND
M  V30 END CTAB
M  END
>  <Dataset>  (846) 
ChEMBL_Kinases

>  <Ligand_Instance>  (846) 
nan

>  <PDB_ID>  (846) 
nan

>  <Standardized_SMILES>  (846) 
NC(=O)c1ccc2[nH]c(-c3ccc(Cc4ccc5c(c4)OCCO5)cc3)nc2c1

>  <Name>  (846) 
nan

>  <Pocket>  (846) 
nan

>  <ATP_Site>  (846) 
nan

>  <Peripheral>  (846) 
nan

>  <Num_H_Atoms_ProtBoundConf>  (846) 
nan

>  <Num_Resolved_Atoms>  (846) 
nan

>  <Num_Not_Resolved_Atoms>  (846) 
nan

$$$$
CHEMBL4875815
     RDKit          3D

  0  0  0  0  0  0  0  0  0  0999 V3000
M  V30 BEGIN CTAB
M  V30 COUNTS 50 53 0 0 0
M  V30 BEGIN ATOM
M  V30 1 C 0.389421 2.647761 6.019054 0
M  V30 2 O 1.758105 2.289133 5.922028 0
M  V30 3 C 2.119149 1.200473 5.120697 0
M  V30 4 O 1.097083 0.668782 4.569193 0
M  V30 5 C 3.434997 0.606098 4.832842 0
M  V30 6 C 3.994524 0.996017 3.478666 0
M  V30 7 N 3.162102 0.607050 2.385259 0
M  V30 8 C 3.465776 0.858087 1.019781 0
M  V30 9 O 4.536454 1.461987 0.752033 0
M  V30 10 C 2.602145 0.452643 -0.082881 0
M  V30 11 C 3.006909 0.769706 -1.363557 0
M  V30 12 C 2.190521 0.386236 -2.421428 0
M  V30 13 C 1.014345 -0.288023 -2.212750 0
M  V30 14 C 0.625387 -0.596332 -0.929736 0
M  V30 15 C 1.420480 -0.225269 0.134937 0
M  V30 16 N -0.515567 -1.250691 -0.737509 0
M  V30 17 C -1.375277 -1.668442 -1.669840 0
M  V30 18 N -2.582481 -2.364287 -1.437821 0
M  V30 19 C -3.132659 -2.720158 -0.187666 0
M  V30 20 C -2.671599 -2.238965 1.016563 0
M  V30 21 C -3.167778 -2.565962 2.244491 0
M  V30 22 C -4.221475 -3.450100 2.340703 0
M  V30 23 C -4.731557 -3.969754 1.175602 0
M  V30 24 Cl -6.067281 -5.097294 1.222094 0
M  V30 25 C -4.181688 -3.595389 -0.026634 0
M  V30 26 C -0.988523 -1.360928 -2.954631 0
M  V30 27 C -1.718626 -1.691552 -4.072223 0
M  V30 28 C -1.388242 -1.413141 -5.383684 0
M  V30 29 N -0.231578 -0.750361 -5.574807 0
M  V30 30 C 0.552000 -0.385171 -4.519497 0
M  V30 31 C 0.180589 -0.685090 -3.229089 0
M  V30 32 H -0.280018 1.773664 5.792406 0
M  V30 33 H 0.116712 2.950642 7.059648 0
M  V30 34 H 0.122195 3.470942 5.318557 0
M  V30 35 H 4.177974 1.004777 5.575340 0
M  V30 36 H 3.448823 -0.490880 4.981103 0
M  V30 37 H 4.328981 2.051086 3.461898 0
M  V30 38 H 4.945547 0.393243 3.387327 0
M  V30 39 H 2.281989 0.108953 2.637391 0
M  V30 40 H 3.946415 1.310273 -1.552837 0
M  V30 41 H 2.548824 0.655261 -3.389039 0
M  V30 42 H 1.084499 -0.482097 1.108441 0
M  V30 43 H -3.198395 -2.689052 -2.206520 0
M  V30 44 H -1.856750 -1.536614 1.098188 0
M  V30 45 H -2.808800 -2.191564 3.183243 0
M  V30 46 H -4.673040 -3.762848 3.256758 0
M  V30 47 H -4.631576 -4.044254 -0.927146 0
M  V30 48 H -2.652466 -2.221500 -3.971884 0
M  V30 49 H -2.006225 -1.700700 -6.222161 0
M  V30 50 H 1.431180 0.132164 -4.851638 0
M  V30 END ATOM
M  V30 BEGIN BOND
M  V30 1 1 1 2
M  V30 2 1 2 3
M  V30 3 2 3 4
M  V30 4 1 3 5
M  V30 5 1 5 6
M  V30 6 1 6 7
M  V30 7 1 7 8
M  V30 8 2 8 9
M  V30 9 1 8 10
M  V30 10 2 10 11
M  V30 11 1 11 12
M  V30 12 2 12 13
M  V30 13 1 13 14
M  V30 14 2 14 15
M  V30 15 1 14 16
M  V30 16 2 16 17
M  V30 17 1 17 18
M  V30 18 1 18 19
M  V30 19 2 19 20
M  V30 20 1 20 21
M  V30 21 2 21 22
M  V30 22 1 22 23
M  V30 23 1 23 24
M  V30 24 2 23 25
M  V30 25 1 17 26
M  V30 26 2 26 27
M  V30 27 1 27 28
M  V30 28 2 28 29
M  V30 29 1 29 30
M  V30 30 2 30 31
M  V30 31 1 15 10
M  V30 32 1 25 19
M  V30 33 1 31 26
M  V30 34 1 31 13
M  V30 35 1 1 32
M  V30 36 1 1 33
M  V30 37 1 1 34
M  V30 38 1 5 35
M  V30 39 1 5 36
M  V30 40 1 6 37
M  V30 41 1 6 38
M  V30 42 1 7 39
M  V30 43 1 11 40
M  V30 44 1 12 41
M  V30 45 1 15 42
M  V30 46 1 18 43
M  V30 47 1 20 44
M  V30 48 1 21 45
M  V30 49 1 22 46
M  V30 50 1 25 47
M  V30 51 1 27 48
M  V30 52 1 28 49
M  V30 53 1 30 50
M  V30 END BOND
M  V30 END CTAB
M  END
>  <Dataset>  (847) 
ChEMBL_Kinases

>  <Ligand_Instance>  (847) 
nan

>  <PDB_ID>  (847) 
nan

>  <Standardized_SMILES>  (847) 
COC(=O)CCNC(=O)c1ccc2c(c1)nc(Nc1cccc(Cl)c1)c1ccncc12

>  <Name>  (847) 
nan

>  <Pocket>  (847) 
nan

>  <ATP_Site>  (847) 
nan

>  <Peripheral>  (847) 
nan

>  <Num_H_Atoms_ProtBoundConf>  (847) 
nan

>  <Num_Resolved_Atoms>  (847) 
nan

>  <Num_Not_Resolved_Atoms>  (847) 
nan

$$$$
CHEMBL4875865
     RDKit          3D

  0  0  0  0  0  0  0  0  0  0999 V3000
M  V30 BEGIN CTAB
M  V30 COUNTS 35 37 0 0 0
M  V30 BEGIN ATOM
M  V30 1 C 1.721596 -3.199483 3.124061 0
M  V30 2 C 2.520822 -2.797103 1.951068 0
M  V30 3 C 3.599563 -3.413771 1.440620 0
M  V30 4 C 4.019543 -4.601097 2.118448 0
M  V30 5 N 4.375644 -5.554707 2.668396 0
M  V30 6 C 4.289440 -2.902970 0.274719 0
M  V30 7 O 5.411577 -3.610171 -0.194141 0
M  V30 8 N 3.932288 -1.820352 -0.370584 0
M  V30 9 C 2.793798 -1.106529 0.109170 0
M  V30 10 O 2.516889 -0.104414 -0.549578 0
M  V30 11 C 2.078353 -1.587359 1.274116 0
M  V30 12 C 1.031900 -0.849886 1.585729 0
M  V30 13 C 0.476535 0.366503 1.017694 0
M  V30 14 C 0.831112 1.650414 0.671945 0
M  V30 15 C -0.229277 2.339945 0.140427 0
M  V30 16 C -1.245775 1.410436 0.182465 0
M  V30 17 C -2.632602 1.626853 -0.273721 0
M  V30 18 C -3.521748 0.580328 -0.150532 0
M  V30 19 C -4.824058 0.726320 -0.559967 0
M  V30 20 C -5.195769 1.962778 -1.096462 0
M  V30 21 C -4.334981 3.040705 -1.238470 0
M  V30 22 C -3.018448 2.837887 -0.805127 0
M  V30 23 O -0.812382 0.294352 0.688043 0
M  V30 24 H 2.006776 -4.188713 3.522459 0
M  V30 25 H 1.735116 -2.434312 3.933192 0
M  V30 26 H 0.628196 -3.294186 2.858796 0
M  V30 27 H 5.631340 -3.622830 -1.183319 0
M  V30 28 H 0.508509 -1.283949 2.463727 0
M  V30 29 H 1.837218 1.992176 0.852187 0
M  V30 30 H -0.240577 3.355860 -0.214973 0
M  V30 31 H -3.244554 -0.378089 0.262900 0
M  V30 32 H -5.559238 -0.073043 -0.480821 0
M  V30 33 H -6.220087 2.119958 -1.432744 0
M  V30 34 H -4.649210 3.978939 -1.655716 0
M  V30 35 H -2.323344 3.668056 -0.904719 0
M  V30 END ATOM
M  V30 BEGIN BOND
M  V30 1 1 1 2
M  V30 2 2 2 3
M  V30 3 1 3 4
M  V30 4 3 4 5
M  V30 5 1 3 6
M  V30 6 1 6 7
M  V30 7 2 6 8
M  V30 8 1 8 9
M  V30 9 2 9 10
M  V30 10 1 9 11
M  V30 11 2 11 12
M  V30 12 1 12 13
M  V30 13 2 13 14
M  V30 14 1 14 15
M  V30 15 2 15 16
M  V30 16 1 16 17
M  V30 17 2 17 18
M  V30 18 1 18 19
M  V30 19 2 19 20
M  V30 20 1 20 21
M  V30 21 2 21 22
M  V30 22 1 16 23
M  V30 23 1 11 2
M  V30 24 1 23 13
M  V30 25 1 22 17
M  V30 26 1 1 24
M  V30 27 1 1 25
M  V30 28 1 1 26
M  V30 29 1 7 27
M  V30 30 1 12 28
M  V30 31 1 14 29
M  V30 32 1 15 30
M  V30 33 1 18 31
M  V30 34 1 19 32
M  V30 35 1 20 33
M  V30 36 1 21 34
M  V30 37 1 22 35
M  V30 END BOND
M  V30 END CTAB
M  END
>  <Dataset>  (848) 
ChEMBL_Kinases

>  <Ligand_Instance>  (848) 
nan

>  <PDB_ID>  (848) 
nan

>  <Standardized_SMILES>  (848) 
CC1=C(C#N)C(O)=NC(=O)/C1=C\c1ccc(-c2ccccc2)o1

>  <Name>  (848) 
nan

>  <Pocket>  (848) 
nan

>  <ATP_Site>  (848) 
nan

>  <Peripheral>  (848) 
nan

>  <Num_H_Atoms_ProtBoundConf>  (848) 
nan

>  <Num_Resolved_Atoms>  (848) 
nan

>  <Num_Not_Resolved_Atoms>  (848) 
nan

$$$$
CHEMBL3935395
     RDKit          3D

  0  0  0  0  0  0  0  0  0  0999 V3000
M  V30 BEGIN CTAB
M  V30 COUNTS 43 45 0 0 0
M  V30 BEGIN ATOM
M  V30 1 C 1.635581 -6.709185 0.234772 0
M  V30 2 C 2.302650 -5.338698 0.237804 0
M  V30 3 C 1.367195 -4.263796 0.668692 0
M  V30 4 C 0.602477 -3.600900 -0.267314 0
M  V30 5 C -0.276801 -2.600682 0.090718 0
M  V30 6 C -0.398540 -2.249367 1.418805 0
M  V30 7 N -1.220309 -1.270278 2.041347 0
M  V30 8 C -0.900667 -0.050081 1.948162 0
M  V30 9 S 0.529926 0.663428 1.088806 0
M  V30 10 C -0.253451 2.280287 0.841425 0
M  V30 11 C -0.053440 3.224116 -0.045709 0
M  V30 12 C 0.953678 3.085203 -1.085348 0
M  V30 13 C 1.634360 4.264479 -1.409256 0
M  V30 14 C 2.628629 4.340465 -2.372790 0
M  V30 15 N 2.925006 3.187022 -3.010391 0
M  V30 16 C 2.309782 2.021191 -2.747158 0
M  V30 17 C 1.310726 1.949976 -1.777131 0
M  V30 18 C -1.239405 2.347346 1.910561 0
M  V30 19 O -1.765850 3.432435 2.302774 0
M  V30 20 N -1.567275 1.091563 2.483952 0
M  V30 21 C -2.536803 0.902401 3.573855 0
M  V30 22 C -1.841147 1.000576 4.914769 0
M  V30 23 C 0.383570 -2.929563 2.357913 0
M  V30 24 C 1.265650 -3.931830 2.010016 0
M  V30 25 H 2.191012 -7.442006 0.844574 0
M  V30 26 H 0.557035 -6.632813 0.559405 0
M  V30 27 H 1.577177 -7.138269 -0.799954 0
M  V30 28 H 2.771390 -5.108883 -0.748002 0
M  V30 29 H 3.135293 -5.379063 0.981801 0
M  V30 30 H 0.647000 -3.823181 -1.322716 0
M  V30 31 H -0.922082 -2.015935 -0.544156 0
M  V30 32 H -0.655662 4.128611 -0.000717 0
M  V30 33 H 1.412056 5.198907 -0.909054 0
M  V30 34 H 3.125375 5.277011 -2.586411 0
M  V30 35 H 2.559215 1.090541 -3.271082 0
M  V30 36 H 0.764873 1.061638 -1.498306 0
M  V30 37 H -3.291130 1.708141 3.549842 0
M  V30 38 H -3.046725 -0.056322 3.497750 0
M  V30 39 H -2.522936 1.240684 5.728234 0
M  V30 40 H -1.108152 1.852615 4.798570 0
M  V30 41 H -1.286908 0.043935 5.061516 0
M  V30 42 H 0.391279 -2.753855 3.444497 0
M  V30 43 H 1.881317 -4.477247 2.693729 0
M  V30 END ATOM
M  V30 BEGIN BOND
M  V30 1 1 1 2
M  V30 2 1 2 3
M  V30 3 2 3 4
M  V30 4 1 4 5
M  V30 5 2 5 6
M  V30 6 1 6 7
M  V30 7 2 7 8
M  V30 8 1 8 9
M  V30 9 1 9 10
M  V30 10 2 10 11
M  V30 11 1 11 12
M  V30 12 2 12 13
M  V30 13 1 13 14
M  V30 14 2 14 15
M  V30 15 1 15 16
M  V30 16 2 16 17
M  V30 17 1 10 18
M  V30 18 2 18 19
M  V30 19 1 18 20
M  V30 20 1 20 21
M  V30 21 1 21 22
M  V30 22 1 6 23
M  V30 23 2 23 24
M  V30 24 1 24 3
M  V30 25 1 20 8
M  V30 26 1 17 12
M  V30 27 1 1 25
M  V30 28 1 1 26
M  V30 29 1 1 27
M  V30 30 1 2 28
M  V30 31 1 2 29
M  V30 32 1 4 30
M  V30 33 1 5 31
M  V30 34 1 11 32
M  V30 35 1 13 33
M  V30 36 1 14 34
M  V30 37 1 16 35
M  V30 38 1 17 36
M  V30 39 1 21 37
M  V30 40 1 21 38
M  V30 41 1 22 39
M  V30 42 1 22 40
M  V30 43 1 22 41
M  V30 44 1 23 42
M  V30 45 1 24 43
M  V30 END BOND
M  V30 END CTAB
M  END
>  <Dataset>  (849) 
ChEMBL_Kinases

>  <Ligand_Instance>  (849) 
nan

>  <PDB_ID>  (849) 
nan

>  <Standardized_SMILES>  (849) 
CCc1ccc(/N=C2\S/C(=C\c3ccncc3)C(=O)N2CC)cc1

>  <Name>  (849) 
nan

>  <Pocket>  (849) 
nan

>  <ATP_Site>  (849) 
nan

>  <Peripheral>  (849) 
nan

>  <Num_H_Atoms_ProtBoundConf>  (849) 
nan

>  <Num_Resolved_Atoms>  (849) 
nan

>  <Num_Not_Resolved_Atoms>  (849) 
nan

$$$$
CHEMBL3935387
     RDKit          3D

  0  0  0  0  0  0  0  0  0  0999 V3000
M  V30 BEGIN CTAB
M  V30 COUNTS 137 140 0 0 0
M  V30 BEGIN ATOM
M  V30 1 C 6.009257 -2.448574 -4.548365 0
M  V30 2 C 4.929380 -1.568385 -4.005756 0
M  V30 3 O 3.900956 -1.620519 -4.764136 0
M  V30 4 N 5.176176 -0.842353 -2.802705 0
M  V30 5 C 6.464008 -0.943655 -2.077495 0
M  V30 6 C 6.941137 0.506484 -1.984988 0
M  V30 7 C 5.607979 1.272306 -2.063614 0
M  V30 8 C 4.660215 0.086362 -1.859577 0 CFG=1
M  V30 9 C 3.264503 0.462386 -1.911169 0
M  V30 10 O 3.211970 1.537407 -1.199471 0
M  V30 11 N 1.993699 0.099986 -2.429891 0
M  V30 12 C 0.768306 0.891644 -2.187290 0 CFG=1
M  V30 13 C 0.192689 1.090331 -3.536008 0
M  V30 14 C -1.061868 1.846655 -3.698125 0
M  V30 15 C -1.083938 3.247909 -3.215020 0
M  V30 16 C -2.243261 0.997018 -3.292479 0
M  V30 17 C -0.021486 0.129165 -1.221007 0
M  V30 18 O -1.045828 0.523257 -0.630400 0
M  V30 19 N 0.171030 -1.168272 -0.747978 0
M  V30 20 C -0.378264 -2.120276 0.151162 0 CFG=1
M  V30 21 C -1.652922 -1.479433 0.814258 0
M  V30 22 C -2.139552 -2.499938 1.777989 0
M  V30 23 C -1.654480 -3.742182 2.110294 0
M  V30 24 N -2.552027 -4.220328 3.022208 0
M  V30 25 C -3.499664 -3.236979 3.170924 0
M  V30 26 N -3.247198 -2.113222 2.375154 0
M  V30 27 C -4.276755 -1.203932 2.771668 0
M  V30 28 C -4.044882 -0.742627 4.221267 0
M  V30 29 C -5.154857 0.039449 4.749342 0
M  V30 30 C -5.427451 1.376335 4.214152 0
M  V30 31 C -4.268427 2.349974 4.564070 0
M  V30 32 C -4.672946 3.745240 4.187112 0
M  V30 33 C -3.724462 4.806756 4.557513 0
M  V30 34 C -2.427065 5.033646 3.953891 0
M  V30 35 C -1.404520 4.004171 3.844345 0
M  V30 36 C -0.465919 3.886184 4.871105 0
M  V30 37 C 0.504927 2.912929 4.775044 0
M  V30 38 C 0.560516 2.065512 3.691406 0
M  V30 39 C -0.376532 2.194175 2.678962 0
M  V30 40 C -1.361142 3.145182 2.729815 0
M  V30 41 O -2.387207 3.489541 1.901276 0
M  V30 42 C -2.713171 2.909428 0.677433 0
M  V30 43 C -3.938479 3.589259 0.098014 0
M  V30 44 C -3.741398 4.718466 -0.693659 0
M  V30 45 C -4.803904 5.421839 -1.262787 0
M  V30 46 C -6.046052 4.905788 -0.975658 0
M  V30 47 C -6.322370 3.801823 -0.207008 0
M  V30 48 C -5.230406 3.157573 0.321407 0
M  V30 49 C -0.864259 -3.343461 -0.527557 0
M  V30 50 O -1.479467 -4.484157 -0.605221 0
M  V30 51 N -0.502108 -3.444500 -1.934275 0
M  V30 52 C -0.768167 -4.433885 -2.957041 0 CFG=1
M  V30 53 C -0.927392 -3.848673 -4.307461 0
M  V30 54 O -1.186966 -4.789452 -5.270381 0
M  V30 55 C 0.381787 -5.416344 -2.975092 0
M  V30 56 O 0.433233 -6.299248 -3.896523 0
M  V30 57 N 1.395856 -5.393740 -2.004499 0
M  V30 58 C 2.587813 -6.062602 -1.619421 0 CFG=2
M  V30 59 C 2.376864 -6.947942 -0.430808 0
M  V30 60 N 1.066751 -7.027488 0.115719 0
M  V30 61 O 2.888955 -7.734683 0.386395 0
M  V30 62 C 3.771657 -5.195656 -1.396746 0 CFG=1
M  V30 63 C 3.586280 -4.234645 -0.238064 0
M  V30 64 O 4.820021 -6.050979 -1.005348 0
M  V30 65 P 6.214516 -5.857453 -1.892055 0
M  V30 66 O 6.003080 -5.913686 -3.384372 0
M  V30 67 O 6.958711 -4.380130 -1.454437 0
M  V30 68 O 7.297311 -7.091255 -1.436477 0
M  V30 69 H 6.921417 -1.779198 -4.635804 0
M  V30 70 H 6.301948 -3.229202 -3.835390 0
M  V30 71 H 5.828916 -2.797385 -5.562410 0
M  V30 72 H 7.179780 -1.550642 -2.652644 0
M  V30 73 H 6.256785 -1.344254 -1.070042 0
M  V30 74 H 7.598631 0.718113 -2.825255 0
M  V30 75 H 7.443214 0.696635 -1.033119 0
M  V30 76 H 5.512357 1.702354 -3.080398 0
M  V30 77 H 5.554990 1.994920 -1.246063 0
M  V30 78 H 4.861615 -0.228898 -0.794046 0
M  V30 79 H 2.148442 -0.779470 -2.957933 0
M  V30 80 H 1.161915 1.848742 -1.727977 0
M  V30 81 H 0.095485 0.057350 -3.989014 0
M  V30 82 H 1.024360 1.537090 -4.161726 0
M  V30 83 H -1.189858 1.938640 -4.843166 0
M  V30 84 H -0.103674 3.651130 -2.910926 0
M  V30 85 H -1.841706 3.402200 -2.397602 0
M  V30 86 H -1.438495 3.968910 -4.005821 0
M  V30 87 H -2.814069 1.428470 -2.465088 0
M  V30 88 H -3.007836 0.896799 -4.127214 0
M  V30 89 H -1.939688 -0.079550 -3.135612 0
M  V30 90 H 1.015876 -1.705049 -1.118052 0
M  V30 91 H 0.251411 -2.227034 1.034484 0
M  V30 92 H -2.388456 -1.353827 0.025390 0
M  V30 93 H -1.344376 -0.596306 1.372636 0
M  V30 94 H -0.757917 -4.226562 1.774040 0
M  V30 95 H -4.199850 -3.672685 3.912633 0
M  V30 96 H -5.278152 -1.611313 2.606836 0
M  V30 97 H -4.187821 -0.314477 2.088795 0
M  V30 98 H -3.758602 -1.628025 4.840331 0
M  V30 99 H -3.124849 -0.102472 4.178301 0
M  V30 100 H -6.121683 -0.567063 4.571351 0
M  V30 101 H -5.119351 0.068587 5.906904 0
M  V30 102 H -6.335512 1.837648 4.691913 0
M  V30 103 H -5.607984 1.406406 3.123864 0
M  V30 104 H -4.185935 2.270048 5.679537 0
M  V30 105 H -3.371314 1.997489 4.058237 0
M  V30 106 H -4.974323 3.796374 3.106913 0
M  V30 107 H -5.675846 3.903040 4.709983 0
M  V30 108 H -4.314565 5.816207 4.558517 0
M  V30 109 H -3.563062 4.746324 5.715221 0
M  V30 110 H -1.908464 5.940467 4.456087 0
M  V30 111 H -2.579120 5.481106 2.900124 0
M  V30 112 H -0.429500 4.503985 5.759308 0
M  V30 113 H 1.286130 2.721892 5.505016 0
M  V30 114 H 1.247420 1.259496 3.461674 0
M  V30 115 H -0.444979 1.602159 1.782911 0
M  V30 116 H -2.977455 1.860811 0.815113 0
M  V30 117 H -1.872269 3.025002 -0.048789 0
M  V30 118 H -2.757558 5.127222 -0.923135 0
M  V30 119 H -4.665350 6.297850 -1.879091 0
M  V30 120 H -6.894739 5.432904 -1.406216 0
M  V30 121 H -7.316858 3.426623 -0.003411 0
M  V30 122 H -5.290092 2.286919 0.933702 0
M  V30 123 H 0.071892 -2.721293 -2.452946 0
M  V30 124 H -1.659766 -5.071965 -2.655974 0
M  V30 125 H -1.677452 -3.041614 -4.355920 0
M  V30 126 H 0.047632 -3.355120 -4.574276 0
M  V30 127 H -0.454013 -4.850221 -5.930642 0
M  V30 128 H 1.280459 -4.639962 -1.290705 0
M  V30 129 H 2.830420 -6.784741 -2.454234 0
M  V30 130 H 0.092930 -7.086402 0.529120 0
M  V30 131 H 0.150283 -7.109215 -0.398982 0
M  V30 132 H 4.058033 -4.571284 -2.260629 0
M  V30 133 H 3.137386 -3.277352 -0.563845 0
M  V30 134 H 4.601276 -3.997613 0.150505 0
M  V30 135 H 3.036619 -4.718287 0.593204 0
M  V30 136 H 6.928698 -4.244201 -0.486391 0
M  V30 137 H 7.231274 -7.142524 -0.444615 0
M  V30 END ATOM
M  V30 BEGIN BOND
M  V30 1 1 1 2
M  V30 2 2 2 3
M  V30 3 1 2 4
M  V30 4 1 4 5
M  V30 5 1 5 6
M  V30 6 1 6 7
M  V30 7 1 7 8
M  V30 8 1 8 9
M  V30 9 2 9 10
M  V30 10 1 9 11
M  V30 11 1 11 12
M  V30 12 1 12 13
M  V30 13 1 13 14
M  V30 14 1 14 15
M  V30 15 1 14 16
M  V30 16 1 12 17
M  V30 17 2 17 18
M  V30 18 1 17 19
M  V30 19 1 19 20
M  V30 20 1 20 21
M  V30 21 1 21 22
M  V30 22 2 22 23
M  V30 23 1 23 24
M  V30 24 2 24 25
M  V30 25 1 25 26
M  V30 26 1 26 27
M  V30 27 1 27 28
M  V30 28 1 28 29
M  V30 29 1 29 30
M  V30 30 1 30 31
M  V30 31 1 31 32
M  V30 32 1 32 33
M  V30 33 1 33 34
M  V30 34 1 34 35
M  V30 35 2 35 36
M  V30 36 1 36 37
M  V30 37 2 37 38
M  V30 38 1 38 39
M  V30 39 2 39 40
M  V30 40 1 40 41
M  V30 41 1 41 42
M  V30 42 1 42 43
M  V30 43 2 43 44
M  V30 44 1 44 45
M  V30 45 2 45 46
M  V30 46 1 46 47
M  V30 47 2 47 48
M  V30 48 1 20 49
M  V30 49 2 49 50
M  V30 50 1 49 51
M  V30 51 1 51 52
M  V30 52 1 52 53
M  V30 53 1 53 54
M  V30 54 1 52 55
M  V30 55 2 55 56
M  V30 56 1 55 57
M  V30 57 1 57 58
M  V30 58 1 58 59
M  V30 59 1 59 60
M  V30 60 2 59 61
M  V30 61 1 58 62
M  V30 62 1 62 63
M  V30 63 1 62 64
M  V30 64 1 64 65
M  V30 65 2 65 66
M  V30 66 1 65 67
M  V30 67 1 65 68
M  V30 68 1 8 4
M  V30 69 1 26 22
M  V30 70 1 40 35
M  V30 71 1 48 43
M  V30 72 1 1 69
M  V30 73 1 1 70
M  V30 74 1 1 71
M  V30 75 1 5 72
M  V30 76 1 5 73
M  V30 77 1 6 74
M  V30 78 1 6 75
M  V30 79 1 7 76
M  V30 80 1 7 77
M  V30 81 1 8 78 CFG=1
M  V30 82 1 11 79
M  V30 83 1 12 80 CFG=1
M  V30 84 1 13 81
M  V30 85 1 13 82
M  V30 86 1 14 83
M  V30 87 1 15 84
M  V30 88 1 15 85
M  V30 89 1 15 86
M  V30 90 1 16 87
M  V30 91 1 16 88
M  V30 92 1 16 89
M  V30 93 1 19 90
M  V30 94 1 20 91 CFG=1
M  V30 95 1 21 92
M  V30 96 1 21 93
M  V30 97 1 23 94
M  V30 98 1 25 95
M  V30 99 1 27 96
M  V30 100 1 27 97
M  V30 101 1 28 98
M  V30 102 1 28 99
M  V30 103 1 29 100
M  V30 104 1 29 101
M  V30 105 1 30 102
M  V30 106 1 30 103
M  V30 107 1 31 104
M  V30 108 1 31 105
M  V30 109 1 32 106
M  V30 110 1 32 107
M  V30 111 1 33 108
M  V30 112 1 33 109
M  V30 113 1 34 110
M  V30 114 1 34 111
M  V30 115 1 36 112
M  V30 116 1 37 113
M  V30 117 1 38 114
M  V30 118 1 39 115
M  V30 119 1 42 116
M  V30 120 1 42 117
M  V30 121 1 44 118
M  V30 122 1 45 119
M  V30 123 1 46 120
M  V30 124 1 47 121
M  V30 125 1 48 122
M  V30 126 1 51 123
M  V30 127 1 52 124 CFG=1
M  V30 128 1 53 125
M  V30 129 1 53 126
M  V30 130 1 54 127
M  V30 131 1 57 128
M  V30 132 1 58 129 CFG=3
M  V30 133 1 60 130
M  V30 134 1 60 131
M  V30 135 1 62 132 CFG=3
M  V30 136 1 63 133
M  V30 137 1 63 134
M  V30 138 1 63 135
M  V30 139 1 67 136
M  V30 140 1 68 137
M  V30 END BOND
M  V30 END CTAB
M  END
>  <Dataset>  (850) 
ChEMBL_Kinases

>  <Ligand_Instance>  (850) 
nan

>  <PDB_ID>  (850) 
nan

>  <Standardized_SMILES>  (850) 
CC(=O)N1CCC[C@H]1C(=O)N[C@@H](CC(C)C)C(=O)N[C@@H](Cc1cncn1CCCCCCCCc1ccccc1OCc1ccccc1)C(=O)N[C@@H](CO)C(=O)N[C@H](C(N)=O)[C@@H](C)OP(=O)(O)O

>  <Name>  (850) 
nan

>  <Pocket>  (850) 
nan

>  <ATP_Site>  (850) 
nan

>  <Peripheral>  (850) 
nan

>  <Num_H_Atoms_ProtBoundConf>  (850) 
nan

>  <Num_Resolved_Atoms>  (850) 
nan

>  <Num_Not_Resolved_Atoms>  (850) 
nan

$$$$
CHEMBL4875875
     RDKit          3D

  0  0  0  0  0  0  0  0  0  0999 V3000
M  V30 BEGIN CTAB
M  V30 COUNTS 51 53 0 0 0
M  V30 BEGIN ATOM
M  V30 1 C -1.447567 -2.314093 6.612392 0
M  V30 2 N -0.793208 -2.666625 5.369595 0
M  V30 3 C -0.214991 -3.913210 5.008779 0
M  V30 4 O -0.309748 -4.778431 5.908558 0
M  V30 5 C 0.418834 -4.143371 3.719442 0
M  V30 6 C 0.495556 -3.180541 2.766449 0
M  V30 7 C 1.106479 -3.463031 1.568575 0
M  V30 8 C 1.169130 -2.416175 0.534858 0
M  V30 9 C 2.386271 -2.135314 -0.048703 0
M  V30 10 C 2.518671 -1.158319 -1.009840 0
M  V30 11 C 1.407829 -0.443874 -1.398016 0
M  V30 12 N 1.230026 0.611742 -2.343884 0
M  V30 13 C 1.409894 1.831981 -1.649834 0
M  V30 14 O 1.686168 1.716660 -0.412926 0
M  V30 15 C 1.326229 3.222955 -2.149397 0 CFG=2
M  V30 16 O 1.708097 4.082893 -1.114250 0
M  V30 17 C -0.099920 3.516485 -2.491893 0
M  V30 18 C -0.260454 4.900258 -2.640115 0
M  V30 19 C -1.505078 5.416470 -2.956272 0
M  V30 20 F -1.720558 6.764856 -3.113132 0
M  V30 21 C -2.629842 4.641033 -3.140761 0
M  V30 22 C -2.425704 3.279009 -2.984834 0
M  V30 23 F -3.406954 2.339988 -3.125104 0
M  V30 24 C -1.207959 2.725177 -2.671192 0
M  V30 25 C 0.172409 -0.732865 -0.802601 0
M  V30 26 C 0.008156 -1.720116 0.176523 0
M  V30 27 C -1.318832 -2.008711 0.780955 0
M  V30 28 C 1.641911 -4.737529 1.346877 0
M  V30 29 N 1.552552 -5.690615 2.321001 0
M  V30 30 C 0.941723 -5.397182 3.507623 0
M  V30 31 N 0.938129 -6.495052 4.390302 0
M  V30 32 H -1.381878 -3.109662 7.387758 0
M  V30 33 H -2.521447 -2.076119 6.412803 0
M  V30 34 H -0.978010 -1.364920 6.977200 0
M  V30 35 H -0.779683 -1.859732 4.700239 0
M  V30 36 H 0.103169 -2.203515 2.903745 0
M  V30 37 H 3.303227 -2.647081 0.198190 0
M  V30 38 H 3.392506 -0.828925 -1.550512 0
M  V30 39 H 1.018050 0.720698 -3.362341 0
M  V30 40 H 1.938379 3.377586 -3.072125 0
M  V30 41 H 0.923215 4.180491 -0.495341 0
M  V30 42 H 0.507834 5.682655 -2.534849 0
M  V30 43 H -3.612134 4.972764 -3.384921 0
M  V30 44 H -0.966965 1.685533 -2.528540 0
M  V30 45 H -0.784785 -0.231456 -1.028304 0
M  V30 46 H -1.600187 -1.251471 1.534386 0
M  V30 47 H -2.096039 -1.928917 -0.021199 0
M  V30 48 H -1.314501 -3.052029 1.144877 0
M  V30 49 H 2.102973 -4.882181 0.389126 0
M  V30 50 H 0.306513 -7.219440 4.792124 0
M  V30 51 H -0.089783 -6.745436 4.303172 0
M  V30 END ATOM
M  V30 BEGIN BOND
M  V30 1 1 1 2
M  V30 2 1 2 3
M  V30 3 2 3 4
M  V30 4 1 3 5
M  V30 5 2 5 6
M  V30 6 1 6 7
M  V30 7 1 7 8
M  V30 8 2 8 9
M  V30 9 1 9 10
M  V30 10 2 10 11
M  V30 11 1 11 12
M  V30 12 1 12 13
M  V30 13 2 13 14
M  V30 14 1 13 15
M  V30 15 1 15 16
M  V30 16 1 15 17
M  V30 17 2 17 18
M  V30 18 1 18 19
M  V30 19 1 19 20
M  V30 20 2 19 21
M  V30 21 1 21 22
M  V30 22 1 22 23
M  V30 23 2 22 24
M  V30 24 1 11 25
M  V30 25 2 25 26
M  V30 26 1 26 27
M  V30 27 2 7 28
M  V30 28 1 28 29
M  V30 29 2 29 30
M  V30 30 1 30 31
M  V30 31 1 30 5
M  V30 32 1 26 8
M  V30 33 1 24 17
M  V30 34 1 1 32
M  V30 35 1 1 33
M  V30 36 1 1 34
M  V30 37 1 2 35
M  V30 38 1 6 36
M  V30 39 1 9 37
M  V30 40 1 10 38
M  V30 41 1 12 39
M  V30 42 1 15 40 CFG=3
M  V30 43 1 16 41
M  V30 44 1 18 42
M  V30 45 1 21 43
M  V30 46 1 24 44
M  V30 47 1 25 45
M  V30 48 1 27 46
M  V30 49 1 27 47
M  V30 50 1 27 48
M  V30 51 1 28 49
M  V30 52 1 31 50
M  V30 53 1 31 51
M  V30 END BOND
M  V30 END CTAB
M  END
>  <Dataset>  (851) 
ChEMBL_Kinases

>  <Ligand_Instance>  (851) 
nan

>  <PDB_ID>  (851) 
nan

>  <Standardized_SMILES>  (851) 
CNC(=O)c1cc(-c2ccc(NC(=O)[C@H](O)c3cc(F)cc(F)c3)cc2C)cnc1N

>  <Name>  (851) 
nan

>  <Pocket>  (851) 
nan

>  <ATP_Site>  (851) 
nan

>  <Peripheral>  (851) 
nan

>  <Num_H_Atoms_ProtBoundConf>  (851) 
nan

>  <Num_Resolved_Atoms>  (851) 
nan

>  <Num_Not_Resolved_Atoms>  (851) 
nan

$$$$
CHEMBL4875903
     RDKit          3D

  0  0  0  0  0  0  0  0  0  0999 V3000
M  V30 BEGIN CTAB
M  V30 COUNTS 63 66 0 0 0
M  V30 BEGIN ATOM
M  V30 1 C 5.055291 -1.721345 5.488755 0
M  V30 2 C 4.921231 -0.360519 4.921336 0
M  V30 3 O 4.033459 0.446173 5.352959 0
M  V30 4 N 5.727069 0.178039 3.880727 0
M  V30 5 C 5.328343 1.514842 3.576975 0
M  V30 6 C 4.353149 1.581420 2.594586 0
M  V30 7 C 3.872428 2.809847 2.199710 0
M  V30 8 C 2.857760 3.107214 1.194276 0
M  V30 9 O 2.425560 4.226061 0.842459 0
M  V30 10 N 2.274950 2.011238 0.519190 0
M  V30 11 C 1.288673 1.850734 -0.492621 0
M  V30 12 C 1.575096 1.827530 -1.827825 0
M  V30 13 N 0.651386 1.675492 -2.808701 0
M  V30 14 C -0.663489 1.533395 -2.472906 0
M  V30 15 C -1.063582 1.542035 -1.160709 0
M  V30 16 O -2.255107 1.419088 -0.713868 0
M  V30 17 C -3.473959 1.292670 -0.271342 0
M  V30 18 C -4.199120 -0.022783 -0.633846 0
M  V30 19 C -4.261810 -0.098192 -2.120614 0
M  V30 20 C -4.421325 -1.500765 -2.654507 0
M  V30 21 N -3.535883 -2.464184 -2.089253 0
M  V30 22 C -4.201345 -3.683777 -1.752835 0
M  V30 23 C -3.260496 -4.693838 -1.159373 0
M  V30 24 C -2.629036 -5.555911 -2.032337 0
M  V30 25 C -1.741796 -6.528368 -1.610814 0
M  V30 26 C -1.468395 -6.651646 -0.263996 0
M  V30 27 F -0.621162 -7.563825 0.250581 0
M  V30 28 C -2.099008 -5.788537 0.623235 0
M  V30 29 C -2.987953 -4.814643 0.198028 0
M  V30 30 C -2.711267 -1.906624 -1.063209 0
M  V30 31 C -3.486121 -1.173114 0.002835 0
M  V30 32 C -0.070421 1.702052 -0.187273 0
M  V30 33 C 4.396407 3.949642 2.815481 0
M  V30 34 C 5.372709 3.851335 3.796611 0
M  V30 35 N 5.823435 2.636715 4.162121 0
M  V30 36 H 5.830259 -1.689445 6.267045 0
M  V30 37 H 4.078523 -1.954136 5.998563 0
M  V30 38 H 5.319545 -2.492955 4.744512 0
M  V30 39 H 6.473546 -0.436900 3.485444 0
M  V30 40 H 3.913993 0.755138 2.088306 0
M  V30 41 H 2.484591 0.997862 0.653441 0
M  V30 42 H 2.597368 1.936038 -2.136198 0
M  V30 43 H -1.376430 1.415349 -3.274426 0
M  V30 44 H -4.130393 2.153906 -0.584886 0
M  V30 45 H -3.514430 1.378802 0.868832 0
M  V30 46 H -5.203991 0.044142 -0.162872 0
M  V30 47 H -5.208862 0.443683 -2.416854 0
M  V30 48 H -3.457459 0.480673 -2.596942 0
M  V30 49 H -5.496931 -1.789192 -2.527855 0
M  V30 50 H -4.245531 -1.464957 -3.753488 0
M  V30 51 H -5.039523 -3.558307 -1.040774 0
M  V30 52 H -4.618803 -4.104400 -2.690653 0
M  V30 53 H -2.831274 -5.476097 -3.107278 0
M  V30 54 H -1.260696 -7.190504 -2.312652 0
M  V30 55 H -1.893892 -5.871174 1.702133 0
M  V30 56 H -3.494551 -4.128225 0.863450 0
M  V30 57 H -2.056683 -1.150863 -1.566627 0
M  V30 58 H -2.009263 -2.646305 -0.638531 0
M  V30 59 H -2.741945 -0.793378 0.740740 0
M  V30 60 H -4.152610 -1.839081 0.576920 0
M  V30 61 H -0.283354 1.723062 0.893586 0
M  V30 62 H 4.079635 4.957097 2.570141 0
M  V30 63 H 5.778031 4.740144 4.273378 0
M  V30 END ATOM
M  V30 BEGIN BOND
M  V30 1 1 1 2
M  V30 2 2 2 3
M  V30 3 1 2 4
M  V30 4 1 4 5
M  V30 5 2 5 6
M  V30 6 1 6 7
M  V30 7 1 7 8
M  V30 8 2 8 9
M  V30 9 1 8 10
M  V30 10 1 10 11
M  V30 11 2 11 12
M  V30 12 1 12 13
M  V30 13 2 13 14
M  V30 14 1 14 15
M  V30 15 1 15 16
M  V30 16 1 16 17
M  V30 17 1 17 18
M  V30 18 1 18 19
M  V30 19 1 19 20
M  V30 20 1 20 21
M  V30 21 1 21 22
M  V30 22 1 22 23
M  V30 23 2 23 24
M  V30 24 1 24 25
M  V30 25 2 25 26
M  V30 26 1 26 27
M  V30 27 1 26 28
M  V30 28 2 28 29
M  V30 29 1 21 30
M  V30 30 1 30 31
M  V30 31 2 15 32
M  V30 32 2 7 33
M  V30 33 1 33 34
M  V30 34 2 34 35
M  V30 35 1 35 5
M  V30 36 1 32 11
M  V30 37 1 31 18
M  V30 38 1 29 23
M  V30 39 1 1 36
M  V30 40 1 1 37
M  V30 41 1 1 38
M  V30 42 1 4 39
M  V30 43 1 6 40
M  V30 44 1 10 41
M  V30 45 1 12 42
M  V30 46 1 14 43
M  V30 47 1 17 44
M  V30 48 1 17 45
M  V30 49 1 18 46
M  V30 50 1 19 47
M  V30 51 1 19 48
M  V30 52 1 20 49
M  V30 53 1 20 50
M  V30 54 1 22 51
M  V30 55 1 22 52
M  V30 56 1 24 53
M  V30 57 1 25 54
M  V30 58 1 28 55
M  V30 59 1 29 56
M  V30 60 1 30 57
M  V30 61 1 30 58
M  V30 62 1 31 59
M  V30 63 1 31 60
M  V30 64 1 32 61
M  V30 65 1 33 62
M  V30 66 1 34 63
M  V30 END BOND
M  V30 END CTAB
M  END
>  <Dataset>  (852) 
ChEMBL_Kinases

>  <Ligand_Instance>  (852) 
nan

>  <PDB_ID>  (852) 
nan

>  <Standardized_SMILES>  (852) 
CC(=O)Nc1cc(C(=O)Nc2cncc(OCC3CCN(Cc4ccc(F)cc4)CC3)c2)ccn1

>  <Name>  (852) 
nan

>  <Pocket>  (852) 
nan

>  <ATP_Site>  (852) 
nan

>  <Peripheral>  (852) 
nan

>  <Num_H_Atoms_ProtBoundConf>  (852) 
nan

>  <Num_Resolved_Atoms>  (852) 
nan

>  <Num_Not_Resolved_Atoms>  (852) 
nan

$$$$
CHEMBL3935195
     RDKit          3D

  0  0  0  0  0  0  0  0  0  0999 V3000
M  V30 BEGIN CTAB
M  V30 COUNTS 64 67 0 0 0
M  V30 BEGIN ATOM
M  V30 1 C 0.316332 -1.793894 5.088042 0
M  V30 2 C 1.377633 -1.428251 4.146653 0
M  V30 3 C 1.903149 -0.144304 4.308113 0
M  V30 4 C 2.906576 0.271826 3.456545 0
M  V30 5 C 3.506253 1.621295 3.575835 0
M  V30 6 C 3.399098 -0.542583 2.458263 0
M  V30 7 N 4.422486 -0.213167 1.536220 0
M  V30 8 C 5.784263 0.140433 1.931124 0
M  V30 9 C 3.981548 -0.264010 0.185974 0
M  V30 10 N 2.967024 0.552805 -0.192842 0
M  V30 11 C 2.523133 0.525112 -1.484298 0
M  V30 12 N 1.474805 1.321965 -2.015546 0
M  V30 13 C 0.122796 0.869852 -1.990781 0
M  V30 14 C -0.877820 1.643093 -2.511340 0
M  V30 15 C -2.186766 1.209798 -2.488627 0
M  V30 16 C -2.554718 -0.017152 -1.944099 0
M  V30 17 N -3.898036 -0.508653 -1.898769 0
M  V30 18 C -4.101461 -1.810085 -1.266956 0
M  V30 19 C -5.490178 -2.330284 -1.565566 0
M  V30 20 N -6.435938 -1.254437 -1.543582 0
M  V30 21 C -6.430852 -0.580587 -0.269566 0
M  V30 22 C -6.196903 -0.338720 -2.626214 0
M  V30 23 C -4.890948 0.388617 -2.507017 0
M  V30 24 C -1.491519 -0.737595 -1.440345 0
M  V30 25 C -0.167246 -0.354819 -1.436202 0
M  V30 26 N 3.096532 -0.316195 -2.380700 0
M  V30 27 C 4.114148 -1.141367 -2.018040 0
M  V30 28 C 4.588486 -1.134184 -0.703087 0
M  V30 29 F 5.605069 -1.953623 -0.325122 0
M  V30 30 C 2.837522 -1.798099 2.352234 0
M  V30 31 C 1.823284 -2.296775 3.168407 0
M  V30 32 C 1.257178 -3.645354 3.016130 0
M  V30 33 O -0.010012 -3.605169 2.402921 0
M  V30 34 H 0.633997 -1.429718 6.109211 0
M  V30 35 H -0.641105 -1.270155 4.904783 0
M  V30 36 H 0.223372 -2.884497 5.176708 0
M  V30 37 H 1.561267 0.535621 5.066114 0
M  V30 38 H 2.969541 2.231258 4.359064 0
M  V30 39 H 4.540083 1.488050 3.981638 0
M  V30 40 H 3.451555 2.223870 2.663231 0
M  V30 41 H 6.047258 -0.396437 2.877525 0
M  V30 42 H 6.528194 -0.168268 1.173316 0
M  V30 43 H 5.917040 1.242021 2.029424 0
M  V30 44 H 1.704698 2.253231 -2.429140 0
M  V30 45 H -0.671656 2.625646 -2.960242 0
M  V30 46 H -2.973403 1.831332 -2.904445 0
M  V30 47 H -3.911668 -1.752355 -0.177161 0
M  V30 48 H -3.400202 -2.586026 -1.677406 0
M  V30 49 H -5.775004 -3.071918 -0.780762 0
M  V30 50 H -5.522503 -2.816819 -2.569320 0
M  V30 51 H -6.053975 -1.229482 0.551795 0
M  V30 52 H -5.810092 0.351429 -0.333283 0
M  V30 53 H -7.487851 -0.329381 -0.011066 0
M  V30 54 H -6.190629 -0.925871 -3.579585 0
M  V30 55 H -7.005357 0.431498 -2.671343 0
M  V30 56 H -4.485507 0.613002 -3.524607 0
M  V30 57 H -4.959407 1.334074 -1.958500 0
M  V30 58 H -1.682371 -1.720353 -0.989297 0
M  V30 59 H 0.603792 -0.971519 -1.024901 0
M  V30 60 H 4.555405 -1.810906 -2.773040 0
M  V30 61 H 3.169426 -2.512040 1.585316 0
M  V30 62 H 1.149154 -4.209033 3.941578 0
M  V30 63 H 1.897985 -4.237208 2.319807 0
M  V30 64 H -0.446489 -2.759916 2.740538 0
M  V30 END ATOM
M  V30 BEGIN BOND
M  V30 1 1 1 2
M  V30 2 2 2 3
M  V30 3 1 3 4
M  V30 4 1 4 5
M  V30 5 2 4 6
M  V30 6 1 6 7
M  V30 7 1 7 8
M  V30 8 1 7 9
M  V30 9 2 9 10
M  V30 10 1 10 11
M  V30 11 1 11 12
M  V30 12 1 12 13
M  V30 13 2 13 14
M  V30 14 1 14 15
M  V30 15 2 15 16
M  V30 16 1 16 17
M  V30 17 1 17 18
M  V30 18 1 18 19
M  V30 19 1 19 20
M  V30 20 1 20 21
M  V30 21 1 20 22
M  V30 22 1 22 23
M  V30 23 1 16 24
M  V30 24 2 24 25
M  V30 25 2 11 26
M  V30 26 1 26 27
M  V30 27 2 27 28
M  V30 28 1 28 29
M  V30 29 1 6 30
M  V30 30 2 30 31
M  V30 31 1 31 32
M  V30 32 1 32 33
M  V30 33 1 31 2
M  V30 34 1 28 9
M  V30 35 1 25 13
M  V30 36 1 23 17
M  V30 37 1 1 34
M  V30 38 1 1 35
M  V30 39 1 1 36
M  V30 40 1 3 37
M  V30 41 1 5 38
M  V30 42 1 5 39
M  V30 43 1 5 40
M  V30 44 1 8 41
M  V30 45 1 8 42
M  V30 46 1 8 43
M  V30 47 1 12 44
M  V30 48 1 14 45
M  V30 49 1 15 46
M  V30 50 1 18 47
M  V30 51 1 18 48
M  V30 52 1 19 49
M  V30 53 1 19 50
M  V30 54 1 21 51
M  V30 55 1 21 52
M  V30 56 1 21 53
M  V30 57 1 22 54
M  V30 58 1 22 55
M  V30 59 1 23 56
M  V30 60 1 23 57
M  V30 61 1 24 58
M  V30 62 1 25 59
M  V30 63 1 27 60
M  V30 64 1 30 61
M  V30 65 1 32 62
M  V30 66 1 32 63
M  V30 67 1 33 64
M  V30 END BOND
M  V30 END CTAB
M  END
>  <Dataset>  (853) 
ChEMBL_Kinases

>  <Ligand_Instance>  (853) 
nan

>  <PDB_ID>  (853) 
nan

>  <Standardized_SMILES>  (853) 
Cc1cc(C)c(N(C)c2nc(Nc3ccc(N4CCN(C)CC4)cc3)ncc2F)cc1CO

>  <Name>  (853) 
nan

>  <Pocket>  (853) 
nan

>  <ATP_Site>  (853) 
nan

>  <Peripheral>  (853) 
nan

>  <Num_H_Atoms_ProtBoundConf>  (853) 
nan

>  <Num_Resolved_Atoms>  (853) 
nan

>  <Num_Not_Resolved_Atoms>  (853) 
nan

$$$$
CHEMBL3934903
     RDKit          3D

  0  0  0  0  0  0  0  0  0  0999 V3000
M  V30 BEGIN CTAB
M  V30 COUNTS 57 61 0 0 0
M  V30 BEGIN ATOM
M  V30 1 C -0.890326 -0.889305 2.939478 0
M  V30 2 C 0.228596 -1.474211 2.071302 0
M  V30 3 C 1.513592 -0.785287 2.357767 0
M  V30 4 N 2.485836 -0.556454 3.262758 0
M  V30 5 N 3.420781 0.236955 2.786254 0
M  V30 6 C 3.126564 0.597499 1.502796 0
M  V30 7 N 3.867208 1.439063 0.624399 0
M  V30 8 C 3.455447 2.795495 0.769857 0
M  V30 9 O 2.539887 2.922457 1.636572 0
M  V30 10 C 4.017478 3.908457 0.013845 0
M  V30 11 C 3.494647 5.155575 0.287838 0
M  V30 12 C 3.950432 6.277358 -0.366708 0
M  V30 13 C 4.953851 6.137984 -1.316758 0
M  V30 14 C 5.457781 4.891568 -1.572486 0
M  V30 15 N 4.995135 3.811197 -0.919039 0
M  V30 16 C 1.937006 -0.054308 1.268876 0
M  V30 17 C 0.962334 -0.195718 0.151718 0
M  V30 18 N -0.059034 -1.056005 0.703350 0
M  V30 19 C -1.106006 -1.286271 -0.225991 0
M  V30 20 O -0.622337 -0.586851 -1.141963 0
M  V30 21 N -2.270819 -2.046721 -0.115741 0
M  V30 22 C -2.716978 -2.831166 1.026641 0
M  V30 23 C -3.692349 -3.888530 0.653864 0 CFG=2
M  V30 24 C -3.453058 -5.066685 1.607759 0
M  V30 25 C -3.141375 -6.261178 0.747859 0
M  V30 26 C -2.786267 -5.646569 -0.588268 0
M  V30 27 N -3.563495 -4.455050 -0.648412 0
M  V30 28 C -3.231884 -3.533649 -1.688067 0
M  V30 29 C -3.177766 -2.099672 -1.230675 0 CFG=2
M  V30 30 C -2.843761 -1.186970 -2.360984 0
M  V30 31 H -1.522073 -0.173327 2.374526 0
M  V30 32 H -0.405720 -0.325066 3.760808 0
M  V30 33 H -1.514838 -1.677845 3.399152 0
M  V30 34 H 0.360654 -2.546198 2.194795 0
M  V30 35 H 2.516335 -0.952919 4.239263 0
M  V30 36 H 4.631947 1.223213 -0.078566 0
M  V30 37 H 2.710411 5.384228 1.008018 0
M  V30 38 H 3.586356 7.299692 -0.204629 0
M  V30 39 H 5.326465 7.003304 -1.842263 0
M  V30 40 H 6.229242 4.768584 -2.299862 0
M  V30 41 H 1.433744 -0.758794 -0.707030 0
M  V30 42 H 0.597603 0.752618 -0.250448 0
M  V30 43 H -1.844953 -3.256942 1.578378 0
M  V30 44 H -3.215146 -2.123948 1.721665 0
M  V30 45 H -4.748171 -3.573789 0.800335 0
M  V30 46 H -2.578639 -4.902028 2.267222 0
M  V30 47 H -4.324455 -5.247179 2.260311 0
M  V30 48 H -3.996284 -6.976971 0.681414 0
M  V30 49 H -2.278058 -6.851451 1.123169 0
M  V30 50 H -3.163522 -6.376391 -1.362260 0
M  V30 51 H -1.715851 -5.548254 -0.769652 0
M  V30 52 H -2.269379 -3.836549 -2.156686 0
M  V30 53 H -4.006341 -3.599284 -2.480337 0
M  V30 54 H -4.206584 -1.830211 -0.889658 0
M  V30 55 H -2.758132 -0.137264 -1.957691 0
M  V30 56 H -3.713589 -1.128323 -3.055884 0
M  V30 57 H -1.920128 -1.395661 -2.900840 0
M  V30 END ATOM
M  V30 BEGIN BOND
M  V30 1 1 1 2
M  V30 2 1 2 3
M  V30 3 1 3 4
M  V30 4 1 4 5
M  V30 5 2 5 6
M  V30 6 1 6 7
M  V30 7 1 7 8
M  V30 8 2 8 9
M  V30 9 1 8 10
M  V30 10 2 10 11
M  V30 11 1 11 12
M  V30 12 2 12 13
M  V30 13 1 13 14
M  V30 14 2 14 15
M  V30 15 1 6 16
M  V30 16 1 16 17
M  V30 17 1 17 18
M  V30 18 1 18 19
M  V30 19 2 19 20
M  V30 20 1 19 21
M  V30 21 1 21 22
M  V30 22 1 22 23
M  V30 23 1 23 24
M  V30 24 1 24 25
M  V30 25 1 25 26
M  V30 26 1 26 27
M  V30 27 1 27 28
M  V30 28 1 28 29
M  V30 29 1 29 30
M  V30 30 1 18 2
M  V30 31 1 29 21
M  V30 32 2 16 3
M  V30 33 1 27 23
M  V30 34 1 15 10
M  V30 35 1 1 31
M  V30 36 1 1 32
M  V30 37 1 1 33
M  V30 38 1 2 34
M  V30 39 1 4 35
M  V30 40 1 7 36
M  V30 41 1 11 37
M  V30 42 1 12 38
M  V30 43 1 13 39
M  V30 44 1 14 40
M  V30 45 1 17 41
M  V30 46 1 17 42
M  V30 47 1 22 43
M  V30 48 1 22 44
M  V30 49 1 23 45 CFG=3
M  V30 50 1 24 46
M  V30 51 1 24 47
M  V30 52 1 25 48
M  V30 53 1 25 49
M  V30 54 1 26 50
M  V30 55 1 26 51
M  V30 56 1 28 52
M  V30 57 1 28 53
M  V30 58 1 29 54 CFG=1
M  V30 59 1 30 55
M  V30 60 1 30 56
M  V30 61 1 30 57
M  V30 END BOND
M  V30 END CTAB
M  END
>  <Dataset>  (854) 
ChEMBL_Kinases

>  <Ligand_Instance>  (854) 
nan

>  <PDB_ID>  (854) 
nan

>  <Standardized_SMILES>  (854) 
CC1c2[nH]nc(NC(=O)c3ccccn3)c2CN1C(=O)N1C[C@@H]2CCCN2C[C@@H]1C

>  <Name>  (854) 
nan

>  <Pocket>  (854) 
nan

>  <ATP_Site>  (854) 
nan

>  <Peripheral>  (854) 
nan

>  <Num_H_Atoms_ProtBoundConf>  (854) 
nan

>  <Num_Resolved_Atoms>  (854) 
nan

>  <Num_Not_Resolved_Atoms>  (854) 
nan

$$$$
CHEMBL3934741
     RDKit          3D

  0  0  0  0  0  0  0  0  0  0999 V3000
M  V30 BEGIN CTAB
M  V30 COUNTS 58 62 0 0 0
M  V30 BEGIN ATOM
M  V30 1 N 6.581585 2.036610 7.814296 0
M  V30 2 C 7.589414 1.746487 6.826461 0
M  V30 3 O 8.842470 1.821393 6.887296 0
M  V30 4 C 7.077046 1.284180 5.525668 0
M  V30 5 C 7.967242 0.950196 4.499095 0
M  V30 6 C 7.447055 0.519474 3.288455 0
M  V30 7 C 6.112765 0.393600 3.014641 0
M  V30 8 N 5.340506 0.016853 1.975745 0
M  V30 9 C 4.037618 0.097707 2.296347 0
M  V30 10 C 2.864325 -0.215787 1.470491 0
M  V30 11 C 1.574276 -0.055995 1.996317 0
M  V30 12 C 0.498013 -0.364011 1.188258 0
M  V30 13 C 0.630455 -0.820429 -0.108238 0
M  V30 14 O -0.343146 -1.158598 -1.006552 0
M  V30 15 C -1.735554 -1.115012 -0.819912 0
M  V30 16 C -2.360610 -2.492595 -0.841569 0
M  V30 17 C -3.843537 -2.483693 -1.093131 0
M  V30 18 N -4.390905 -1.165396 -1.060317 0
M  V30 19 C -5.814920 -1.231162 -1.295112 0
M  V30 20 C -6.202662 -1.830627 -2.573047 0
M  V30 21 C -6.351938 -1.115074 -3.724520 0
M  V30 22 C -6.723247 -1.637174 -4.967084 0
M  V30 23 C -6.950342 -3.016385 -4.979850 0
M  V30 24 C -6.817675 -3.801796 -3.850881 0
M  V30 25 C -6.444806 -3.208026 -2.652393 0
M  V30 26 C -3.771244 -0.383012 -2.087986 0
M  V30 27 C -2.286404 -0.212083 -1.876878 0
M  V30 28 C 1.922786 -0.977897 -0.627848 0
M  V30 29 C 3.035597 -0.672027 0.171495 0
M  V30 30 N 3.978677 0.535502 3.567690 0
M  V30 31 C 5.232617 0.728191 4.042055 0
M  V30 32 C 5.737094 1.156607 5.247639 0
M  V30 33 H 6.873576 3.011006 8.051665 0
M  V30 34 H 5.852175 1.354642 8.087276 0
M  V30 35 H 9.034892 1.026324 4.646065 0
M  V30 36 H 8.085056 0.243941 2.447660 0
M  V30 37 H 5.732033 -0.293841 1.050613 0
M  V30 38 H 1.408946 0.297453 3.004731 0
M  V30 39 H -0.520993 -0.262532 1.532916 0
M  V30 40 H -1.974304 -0.710242 0.189624 0
M  V30 41 H -2.106686 -3.024836 0.113639 0
M  V30 42 H -1.883839 -3.049750 -1.642464 0
M  V30 43 H -4.070537 -2.902335 -2.116751 0
M  V30 44 H -4.374253 -3.199733 -0.406856 0
M  V30 45 H -6.210812 -0.181407 -1.248557 0
M  V30 46 H -6.274731 -1.830964 -0.467074 0
M  V30 47 H -6.180143 -0.037142 -3.741414 0
M  V30 48 H -6.825366 -1.016509 -5.848935 0
M  V30 49 H -7.245043 -3.455380 -5.945421 0
M  V30 50 H -7.003680 -4.865686 -3.908715 0
M  V30 51 H -6.328813 -3.790180 -1.736035 0
M  V30 52 H -3.869564 -0.986177 -3.036439 0
M  V30 53 H -4.292235 0.591029 -2.155320 0
M  V30 54 H -1.697264 -0.432642 -2.809931 0
M  V30 55 H -2.064982 0.841508 -1.635843 0
M  V30 56 H 2.162931 -1.331436 -1.641122 0
M  V30 57 H 4.055490 -0.778617 -0.188439 0
M  V30 58 H 5.030204 1.415633 6.045756 0
M  V30 END ATOM
M  V30 BEGIN BOND
M  V30 1 1 1 2
M  V30 2 2 2 3
M  V30 3 1 2 4
M  V30 4 2 4 5
M  V30 5 1 5 6
M  V30 6 2 6 7
M  V30 7 1 7 8
M  V30 8 1 8 9
M  V30 9 1 9 10
M  V30 10 2 10 11
M  V30 11 1 11 12
M  V30 12 2 12 13
M  V30 13 1 13 14
M  V30 14 1 14 15
M  V30 15 1 15 16
M  V30 16 1 16 17
M  V30 17 1 17 18
M  V30 18 1 18 19
M  V30 19 1 19 20
M  V30 20 2 20 21
M  V30 21 1 21 22
M  V30 22 2 22 23
M  V30 23 1 23 24
M  V30 24 2 24 25
M  V30 25 1 18 26
M  V30 26 1 26 27
M  V30 27 1 13 28
M  V30 28 2 28 29
M  V30 29 2 9 30
M  V30 30 1 30 31
M  V30 31 2 31 32
M  V30 32 1 32 4
M  V30 33 1 31 7
M  V30 34 1 29 10
M  V30 35 1 27 15
M  V30 36 1 25 20
M  V30 37 1 1 33
M  V30 38 1 1 34
M  V30 39 1 5 35
M  V30 40 1 6 36
M  V30 41 1 8 37
M  V30 42 1 11 38
M  V30 43 1 12 39
M  V30 44 1 15 40
M  V30 45 1 16 41
M  V30 46 1 16 42
M  V30 47 1 17 43
M  V30 48 1 17 44
M  V30 49 1 19 45
M  V30 50 1 19 46
M  V30 51 1 21 47
M  V30 52 1 22 48
M  V30 53 1 23 49
M  V30 54 1 24 50
M  V30 55 1 25 51
M  V30 56 1 26 52
M  V30 57 1 26 53
M  V30 58 1 27 54
M  V30 59 1 27 55
M  V30 60 1 28 56
M  V30 61 1 29 57
M  V30 62 1 32 58
M  V30 END BOND
M  V30 END CTAB
M  END
>  <Dataset>  (855) 
ChEMBL_Kinases

>  <Ligand_Instance>  (855) 
nan

>  <PDB_ID>  (855) 
nan

>  <Standardized_SMILES>  (855) 
NC(=O)c1ccc2[nH]c(-c3ccc(OC4CCN(Cc5ccccc5)CC4)cc3)nc2c1

>  <Name>  (855) 
nan

>  <Pocket>  (855) 
nan

>  <ATP_Site>  (855) 
nan

>  <Peripheral>  (855) 
nan

>  <Num_H_Atoms_ProtBoundConf>  (855) 
nan

>  <Num_Resolved_Atoms>  (855) 
nan

>  <Num_Not_Resolved_Atoms>  (855) 
nan

$$$$
CHEMBL3960209
     RDKit          3D

  0  0  0  0  0  0  0  0  0  0999 V3000
M  V30 BEGIN CTAB
M  V30 COUNTS 46 49 0 0 0
M  V30 BEGIN ATOM
M  V30 1 O -0.501433 -3.660965 3.031947 0
M  V30 2 C -0.523503 -2.431050 2.891319 0
M  V30 3 C 0.343372 -1.862460 1.838265 0
M  V30 4 C 1.104240 -2.616902 1.082629 0
M  V30 5 C 1.993063 -2.170515 0.021284 0
M  V30 6 C 2.758853 -3.053452 -0.722647 0
M  V30 7 N 3.575051 -2.629826 -1.699109 0
M  V30 8 C 3.735055 -1.342196 -2.052556 0
M  V30 9 N 4.476990 -0.724084 -2.971571 0
M  V30 10 C 4.227142 0.600048 -2.868233 0
M  V30 11 C 3.298466 0.805804 -1.849671 0
M  V30 12 C 2.788448 2.108249 -1.450078 0
M  V30 13 C 2.389405 3.034789 -2.413194 0
M  V30 14 C 1.897293 4.290713 -2.043132 0
M  V30 15 C 1.794349 4.645395 -0.701230 0
M  V30 16 C 2.184820 3.740419 0.263802 0
M  V30 17 C 2.665140 2.511750 -0.136441 0
M  V30 18 C 2.992078 -0.436657 -1.337357 0
M  V30 19 C 2.148784 -0.846935 -0.332175 0
M  V30 20 N -1.317145 -1.577981 3.670588 0
M  V30 21 C -2.144144 -2.167841 4.681596 0
M  V30 22 C -3.153818 -3.147921 4.157949 0
M  V30 23 C -4.103173 -2.539370 3.188601 0
M  V30 24 C -5.324462 -1.930862 3.434621 0
M  V30 25 N -5.834545 -1.526016 2.246936 0
M  V30 26 C -4.947406 -1.875935 1.279574 0
M  V30 27 N -3.892265 -2.493168 1.850605 0
M  V30 28 H 0.376917 -0.797118 1.657150 0
M  V30 29 H 1.058940 -3.679227 1.276582 0
M  V30 30 H 2.680692 -4.117197 -0.491506 0
M  V30 31 H 5.147318 -1.165733 -3.667335 0
M  V30 32 H 4.692311 1.370217 -3.495910 0
M  V30 33 H 2.448356 2.810974 -3.466354 0
M  V30 34 H 1.577836 5.036501 -2.758883 0
M  V30 35 H 1.420311 5.603849 -0.367172 0
M  V30 36 H 2.104917 4.015340 1.300484 0
M  V30 37 H 2.958020 1.838003 0.653751 0
M  V30 38 H 1.593243 -0.080503 0.190482 0
M  V30 39 H -1.283949 -0.540180 3.493554 0
M  V30 40 H -2.718267 -1.342552 5.168392 0
M  V30 41 H -1.581710 -2.679315 5.480790 0
M  V30 42 H -2.719567 -4.098549 3.821065 0
M  V30 43 H -3.791932 -3.423281 5.048632 0
M  V30 44 H -5.733633 -1.836080 4.451129 0
M  V30 45 H -6.760720 -1.045836 2.273265 0
M  V30 46 H -5.211441 -1.618812 0.257467 0
M  V30 END ATOM
M  V30 BEGIN BOND
M  V30 1 2 1 2
M  V30 2 1 2 3
M  V30 3 2 3 4
M  V30 4 1 4 5
M  V30 5 2 5 6
M  V30 6 1 6 7
M  V30 7 2 7 8
M  V30 8 1 8 9
M  V30 9 1 9 10
M  V30 10 2 10 11
M  V30 11 1 11 12
M  V30 12 2 12 13
M  V30 13 1 13 14
M  V30 14 2 14 15
M  V30 15 1 15 16
M  V30 16 2 16 17
M  V30 17 1 11 18
M  V30 18 2 18 19
M  V30 19 1 2 20
M  V30 20 1 20 21
M  V30 21 1 21 22
M  V30 22 1 22 23
M  V30 23 2 23 24
M  V30 24 1 24 25
M  V30 25 1 25 26
M  V30 26 2 26 27
M  V30 27 1 19 5
M  V30 28 1 27 23
M  V30 29 1 18 8
M  V30 30 1 17 12
M  V30 31 1 3 28
M  V30 32 1 4 29
M  V30 33 1 6 30
M  V30 34 1 9 31
M  V30 35 1 10 32
M  V30 36 1 13 33
M  V30 37 1 14 34
M  V30 38 1 15 35
M  V30 39 1 16 36
M  V30 40 1 17 37
M  V30 41 1 19 38
M  V30 42 1 20 39
M  V30 43 1 21 40
M  V30 44 1 21 41
M  V30 45 1 22 42
M  V30 46 1 22 43
M  V30 47 1 24 44
M  V30 48 1 25 45
M  V30 49 1 26 46
M  V30 END BOND
M  V30 END CTAB
M  END
>  <Dataset>  (856) 
ChEMBL_Kinases

>  <Ligand_Instance>  (856) 
nan

>  <PDB_ID>  (856) 
nan

>  <Standardized_SMILES>  (856) 
O=C(/C=C/c1cnc2[nH]cc(-c3ccccc3)c2c1)NCCc1c[nH]cn1

>  <Name>  (856) 
nan

>  <Pocket>  (856) 
nan

>  <ATP_Site>  (856) 
nan

>  <Peripheral>  (856) 
nan

>  <Num_H_Atoms_ProtBoundConf>  (856) 
nan

>  <Num_Resolved_Atoms>  (856) 
nan

>  <Num_Not_Resolved_Atoms>  (856) 
nan

$$$$
CHEMBL3934652
     RDKit          3D

  0  0  0  0  0  0  0  0  0  0999 V3000
M  V30 BEGIN CTAB
M  V30 COUNTS 40 43 0 0 0
M  V30 BEGIN ATOM
M  V30 1 O -1.588433 -6.392551 4.727814 0
M  V30 2 C -0.878207 -5.210626 4.762777 0
M  V30 3 C -0.092593 -4.895951 5.853698 0
M  V30 4 C 0.613229 -3.710359 5.876294 0
M  V30 5 C 0.587997 -2.789168 4.853640 0
M  V30 6 C -0.202691 -3.113805 3.764087 0
M  V30 7 C -0.306924 -2.200244 2.608035 0
M  V30 8 C 0.757460 -1.407625 2.242007 0
M  V30 9 C 0.618831 -0.568856 1.160275 0
M  V30 10 C -0.555705 -0.517303 0.453702 0
M  V30 11 C -0.864192 0.252436 -0.635820 0
M  V30 12 C -0.201199 1.231705 -1.453786 0
M  V30 13 C 0.951273 1.805607 -1.541030 0
M  V30 14 C 1.469929 2.808848 -2.460577 0
M  V30 15 C 2.773901 3.228806 -2.301946 0
M  V30 16 C 3.296664 4.178229 -3.153856 0
M  V30 17 C 2.533164 4.717741 -4.167264 0
M  V30 18 C 1.222729 4.332190 -4.369131 0
M  V30 19 C 0.731410 3.365912 -3.481916 0
M  V30 20 N -2.140031 -0.107882 -0.902423 0
M  V30 21 N -2.541334 -1.013410 -0.038620 0
M  V30 22 C -1.592295 -1.322860 0.850469 0
M  V30 23 C -1.519707 -2.182483 1.920698 0
M  V30 24 C -0.920315 -4.304570 3.725483 0
M  V30 25 H -1.826148 -6.756264 3.811311 0
M  V30 26 H -0.049698 -5.595968 6.674408 0
M  V30 27 H 1.222568 -3.480554 6.737900 0
M  V30 28 H 1.129751 -1.858494 4.850613 0
M  V30 29 H 1.664330 -1.466537 2.811291 0
M  V30 30 H 1.461149 0.036598 0.898635 0
M  V30 31 H -0.769186 1.688451 -2.284118 0
M  V30 32 H 1.615998 1.443273 -0.774791 0
M  V30 33 H 3.419184 2.852665 -1.539447 0
M  V30 34 H 4.313225 4.513507 -3.039972 0
M  V30 35 H 2.973372 5.469010 -4.828370 0
M  V30 36 H 0.598421 4.736431 -5.154337 0
M  V30 37 H -0.280949 3.079324 -3.651002 0
M  V30 38 H -3.519716 -1.404826 -0.104920 0
M  V30 39 H -2.372486 -2.774872 2.162201 0
M  V30 40 H -1.529296 -4.513972 2.843818 0
M  V30 END ATOM
M  V30 BEGIN BOND
M  V30 1 1 1 2
M  V30 2 2 2 3
M  V30 3 1 3 4
M  V30 4 2 4 5
M  V30 5 1 5 6
M  V30 6 1 6 7
M  V30 7 2 7 8
M  V30 8 1 8 9
M  V30 9 2 9 10
M  V30 10 1 10 11
M  V30 11 1 11 12
M  V30 12 2 12 13
M  V30 13 1 13 14
M  V30 14 2 14 15
M  V30 15 1 15 16
M  V30 16 2 16 17
M  V30 17 1 17 18
M  V30 18 2 18 19
M  V30 19 2 11 20
M  V30 20 1 20 21
M  V30 21 1 21 22
M  V30 22 2 22 23
M  V30 23 2 6 24
M  V30 24 1 24 2
M  V30 25 1 23 7
M  V30 26 1 22 10
M  V30 27 1 19 14
M  V30 28 1 1 25
M  V30 29 1 3 26
M  V30 30 1 4 27
M  V30 31 1 5 28
M  V30 32 1 8 29
M  V30 33 1 9 30
M  V30 34 1 12 31
M  V30 35 1 13 32
M  V30 36 1 15 33
M  V30 37 1 16 34
M  V30 38 1 17 35
M  V30 39 1 18 36
M  V30 40 1 19 37
M  V30 41 1 21 38
M  V30 42 1 23 39
M  V30 43 1 24 40
M  V30 END BOND
M  V30 END CTAB
M  END
>  <Dataset>  (857) 
ChEMBL_Kinases

>  <Ligand_Instance>  (857) 
nan

>  <PDB_ID>  (857) 
nan

>  <Standardized_SMILES>  (857) 
Oc1cccc(-c2ccc3c(/C=C/c4ccccc4)n[nH]c3c2)c1

>  <Name>  (857) 
nan

>  <Pocket>  (857) 
nan

>  <ATP_Site>  (857) 
nan

>  <Peripheral>  (857) 
nan

>  <Num_H_Atoms_ProtBoundConf>  (857) 
nan

>  <Num_Resolved_Atoms>  (857) 
nan

>  <Num_Not_Resolved_Atoms>  (857) 
nan

$$$$
CHEMBL3934521
     RDKit          3D

  0  0  0  0  0  0  0  0  0  0999 V3000
M  V30 BEGIN CTAB
M  V30 COUNTS 42 45 0 0 0
M  V30 BEGIN ATOM
M  V30 1 C -1.435741 -2.153506 -0.482654 0
M  V30 2 C -0.660629 -1.375164 -1.547356 0 CFG=1
M  V30 3 C -0.564634 -2.295969 -2.758157 0
M  V30 4 O 0.121874 -1.686106 -3.785486 0
M  V30 5 N -1.407581 -0.203407 -1.891076 0
M  V30 6 C -2.488505 -0.281444 -2.700477 0
M  V30 7 N -2.997519 0.956078 -2.857480 0
M  V30 8 N -2.261038 1.802269 -2.166504 0
M  V30 9 C -1.290520 1.117801 -1.572502 0
M  V30 10 C -0.198999 1.545554 -0.693789 0
M  V30 11 C 0.385162 2.785279 -0.841057 0
M  V30 12 C 1.415919 3.205528 -0.021228 0
M  V30 13 C 1.885289 2.376584 0.975437 0
M  V30 14 C 1.291767 1.137277 1.112670 0
M  V30 15 N 1.588789 0.093428 2.060619 0
M  V30 16 C 0.850335 0.137301 3.317217 0
M  V30 17 C 1.397890 -1.061856 4.037624 0
M  V30 18 C 1.119739 -1.597060 5.292252 0
M  V30 19 C 1.756337 -2.738849 5.772432 0
M  V30 20 C 2.689035 -3.328479 4.941923 0
M  V30 21 C 2.998716 -2.835500 3.690792 0
M  V30 22 C 2.340373 -1.700797 3.259476 0
M  V30 23 C 2.498516 -1.001401 1.986588 0
M  V30 24 O 3.218227 -1.196269 0.977350 0
M  V30 25 N 0.289820 0.771116 0.289888 0
M  V30 26 H -2.285418 -2.684747 -0.966208 0
M  V30 27 H -0.778375 -2.941759 -0.062939 0
M  V30 28 H -1.723568 -1.505575 0.355107 0
M  V30 29 H 0.342684 -1.126675 -1.147484 0
M  V30 30 H -0.020659 -3.226575 -2.497226 0
M  V30 31 H -1.601836 -2.563758 -3.027567 0
M  V30 32 H -0.084784 -0.712378 -3.856743 0
M  V30 33 H -3.009745 -1.082087 -3.225004 0
M  V30 34 H 0.064341 3.477483 -1.599030 0
M  V30 35 H 1.915562 4.159469 -0.082172 0
M  V30 36 H 2.676904 2.546161 1.698640 0
M  V30 37 H 1.202496 1.073211 3.837106 0
M  V30 38 H -0.231863 0.115453 3.202507 0
M  V30 39 H 0.382839 -1.090121 5.890227 0
M  V30 40 H 1.536038 -3.146570 6.743220 0
M  V30 41 H 3.196521 -4.220671 5.299189 0
M  V30 42 H 3.741131 -3.335815 3.073588 0
M  V30 END ATOM
M  V30 BEGIN BOND
M  V30 1 1 1 2
M  V30 2 1 2 3
M  V30 3 1 3 4
M  V30 4 1 2 5
M  V30 5 1 5 6
M  V30 6 2 6 7
M  V30 7 1 7 8
M  V30 8 2 8 9
M  V30 9 1 9 10
M  V30 10 2 10 11
M  V30 11 1 11 12
M  V30 12 2 12 13
M  V30 13 1 13 14
M  V30 14 1 14 15
M  V30 15 1 15 16
M  V30 16 1 16 17
M  V30 17 2 17 18
M  V30 18 1 18 19
M  V30 19 2 19 20
M  V30 20 1 20 21
M  V30 21 2 21 22
M  V30 22 1 22 23
M  V30 23 2 23 24
M  V30 24 2 14 25
M  V30 25 1 9 5
M  V30 26 1 25 10
M  V30 27 1 23 15
M  V30 28 1 22 17
M  V30 29 1 1 26
M  V30 30 1 1 27
M  V30 31 1 1 28
M  V30 32 1 2 29 CFG=1
M  V30 33 1 3 30
M  V30 34 1 3 31
M  V30 35 1 4 32
M  V30 36 1 6 33
M  V30 37 1 11 34
M  V30 38 1 12 35
M  V30 39 1 13 36
M  V30 40 1 16 37
M  V30 41 1 16 38
M  V30 42 1 18 39
M  V30 43 1 19 40
M  V30 44 1 20 41
M  V30 45 1 21 42
M  V30 END BOND
M  V30 END CTAB
M  END
>  <Dataset>  (858) 
ChEMBL_Kinases

>  <Ligand_Instance>  (858) 
nan

>  <PDB_ID>  (858) 
nan

>  <Standardized_SMILES>  (858) 
C[C@@H](CO)n1cnnc1-c1cccc(N2Cc3ccccc3C2=O)n1

>  <Name>  (858) 
nan

>  <Pocket>  (858) 
nan

>  <ATP_Site>  (858) 
nan

>  <Peripheral>  (858) 
nan

>  <Num_H_Atoms_ProtBoundConf>  (858) 
nan

>  <Num_Resolved_Atoms>  (858) 
nan

>  <Num_Not_Resolved_Atoms>  (858) 
nan

$$$$
CHEMBL3934515
     RDKit          3D

  0  0  0  0  0  0  0  0  0  0999 V3000
M  V30 BEGIN CTAB
M  V30 COUNTS 74 79 0 0 0
M  V30 BEGIN ATOM
M  V30 1 C 3.739722 -0.768572 1.828020 0
M  V30 2 C 3.232554 -0.651231 0.425893 0 CFG=1
M  V30 3 C 3.490361 -1.940228 -0.301388 0
M  V30 4 N 2.313272 -2.755171 -0.403381 0
M  V30 5 C 2.715347 -4.142587 -0.521227 0
M  V30 6 C 3.408328 -4.445806 -1.838953 0
M  V30 7 C 2.507342 -4.154489 -3.002307 0
M  V30 8 C 2.075734 -5.491697 -3.612588 0
M  V30 9 O 3.266107 -6.046344 -4.107819 0
M  V30 10 C 3.951194 -6.597453 -3.056269 0
M  V30 11 C 3.976892 -5.815594 -1.793514 0
M  V30 12 C 1.477169 -2.659415 0.776093 0
M  V30 13 C 1.194951 -1.268938 1.231027 0
M  V30 14 N 1.817975 -0.311615 0.336910 0
M  V30 15 C 1.479338 0.787455 -0.542715 0
M  V30 16 O 2.462030 1.349039 -1.153191 0
M  V30 17 N 0.177857 1.327469 -0.817105 0
M  V30 18 C -1.210913 1.114461 -0.442855 0
M  V30 19 C -1.615756 2.500728 -0.029690 0
M  V30 20 C -2.402845 3.292385 0.815096 0
M  V30 21 N -3.256679 2.669400 1.766604 0
M  V30 22 C -4.554425 2.398300 1.289060 0
M  V30 23 O -4.815742 2.727266 0.103705 0
M  V30 24 C -5.562648 1.761769 2.127639 0
M  V30 25 C -6.852563 1.461893 1.751894 0
M  V30 26 O -7.410720 0.899959 2.800454 0
M  V30 27 C -6.559078 0.832852 3.791139 0
M  V30 28 C -6.704058 0.289132 5.177658 0
M  V30 29 C -5.956881 0.913534 6.282390 0
M  V30 30 C -5.539746 -0.439595 5.746022 0
M  V30 31 N -5.376195 1.370253 3.400679 0
M  V30 32 N -2.116076 4.561167 0.471221 0
M  V30 33 N -1.225816 4.589991 -0.505562 0
M  V30 34 C -0.889966 3.338229 -0.844765 0
M  V30 35 C -0.078791 2.419329 -1.710941 0
M  V30 36 C -0.925900 1.987153 -2.862137 0
M  V30 37 C 1.155859 3.120871 -2.224044 0
M  V30 38 H 3.289470 -0.039591 2.538748 0
M  V30 39 H 3.605738 -1.772621 2.278111 0
M  V30 40 H 4.848766 -0.584978 1.889044 0
M  V30 41 H 3.866373 0.135639 -0.073806 0
M  V30 42 H 3.872859 -1.756165 -1.326272 0
M  V30 43 H 4.269620 -2.562733 0.206836 0
M  V30 44 H 1.800797 -4.766794 -0.461311 0
M  V30 45 H 3.343587 -4.386893 0.342837 0
M  V30 46 H 4.251919 -3.707036 -1.891673 0
M  V30 47 H 3.083955 -3.644957 -3.828778 0
M  V30 48 H 1.660123 -3.498334 -2.767827 0
M  V30 49 H 1.398540 -5.349718 -4.455798 0
M  V30 50 H 1.713102 -6.184969 -2.826888 0
M  V30 51 H 4.984482 -6.868499 -3.427333 0
M  V30 52 H 3.499895 -7.607727 -2.820961 0
M  V30 53 H 3.509428 -6.381402 -0.935220 0
M  V30 54 H 5.061602 -5.739413 -1.486180 0
M  V30 55 H 1.914256 -3.310698 1.564994 0
M  V30 56 H 0.483374 -3.090956 0.453177 0
M  V30 57 H 0.103966 -1.079859 1.386851 0
M  V30 58 H 1.618624 -1.166569 2.274596 0
M  V30 59 H -1.363294 0.439624 0.400255 0
M  V30 60 H -1.761842 0.799549 -1.357413 0
M  V30 61 H -3.080395 2.376823 2.768175 0
M  V30 62 H -7.312606 1.654517 0.777906 0
M  V30 63 H -7.701688 -0.131084 5.389147 0
M  V30 64 H -5.270026 1.749456 6.120695 0
M  V30 65 H -6.474375 0.951615 7.266791 0
M  V30 66 H -4.571317 -0.487748 5.225635 0
M  V30 67 H -5.709292 -1.274424 6.452401 0
M  V30 68 H -0.837087 5.440977 -0.951631 0
M  V30 69 H -2.010366 2.244368 -2.745668 0
M  V30 70 H -0.791338 0.920175 -3.127881 0
M  V30 71 H -0.613471 2.578426 -3.775025 0
M  V30 72 H 0.749639 4.013236 -2.792374 0
M  V30 73 H 1.617660 2.498467 -2.985808 0
M  V30 74 H 1.798303 3.551190 -1.457942 0
M  V30 END ATOM
M  V30 BEGIN BOND
M  V30 1 1 1 2
M  V30 2 1 2 3
M  V30 3 1 3 4
M  V30 4 1 4 5
M  V30 5 1 5 6
M  V30 6 1 6 7
M  V30 7 1 7 8
M  V30 8 1 8 9
M  V30 9 1 9 10
M  V30 10 1 10 11
M  V30 11 1 4 12
M  V30 12 1 12 13
M  V30 13 1 13 14
M  V30 14 1 14 15
M  V30 15 2 15 16
M  V30 16 1 15 17
M  V30 17 1 17 18
M  V30 18 1 18 19
M  V30 19 1 19 20
M  V30 20 1 20 21
M  V30 21 1 21 22
M  V30 22 2 22 23
M  V30 23 1 22 24
M  V30 24 2 24 25
M  V30 25 1 25 26
M  V30 26 1 26 27
M  V30 27 1 27 28
M  V30 28 1 28 29
M  V30 29 1 29 30
M  V30 30 2 27 31
M  V30 31 2 20 32
M  V30 32 1 32 33
M  V30 33 1 33 34
M  V30 34 1 34 35
M  V30 35 1 35 36
M  V30 36 1 35 37
M  V30 37 1 14 2
M  V30 38 1 35 17
M  V30 39 1 11 6
M  V30 40 2 34 19
M  V30 41 1 31 24
M  V30 42 1 30 28
M  V30 43 1 1 38
M  V30 44 1 1 39
M  V30 45 1 1 40
M  V30 46 1 2 41 CFG=3
M  V30 47 1 3 42
M  V30 48 1 3 43
M  V30 49 1 5 44
M  V30 50 1 5 45
M  V30 51 1 6 46
M  V30 52 1 7 47
M  V30 53 1 7 48
M  V30 54 1 8 49
M  V30 55 1 8 50
M  V30 56 1 10 51
M  V30 57 1 10 52
M  V30 58 1 11 53
M  V30 59 1 11 54
M  V30 60 1 12 55
M  V30 61 1 12 56
M  V30 62 1 13 57
M  V30 63 1 13 58
M  V30 64 1 18 59
M  V30 65 1 18 60
M  V30 66 1 21 61
M  V30 67 1 25 62
M  V30 68 1 28 63
M  V30 69 1 29 64
M  V30 70 1 29 65
M  V30 71 1 30 66
M  V30 72 1 30 67
M  V30 73 1 33 68
M  V30 74 1 36 69
M  V30 75 1 36 70
M  V30 76 1 36 71
M  V30 77 1 37 72
M  V30 78 1 37 73
M  V30 79 1 37 74
M  V30 END BOND
M  V30 END CTAB
M  END
>  <Dataset>  (859) 
ChEMBL_Kinases

>  <Ligand_Instance>  (859) 
nan

>  <PDB_ID>  (859) 
nan

>  <Standardized_SMILES>  (859) 
C[C@H]1CN(CC2CCOCC2)CCN1C(=O)N1Cc2c(NC(=O)c3coc(C4CC4)n3)n[nH]c2C1(C)C

>  <Name>  (859) 
nan

>  <Pocket>  (859) 
nan

>  <ATP_Site>  (859) 
nan

>  <Peripheral>  (859) 
nan

>  <Num_H_Atoms_ProtBoundConf>  (859) 
nan

>  <Num_Resolved_Atoms>  (859) 
nan

>  <Num_Not_Resolved_Atoms>  (859) 
nan

$$$$
CHEMBL3934243
     RDKit          3D

  0  0  0  0  0  0  0  0  0  0999 V3000
M  V30 BEGIN CTAB
M  V30 COUNTS 38 41 0 0 0
M  V30 BEGIN ATOM
M  V30 1 C 1.118255 -5.155065 1.961169 0
M  V30 2 C 2.340649 -4.461552 1.416411 0
M  V30 3 N 3.465420 -5.105947 1.066576 0
M  V30 4 C 4.352661 -4.205800 0.624722 0
M  V30 5 C 3.726404 -2.998281 0.719981 0
M  V30 6 S 3.847483 -1.162002 0.458025 0
M  V30 7 C 2.066094 -0.919864 1.103034 0
M  V30 8 C 1.108597 0.184406 1.326972 0
M  V30 9 O 0.617384 0.406637 2.466882 0
M  V30 10 N 0.746257 1.003048 0.211727 0
M  V30 11 C 1.238334 0.861949 -1.136640 0
M  V30 12 C 0.067141 1.305459 -1.980028 0
M  V30 13 C -0.499024 2.430506 -1.168898 0
M  V30 14 C -0.179121 2.099770 0.246815 0
M  V30 15 C -1.397577 1.622417 0.992948 0
M  V30 16 C -1.898304 0.347762 0.722062 0
M  V30 17 C -3.025298 -0.182141 1.356527 0
M  V30 18 C -3.663037 0.580204 2.281644 0
M  V30 19 Cl -5.081266 -0.098009 3.073634 0
M  V30 20 C -3.199012 1.843215 2.576382 0
M  V30 21 C -2.074857 2.374049 1.944061 0
M  V30 22 N 1.723740 -2.019012 1.362269 0
M  V30 23 N 2.433987 -3.111054 1.222205 0
M  V30 24 H 1.196590 -6.227868 1.819960 0
M  V30 25 H 0.997906 -4.939472 3.036140 0
M  V30 26 H 0.250284 -4.775047 1.375981 0
M  V30 27 H 5.359412 -4.251541 0.249210 0
M  V30 28 H 2.068878 1.553495 -1.359267 0
M  V30 29 H 1.560936 -0.172057 -1.374130 0
M  V30 30 H -0.713375 0.502805 -2.088784 0
M  V30 31 H 0.396737 1.642433 -2.993683 0
M  V30 32 H -1.589502 2.577791 -1.350647 0
M  V30 33 H 0.081609 3.339232 -1.453622 0
M  V30 34 H 0.252621 2.983955 0.788620 0
M  V30 35 H -1.447106 -0.325127 0.002501 0
M  V30 36 H -3.383477 -1.180843 1.115115 0
M  V30 37 H -3.703162 2.443418 3.306542 0
M  V30 38 H -1.688542 3.366997 2.159766 0
M  V30 END ATOM
M  V30 BEGIN BOND
M  V30 1 1 1 2
M  V30 2 2 2 3
M  V30 3 1 3 4
M  V30 4 2 4 5
M  V30 5 1 5 6
M  V30 6 1 6 7
M  V30 7 1 7 8
M  V30 8 2 8 9
M  V30 9 1 8 10
M  V30 10 1 10 11
M  V30 11 1 11 12
M  V30 12 1 12 13
M  V30 13 1 13 14
M  V30 14 1 14 15
M  V30 15 2 15 16
M  V30 16 1 16 17
M  V30 17 2 17 18
M  V30 18 1 18 19
M  V30 19 1 18 20
M  V30 20 2 20 21
M  V30 21 2 7 22
M  V30 22 1 22 23
M  V30 23 1 23 2
M  V30 24 1 23 5
M  V30 25 1 14 10
M  V30 26 1 21 15
M  V30 27 1 1 24
M  V30 28 1 1 25
M  V30 29 1 1 26
M  V30 30 1 4 27
M  V30 31 1 11 28
M  V30 32 1 11 29
M  V30 33 1 12 30
M  V30 34 1 12 31
M  V30 35 1 13 32
M  V30 36 1 13 33
M  V30 37 1 14 34
M  V30 38 1 16 35
M  V30 39 1 17 36
M  V30 40 1 20 37
M  V30 41 1 21 38
M  V30 END BOND
M  V30 END CTAB
M  END
>  <Dataset>  (860) 
ChEMBL_Kinases

>  <Ligand_Instance>  (860) 
nan

>  <PDB_ID>  (860) 
nan

>  <Standardized_SMILES>  (860) 
Cc1ncc2sc(C(=O)N3CCCC3c3ccc(Cl)cc3)nn12

>  <Name>  (860) 
nan

>  <Pocket>  (860) 
nan

>  <ATP_Site>  (860) 
nan

>  <Peripheral>  (860) 
nan

>  <Num_H_Atoms_ProtBoundConf>  (860) 
nan

>  <Num_Resolved_Atoms>  (860) 
nan

>  <Num_Not_Resolved_Atoms>  (860) 
nan

$$$$
CHEMBL3934177
     RDKit          3D

  0  0  0  0  0  0  0  0  0  0999 V3000
M  V30 BEGIN CTAB
M  V30 COUNTS 59 63 0 0 0
M  V30 BEGIN ATOM
M  V30 1 C 3.181060 -0.689691 4.460376 0
M  V30 2 N 2.425454 -0.325556 3.257938 0
M  V30 3 N 2.390820 -1.116033 2.202062 0
M  V30 4 C 1.616627 -0.511000 1.257685 0
M  V30 5 C 1.360097 -1.128164 -0.068037 0 CFG=2
M  V30 6 C 2.452469 -0.690352 -1.010875 0
M  V30 7 C 2.429698 0.782231 -1.124021 0
M  V30 8 C 3.439339 1.213645 -1.992281 0
M  V30 9 C 3.618546 2.575467 -2.261082 0
M  V30 10 C 2.815190 3.537517 -1.686728 0
M  V30 11 C 1.841366 3.047436 -0.842711 0
M  V30 12 N 0.924141 3.897386 -0.166123 0
M  V30 13 C -0.149025 3.659784 0.734977 0
M  V30 14 C -1.486599 3.442405 0.389926 0
M  V30 15 C -2.196181 3.254138 1.568790 0
M  V30 16 N -1.296660 3.358933 2.573708 0
M  V30 17 N -0.100438 3.596487 2.076818 0
M  V30 18 N 1.676986 1.743415 -0.591198 0
M  V30 19 C -0.013336 -0.765790 -0.593555 0
M  V30 20 C -0.810403 -1.973863 -1.007515 0
M  V30 21 C -1.146968 -2.816756 0.220482 0 CFG=1
M  V30 22 O -1.705466 -4.017127 -0.164013 0
M  V30 23 C -2.933526 -4.548392 0.032097 0
M  V30 24 C -2.983127 -5.812602 -0.573917 0
M  V30 25 C -4.137885 -6.603908 -0.533628 0
M  V30 26 C -5.263672 -6.143165 0.114366 0
M  V30 27 C -5.225207 -4.901852 0.713223 0
M  V30 28 Cl -6.566435 -4.166662 1.577267 0
M  V30 29 C -4.082908 -4.131819 0.667077 0
M  V30 30 F -3.966991 -2.922953 1.220996 0
M  V30 31 C 0.152696 -2.965142 0.982754 0
M  V30 32 C 1.352274 -2.635585 0.111584 0
M  V30 33 O 1.218094 0.607039 1.771600 0
M  V30 34 C 1.687031 0.755185 2.981674 0
M  V30 35 O 1.592118 1.639244 3.870078 0
M  V30 36 H 3.318116 0.213624 5.089890 0
M  V30 37 H 2.658534 -1.512076 5.000209 0
M  V30 38 H 4.151062 -1.087038 4.111686 0
M  V30 39 H 3.416490 -1.008991 -0.537346 0
M  V30 40 H 2.347275 -1.179185 -2.009113 0
M  V30 41 H 4.162993 0.588392 -2.531214 0
M  V30 42 H 4.398071 2.939008 -2.934152 0
M  V30 43 H 2.896603 4.596298 -1.848113 0
M  V30 44 H 1.012504 4.921542 -0.329542 0
M  V30 45 H -1.859426 3.431757 -0.638592 0
M  V30 46 H -3.275230 3.064507 1.556665 0
M  V30 47 H -1.675041 3.240817 3.533232 0
M  V30 48 H -0.605006 -0.142840 0.076620 0
M  V30 49 H 0.149020 -0.169011 -1.537778 0
M  V30 50 H -0.307614 -2.558951 -1.802149 0
M  V30 51 H -1.776454 -1.615430 -1.398740 0
M  V30 52 H -1.874669 -2.211642 0.790975 0
M  V30 53 H -2.194187 -6.338475 -1.128268 0
M  V30 54 H -4.235094 -7.581796 -0.980423 0
M  V30 55 H -6.205024 -6.666322 0.207430 0
M  V30 56 H 0.151801 -2.198277 1.783062 0
M  V30 57 H 0.286446 -3.948892 1.440726 0
M  V30 58 H 2.245478 -2.849805 0.755630 0
M  V30 59 H 1.373043 -3.186050 -0.830939 0
M  V30 END ATOM
M  V30 BEGIN BOND
M  V30 1 1 1 2
M  V30 2 1 2 3
M  V30 3 2 3 4
M  V30 4 1 4 5
M  V30 5 1 5 6 CFG=3
M  V30 6 1 6 7
M  V30 7 2 7 8
M  V30 8 1 8 9
M  V30 9 2 9 10
M  V30 10 1 10 11
M  V30 11 1 11 12
M  V30 12 1 12 13
M  V30 13 1 13 14
M  V30 14 2 14 15
M  V30 15 1 15 16
M  V30 16 1 16 17
M  V30 17 2 11 18
M  V30 18 1 5 19
M  V30 19 1 19 20
M  V30 20 1 20 21
M  V30 21 1 21 22
M  V30 22 1 22 23
M  V30 23 2 23 24
M  V30 24 1 24 25
M  V30 25 2 25 26
M  V30 26 1 26 27
M  V30 27 1 27 28
M  V30 28 2 27 29
M  V30 29 1 29 30
M  V30 30 1 21 31
M  V30 31 1 31 32
M  V30 32 1 4 33
M  V30 33 1 33 34
M  V30 34 2 34 35
M  V30 35 1 34 2
M  V30 36 1 32 5
M  V30 37 1 18 7
M  V30 38 1 29 23
M  V30 39 2 17 13
M  V30 40 1 1 36
M  V30 41 1 1 37
M  V30 42 1 1 38
M  V30 43 1 6 39
M  V30 44 1 6 40
M  V30 45 1 8 41
M  V30 46 1 9 42
M  V30 47 1 10 43
M  V30 48 1 12 44
M  V30 49 1 14 45
M  V30 50 1 15 46
M  V30 51 1 16 47
M  V30 52 1 19 48
M  V30 53 1 19 49
M  V30 54 1 20 50
M  V30 55 1 20 51
M  V30 56 1 21 52 CFG=1
M  V30 57 1 24 53
M  V30 58 1 25 54
M  V30 59 1 26 55
M  V30 60 1 31 56
M  V30 61 1 31 57
M  V30 62 1 32 58
M  V30 63 1 32 59
M  V30 END BOND
M  V30 END CTAB
M  END
>  <Dataset>  (861) 
ChEMBL_Kinases

>  <Ligand_Instance>  (861) 
nan

>  <PDB_ID>  (861) 
nan

>  <Standardized_SMILES>  (861) 
Cn1nc([C@]2(Cc3cccc(Nc4cc[nH]n4)n3)CC[C@@H](Oc3cccc(Cl)c3F)CC2)oc1=O

>  <Name>  (861) 
nan

>  <Pocket>  (861) 
nan

>  <ATP_Site>  (861) 
nan

>  <Peripheral>  (861) 
nan

>  <Num_H_Atoms_ProtBoundConf>  (861) 
nan

>  <Num_Resolved_Atoms>  (861) 
nan

>  <Num_Not_Resolved_Atoms>  (861) 
nan

$$$$
CHEMBL3933953
     RDKit          3D

  0  0  0  0  0  0  0  0  0  0999 V3000
M  V30 BEGIN CTAB
M  V30 COUNTS 61 66 0 0 0
M  V30 BEGIN ATOM
M  V30 1 O 2.190538 -4.101676 -1.633724 0
M  V30 2 C 2.912374 -4.631889 -0.749948 0
M  V30 3 N 2.503025 -4.065665 0.450961 0
M  V30 4 C 1.517738 -3.101288 0.767893 0
M  V30 5 N 1.921695 -1.795951 0.769420 0
M  V30 6 C 0.860997 -1.019384 1.099162 0
M  V30 7 C 0.650215 0.332969 1.263652 0
M  V30 8 C -0.583862 0.838679 1.620140 0
M  V30 9 C -0.658523 2.315035 1.777398 0
M  V30 10 O 0.383922 2.950432 1.119096 0
M  V30 11 C -0.592013 2.598843 3.257551 0
M  V30 12 C 0.512615 2.307242 4.049831 0
M  V30 13 C 0.423966 2.583785 5.384164 0
M  V30 14 C -0.716592 3.128744 5.912371 0
M  V30 15 C -1.802422 3.412112 5.112047 0
M  V30 16 C -1.749516 3.148070 3.765736 0
M  V30 17 C -2.595957 3.299056 2.589371 0
M  V30 18 O -3.765446 3.794052 2.757192 0
M  V30 19 N -1.925619 2.839832 1.392498 0
M  V30 20 C -2.566757 2.989694 0.103946 0
M  V30 21 C -3.414831 1.869575 -0.308939 0
M  V30 22 C -4.749536 1.912818 0.110028 0
M  V30 23 C -5.655175 0.934446 -0.218267 0
M  V30 24 C -5.274602 -0.154620 -0.992417 0
M  V30 25 C -3.969703 -0.229547 -1.422123 0
M  V30 26 C -3.086824 0.760838 -1.079752 0
M  V30 27 C -1.596424 -0.075222 1.803169 0
M  V30 28 C -1.401110 -1.429886 1.642050 0
M  V30 29 C -0.151882 -1.937184 1.282057 0
M  V30 30 N 0.218352 -3.213229 1.086933 0
M  V30 31 N 3.350639 -5.221698 -1.930461 0
M  V30 32 C 2.746430 -4.861766 -3.206617 0
M  V30 33 C 3.377544 -5.589077 -4.340768 0
M  V30 34 O 4.745056 -5.585210 -4.314889 0
M  V30 35 C 5.346189 -5.698396 -3.094400 0
M  V30 36 C 4.405441 -6.208475 -2.014839 0
M  V30 37 H 3.249537 -4.704350 0.781536 0
M  V30 38 H 1.509789 0.953992 1.094990 0
M  V30 39 H 1.192951 3.033887 1.655914 0
M  V30 40 H 1.429904 1.877337 3.670419 0
M  V30 41 H 1.217194 2.403140 6.112430 0
M  V30 42 H -0.839816 3.366748 6.959105 0
M  V30 43 H -2.705161 3.838232 5.499907 0
M  V30 44 H -1.804190 3.198615 -0.700236 0
M  V30 45 H -3.187172 3.931323 0.119611 0
M  V30 46 H -5.206898 2.678603 0.709347 0
M  V30 47 H -6.691036 0.906768 0.070639 0
M  V30 48 H -5.910603 -0.969537 -1.300254 0
M  V30 49 H -3.604377 -1.041489 -2.023982 0
M  V30 50 H -2.041488 0.750450 -1.393534 0
M  V30 51 H -2.551399 0.373344 2.083296 0
M  V30 52 H -2.235747 -2.097658 1.799518 0
M  V30 53 H -0.288968 -4.111287 1.143083 0
M  V30 54 H 2.964160 -3.777806 -3.354050 0
M  V30 55 H 1.648333 -5.000549 -3.226390 0
M  V30 56 H 3.079799 -5.046878 -5.283037 0
M  V30 57 H 2.935469 -6.600712 -4.448497 0
M  V30 58 H 6.159251 -6.451469 -3.196036 0
M  V30 59 H 5.826910 -4.765001 -2.736619 0
M  V30 60 H 4.047427 -7.205642 -2.347388 0
M  V30 61 H 4.968377 -6.296735 -1.063860 0
M  V30 END ATOM
M  V30 BEGIN BOND
M  V30 1 2 1 2
M  V30 2 1 2 3
M  V30 3 1 3 4
M  V30 4 2 4 5
M  V30 5 1 5 6
M  V30 6 2 6 7
M  V30 7 1 7 8
M  V30 8 1 8 9
M  V30 9 1 9 10
M  V30 10 1 9 11
M  V30 11 2 11 12
M  V30 12 1 12 13
M  V30 13 2 13 14
M  V30 14 1 14 15
M  V30 15 2 15 16
M  V30 16 1 16 17
M  V30 17 2 17 18
M  V30 18 1 17 19
M  V30 19 1 19 20
M  V30 20 1 20 21
M  V30 21 2 21 22
M  V30 22 1 22 23
M  V30 23 2 23 24
M  V30 24 1 24 25
M  V30 25 2 25 26
M  V30 26 2 8 27
M  V30 27 1 27 28
M  V30 28 2 28 29
M  V30 29 1 29 30
M  V30 30 1 2 31
M  V30 31 1 31 32
M  V30 32 1 32 33
M  V30 33 1 33 34
M  V30 34 1 34 35
M  V30 35 1 35 36
M  V30 36 1 30 4
M  V30 37 1 36 31
M  V30 38 1 29 6
M  V30 39 1 19 9
M  V30 40 1 26 21
M  V30 41 1 16 11
M  V30 42 1 3 37
M  V30 43 1 7 38
M  V30 44 1 10 39
M  V30 45 1 12 40
M  V30 46 1 13 41
M  V30 47 1 14 42
M  V30 48 1 15 43
M  V30 49 1 20 44
M  V30 50 1 20 45
M  V30 51 1 22 46
M  V30 52 1 23 47
M  V30 53 1 24 48
M  V30 54 1 25 49
M  V30 55 1 26 50
M  V30 56 1 27 51
M  V30 57 1 28 52
M  V30 58 1 30 53
M  V30 59 1 32 54
M  V30 60 1 32 55
M  V30 61 1 33 56
M  V30 62 1 33 57
M  V30 63 1 35 58
M  V30 64 1 35 59
M  V30 65 1 36 60
M  V30 66 1 36 61
M  V30 END BOND
M  V30 END CTAB
M  END
>  <Dataset>  (862) 
ChEMBL_Kinases

>  <Ligand_Instance>  (862) 
nan

>  <PDB_ID>  (862) 
nan

>  <Standardized_SMILES>  (862) 
O=C(Nc1nc2cc(C3(O)c4ccccc4C(=O)N3Cc3ccccc3)ccc2[nH]1)N1CCOCC1

>  <Name>  (862) 
nan

>  <Pocket>  (862) 
nan

>  <ATP_Site>  (862) 
nan

>  <Peripheral>  (862) 
nan

>  <Num_H_Atoms_ProtBoundConf>  (862) 
nan

>  <Num_Resolved_Atoms>  (862) 
nan

>  <Num_Not_Resolved_Atoms>  (862) 
nan

$$$$
CHEMBL3933899
     RDKit          3D

  0  0  0  0  0  0  0  0  0  0999 V3000
M  V30 BEGIN CTAB
M  V30 COUNTS 40 43 0 0 0
M  V30 BEGIN ATOM
M  V30 1 C -0.217705 -5.947898 1.238160 0
M  V30 2 C 0.307867 -4.575883 1.405756 0
M  V30 3 C 1.490163 -4.364989 2.086876 0
M  V30 4 N 1.928687 -3.094442 2.220257 0
M  V30 5 C 1.181952 -2.097338 1.677557 0
M  V30 6 C -0.022025 -2.260639 0.978605 0
M  V30 7 C -0.588131 -1.008253 0.498316 0
M  V30 8 C 0.313782 -0.275730 -0.282678 0
M  V30 9 C -0.201700 0.919900 -0.790799 0
M  V30 10 N 0.549261 1.831497 -1.620703 0
M  V30 11 C 1.604163 2.568602 -0.963570 0
M  V30 12 C 2.404790 3.540388 -1.533526 0
M  V30 13 C 3.271668 3.931773 -0.536937 0
M  V30 14 N 3.027443 3.245407 0.587814 0
M  V30 15 C 3.674830 3.298943 1.886406 0
M  V30 16 N 2.014115 2.423145 0.315608 0
M  V30 17 N -1.450768 1.356012 -0.566107 0
M  V30 18 C -2.334684 0.666420 0.183498 0
M  V30 19 N -3.604895 0.804715 0.603432 0
M  V30 20 C -3.967660 -0.247879 1.377503 0
M  V30 21 C -2.845315 -1.087760 1.436378 0
M  V30 22 C -2.924508 -2.285797 2.214205 0
M  V30 23 N -3.004816 -3.270581 2.837832 0
M  V30 24 C -1.852667 -0.517223 0.698212 0
M  V30 25 C -0.437079 -3.551274 0.860199 0
M  V30 26 H -1.334463 -5.938123 1.077123 0
M  V30 27 H 0.282211 -6.507367 0.406731 0
M  V30 28 H -0.036499 -6.542240 2.167403 0
M  V30 29 H 2.053551 -5.200992 2.506708 0
M  V30 30 H 1.647959 -1.117200 1.855907 0
M  V30 31 H 1.336094 -0.516781 -0.535180 0
M  V30 32 H 0.384818 1.990423 -2.626350 0
M  V30 33 H 2.383999 3.933035 -2.534306 0
M  V30 34 H 4.072825 4.669904 -0.530846 0
M  V30 35 H 4.611982 2.679011 1.770181 0
M  V30 36 H 3.069777 2.764081 2.647465 0
M  V30 37 H 3.908893 4.323188 2.205916 0
M  V30 38 H -4.204977 1.612915 0.356318 0
M  V30 39 H -4.940905 -0.331126 1.812046 0
M  V30 40 H -1.348551 -3.668290 0.314420 0
M  V30 END ATOM
M  V30 BEGIN BOND
M  V30 1 1 1 2
M  V30 2 2 2 3
M  V30 3 1 3 4
M  V30 4 2 4 5
M  V30 5 1 5 6
M  V30 6 1 6 7
M  V30 7 2 7 8
M  V30 8 1 8 9
M  V30 9 1 9 10
M  V30 10 1 10 11
M  V30 11 1 11 12
M  V30 12 2 12 13
M  V30 13 1 13 14
M  V30 14 1 14 15
M  V30 15 1 14 16
M  V30 16 2 9 17
M  V30 17 1 17 18
M  V30 18 1 18 19
M  V30 19 1 19 20
M  V30 20 2 20 21
M  V30 21 1 21 22
M  V30 22 3 22 23
M  V30 23 1 21 24
M  V30 24 2 6 25
M  V30 25 1 25 2
M  V30 26 1 24 7
M  V30 27 2 16 11
M  V30 28 2 24 18
M  V30 29 1 1 26
M  V30 30 1 1 27
M  V30 31 1 1 28
M  V30 32 1 3 29
M  V30 33 1 5 30
M  V30 34 1 8 31
M  V30 35 1 10 32
M  V30 36 1 12 33
M  V30 37 1 13 34
M  V30 38 1 15 35
M  V30 39 1 15 36
M  V30 40 1 15 37
M  V30 41 1 19 38
M  V30 42 1 20 39
M  V30 43 1 25 40
M  V30 END BOND
M  V30 END CTAB
M  END
>  <Dataset>  (863) 
ChEMBL_Kinases

>  <Ligand_Instance>  (863) 
nan

>  <PDB_ID>  (863) 
nan

>  <Standardized_SMILES>  (863) 
Cc1cncc(-c2cc(Nc3ccn(C)n3)nc3[nH]cc(C#N)c23)c1

>  <Name>  (863) 
nan

>  <Pocket>  (863) 
nan

>  <ATP_Site>  (863) 
nan

>  <Peripheral>  (863) 
nan

>  <Num_H_Atoms_ProtBoundConf>  (863) 
nan

>  <Num_Resolved_Atoms>  (863) 
nan

>  <Num_Not_Resolved_Atoms>  (863) 
nan

$$$$
CHEMBL3933780
     RDKit          3D

  0  0  0  0  0  0  0  0  0  0999 V3000
M  V30 BEGIN CTAB
M  V30 COUNTS 53 56 0 0 0
M  V30 BEGIN ATOM
M  V30 1 C -2.942655 -4.830615 0.228806 0
M  V30 2 C -1.881633 -4.240579 -0.696493 0 CFG=1
M  V30 3 N -1.282984 -3.098616 -0.058256 0
M  V30 4 C -1.355291 -1.812051 -0.615860 0
M  V30 5 O -1.975528 -1.722484 -1.706610 0
M  V30 6 C -0.769967 -0.623560 -0.015960 0
M  V30 7 C -0.106640 -0.608728 1.113887 0
M  V30 8 C 0.504189 0.547299 1.768450 0
M  V30 9 C 1.183988 0.445548 2.965367 0
M  V30 10 N 1.742252 1.513183 3.560174 0
M  V30 11 C 1.667363 2.740423 3.018398 0
M  V30 12 N 2.152270 3.939821 3.443358 0
M  V30 13 C 1.820200 4.897977 2.552500 0
M  V30 14 C 1.108763 4.278331 1.544734 0
M  V30 15 C 0.544543 4.921630 0.363436 0
M  V30 16 C 0.585069 4.507129 -0.951597 0
M  V30 17 C -0.014960 5.263600 -1.933054 0
M  V30 18 C -0.672026 6.450005 -1.647065 0
M  V30 19 C -0.725337 6.884205 -0.339339 0
M  V30 20 C -0.121995 6.120857 0.637272 0
M  V30 21 C 1.005684 2.930403 1.822763 0
M  V30 22 C 0.441578 1.818412 1.232839 0
M  V30 23 C -0.914268 -5.296961 -1.117313 0 CFG=1
M  V30 24 O -0.011387 -4.741136 -2.026697 0
M  V30 25 C -0.184589 -5.926079 -0.005739 0
M  V30 26 C 0.892132 -5.326918 0.610231 0
M  V30 27 C 1.532585 -5.971774 1.651057 0
M  V30 28 C 1.117744 -7.209064 2.091565 0
M  V30 29 C 0.045885 -7.845694 1.505366 0
M  V30 30 C -0.567531 -7.157551 0.461036 0
M  V30 31 H -3.364068 -5.709127 -0.297947 0
M  V30 32 H -2.430660 -5.133379 1.160359 0
M  V30 33 H -3.711652 -4.065317 0.418828 0
M  V30 34 H -2.386375 -3.890847 -1.644918 0
M  V30 35 H -0.796386 -3.255449 0.829490 0
M  V30 36 H -0.872872 0.329243 -0.513953 0
M  V30 37 H 0.001751 -1.563625 1.621751 0
M  V30 38 H 1.275148 -0.522538 3.447679 0
M  V30 39 H 2.694369 4.076011 4.324449 0
M  V30 40 H 2.048104 5.956977 2.585301 0
M  V30 41 H 1.114586 3.574612 -1.092551 0
M  V30 42 H 0.045301 4.898720 -2.932159 0
M  V30 43 H -1.137955 7.026863 -2.449062 0
M  V30 44 H -1.237998 7.811247 -0.111309 0
M  V30 45 H -0.209925 6.536169 1.650973 0
M  V30 46 H -0.067037 2.005331 0.300078 0
M  V30 47 H -1.506099 -6.060741 -1.679126 0
M  V30 48 H -0.223365 -3.786612 -2.199292 0
M  V30 49 H 1.251086 -4.375113 0.306827 0
M  V30 50 H 2.378011 -5.535458 2.157816 0
M  V30 51 H 1.629167 -7.694061 2.902475 0
M  V30 52 H -0.306881 -8.807397 1.819049 0
M  V30 53 H -1.417639 -7.676505 0.005588 0
M  V30 END ATOM
M  V30 BEGIN BOND
M  V30 1 1 1 2
M  V30 2 1 2 3
M  V30 3 1 3 4
M  V30 4 2 4 5
M  V30 5 1 4 6
M  V30 6 2 6 7
M  V30 7 1 7 8
M  V30 8 2 8 9
M  V30 9 1 9 10
M  V30 10 2 10 11
M  V30 11 1 11 12
M  V30 12 1 12 13
M  V30 13 2 13 14
M  V30 14 1 14 15
M  V30 15 2 15 16
M  V30 16 1 16 17
M  V30 17 2 17 18
M  V30 18 1 18 19
M  V30 19 2 19 20
M  V30 20 1 14 21
M  V30 21 2 21 22
M  V30 22 1 2 23
M  V30 23 1 23 24
M  V30 24 1 23 25
M  V30 25 2 25 26
M  V30 26 1 26 27
M  V30 27 2 27 28
M  V30 28 1 28 29
M  V30 29 2 29 30
M  V30 30 1 22 8
M  V30 31 1 30 25
M  V30 32 1 21 11
M  V30 33 1 20 15
M  V30 34 1 1 31
M  V30 35 1 1 32
M  V30 36 1 1 33
M  V30 37 1 2 34 CFG=3
M  V30 38 1 3 35
M  V30 39 1 6 36
M  V30 40 1 7 37
M  V30 41 1 9 38
M  V30 42 1 12 39
M  V30 43 1 13 40
M  V30 44 1 16 41
M  V30 45 1 17 42
M  V30 46 1 18 43
M  V30 47 1 19 44
M  V30 48 1 20 45
M  V30 49 1 22 46
M  V30 50 1 23 47 CFG=3
M  V30 51 1 24 48
M  V30 52 1 26 49
M  V30 53 1 27 50
M  V30 54 1 28 51
M  V30 55 1 29 52
M  V30 56 1 30 53
M  V30 END BOND
M  V30 END CTAB
M  END
>  <Dataset>  (864) 
ChEMBL_Kinases

>  <Ligand_Instance>  (864) 
nan

>  <PDB_ID>  (864) 
nan

>  <Standardized_SMILES>  (864) 
C[C@@H](NC(=O)/C=C/c1cnc2[nH]cc(-c3ccccc3)c2c1)[C@@H](O)c1ccccc1

>  <Name>  (864) 
nan

>  <Pocket>  (864) 
nan

>  <ATP_Site>  (864) 
nan

>  <Peripheral>  (864) 
nan

>  <Num_H_Atoms_ProtBoundConf>  (864) 
nan

>  <Num_Resolved_Atoms>  (864) 
nan

>  <Num_Not_Resolved_Atoms>  (864) 
nan

$$$$
CHEMBL63803
     RDKit          3D

  0  0  0  0  0  0  0  0  0  0999 V3000
M  V30 BEGIN CTAB
M  V30 COUNTS 43 46 0 0 0
M  V30 BEGIN ATOM
M  V30 1 C 1.201493 -4.447685 4.413541 0
M  V30 2 O 2.031815 -5.150212 3.506923 0
M  V30 3 C 2.565939 -4.433742 2.447825 0
M  V30 4 C 2.343977 -3.096872 2.224279 0
M  V30 5 C 2.910267 -2.474734 1.156538 0
M  V30 6 C 2.738211 -1.042433 0.825030 0
M  V30 7 N 3.278997 -0.501105 -0.179629 0
M  V30 8 N 3.102806 0.849847 -0.473946 0
M  V30 9 C 1.734954 1.004018 -0.789511 0
M  V30 10 N 1.423559 0.566382 -2.033731 0
M  V30 11 C 0.141908 0.671696 -2.462689 0
M  V30 12 N -0.746504 1.207582 -1.621459 0
M  V30 13 C -0.440217 1.632851 -0.411466 0
M  V30 14 C 0.838524 1.558229 0.091743 0
M  V30 15 C 0.884835 2.071773 1.365870 0
M  V30 16 N -0.374008 2.446752 1.604246 0
M  V30 17 N -1.176474 2.203917 0.583370 0
M  V30 18 C -2.579810 2.452022 0.432164 0
M  V30 19 C -3.577853 1.503874 0.614130 0
M  V30 20 C -4.896479 1.866778 0.435286 0
M  V30 21 C -5.219449 3.158320 0.079422 0
M  V30 22 C -4.194273 4.092842 -0.097065 0
M  V30 23 C -2.859866 3.753890 0.076469 0
M  V30 24 C 3.703787 -3.220036 0.317278 0
M  V30 25 C 3.961575 -4.562026 0.491303 0
M  V30 26 C 3.380256 -5.177758 1.578275 0
M  V30 27 O 3.629936 -6.548470 1.775218 0
M  V30 28 H 1.110834 -5.019622 5.382872 0
M  V30 29 H 0.167641 -4.335572 4.037342 0
M  V30 30 H 1.614756 -3.469639 4.696583 0
M  V30 31 H 1.729419 -2.543794 2.884254 0
M  V30 32 H 2.109298 -0.513999 1.525100 0
M  V30 33 H 4.119509 0.956552 -0.278944 0
M  V30 34 H -0.307820 0.386656 -3.403617 0
M  V30 35 H 1.800035 2.095050 1.911850 0
M  V30 36 H -3.247206 0.491798 0.898778 0
M  V30 37 H -5.659942 1.128049 0.578311 0
M  V30 38 H -6.240469 3.422159 -0.054438 0
M  V30 39 H -4.494086 5.110403 -0.380067 0
M  V30 40 H -2.117805 4.535214 -0.078568 0
M  V30 41 H 4.171419 -2.751606 -0.545513 0
M  V30 42 H 4.603317 -5.120999 -0.206676 0
M  V30 43 H 2.808159 -7.135731 1.972108 0
M  V30 END ATOM
M  V30 BEGIN BOND
M  V30 1 1 1 2
M  V30 2 1 2 3
M  V30 3 2 3 4
M  V30 4 1 4 5
M  V30 5 1 5 6
M  V30 6 2 6 7
M  V30 7 1 7 8
M  V30 8 1 8 9
M  V30 9 2 9 10
M  V30 10 1 10 11
M  V30 11 2 11 12
M  V30 12 1 12 13
M  V30 13 2 13 14
M  V30 14 1 14 15
M  V30 15 2 15 16
M  V30 16 1 16 17
M  V30 17 1 17 18
M  V30 18 2 18 19
M  V30 19 1 19 20
M  V30 20 2 20 21
M  V30 21 1 21 22
M  V30 22 2 22 23
M  V30 23 2 5 24
M  V30 24 1 24 25
M  V30 25 2 25 26
M  V30 26 1 26 27
M  V30 27 1 26 3
M  V30 28 1 14 9
M  V30 29 1 23 18
M  V30 30 1 17 13
M  V30 31 1 1 28
M  V30 32 1 1 29
M  V30 33 1 1 30
M  V30 34 1 4 31
M  V30 35 1 6 32
M  V30 36 1 8 33
M  V30 37 1 11 34
M  V30 38 1 15 35
M  V30 39 1 19 36
M  V30 40 1 20 37
M  V30 41 1 21 38
M  V30 42 1 22 39
M  V30 43 1 23 40
M  V30 44 1 24 41
M  V30 45 1 25 42
M  V30 46 1 27 43
M  V30 END BOND
M  V30 END CTAB
M  END
>  <Dataset>  (865) 
ChEMBL_Kinases

>  <Ligand_Instance>  (865) 
nan

>  <PDB_ID>  (865) 
nan

>  <Standardized_SMILES>  (865) 
COc1cc(/C=N/Nc2ncnc3c2cnn3-c2ccccc2)ccc1O

>  <Name>  (865) 
nan

>  <Pocket>  (865) 
nan

>  <ATP_Site>  (865) 
nan

>  <Peripheral>  (865) 
nan

>  <Num_H_Atoms_ProtBoundConf>  (865) 
nan

>  <Num_Resolved_Atoms>  (865) 
nan

>  <Num_Not_Resolved_Atoms>  (865) 
nan

$$$$
CHEMBL3933684
     RDKit          3D

  0  0  0  0  0  0  0  0  0  0999 V3000
M  V30 BEGIN CTAB
M  V30 COUNTS 72 74 0 0 0
M  V30 BEGIN ATOM
M  V30 1 C 3.640111 -1.254163 2.327300 0
M  V30 2 C 4.705087 -1.481830 1.312803 0 CFG=2
M  V30 3 C 5.786569 -0.543469 1.183172 0
M  V30 4 C 5.996628 0.722769 1.399414 0
M  V30 5 C 4.970600 1.585780 1.899452 0
M  V30 6 O 5.419603 2.736293 2.085069 0
M  V30 7 C 3.870779 2.503413 2.433505 0 CFG=1
M  V30 8 O 4.655986 3.622476 2.960446 0
M  V30 9 C 2.975403 3.045883 1.403069 0 CFG=1
M  V30 10 O 3.562600 3.486037 0.220406 0
M  V30 11 C 1.596808 2.598483 1.207322 0
M  V30 12 C 1.287079 1.207660 0.855741 0
M  V30 13 C 0.584067 1.007781 -0.288067 0
M  V30 14 C 0.088464 -0.213094 -0.952251 0
M  V30 15 C -1.208228 0.030460 -1.442081 0
M  V30 16 C -1.962238 -0.925675 -2.081652 0
M  V30 17 N -3.281976 -0.630307 -2.564207 0
M  V30 18 C -4.202355 -1.538338 -3.127764 0
M  V30 19 C -5.533162 -1.461297 -2.366931 0
M  V30 20 N -5.515983 -1.752834 -1.022730 0
M  V30 21 C -4.942555 -0.848594 -0.109154 0
M  V30 22 C -4.504162 -1.547905 1.186517 0
M  V30 23 N -5.498732 -2.480343 1.608280 0
M  V30 24 C -5.570817 -2.621483 3.046086 0
M  V30 25 C -6.767913 -2.177287 1.029600 0
M  V30 26 C -6.747307 -2.266201 -0.495931 0
M  V30 27 C -1.443996 -2.173520 -2.260590 0
M  V30 28 C -0.176062 -2.412374 -1.781989 0
M  V30 29 O 0.394147 -3.682577 -1.941663 0
M  V30 30 C 0.579557 -1.459932 -1.141583 0
M  V30 31 C 1.885188 -1.868714 -0.652013 0
M  V30 32 O 1.830461 -3.032433 -0.136308 0
M  V30 33 O 3.187487 -1.374264 -0.571759 0
M  V30 34 C 4.223750 -2.128964 0.018549 0 CFG=1
M  V30 35 C 5.412798 -2.362408 -0.851001 0
M  V30 36 H 3.602278 -2.044472 3.145382 0
M  V30 37 H 3.797270 -0.324766 2.869540 0
M  V30 38 H 2.647236 -1.368592 1.838980 0
M  V30 39 H 5.263816 -2.420109 1.783186 0
M  V30 40 H 6.716947 -0.986272 0.783742 0
M  V30 41 H 6.991442 1.154106 1.195090 0
M  V30 42 H 3.361395 2.088488 3.272418 0
M  V30 43 H 4.075808 4.060126 3.661326 0
M  V30 44 H 2.761718 4.161520 1.870434 0
M  V30 45 H 3.348471 2.791512 -0.484394 0
M  V30 46 H 1.009573 2.897599 2.152884 0
M  V30 47 H 1.143937 3.304531 0.421038 0
M  V30 48 H 1.774788 0.790503 1.713702 0
M  V30 49 H 0.352148 1.960627 -0.812431 0
M  V30 50 H -1.733900 0.988729 -1.358388 0
M  V30 51 H -3.760866 0.291591 -2.608618 0
M  V30 52 H -4.466552 -1.322570 -4.186281 0
M  V30 53 H -3.802236 -2.582434 -3.030423 0
M  V30 54 H -6.277169 -2.076484 -2.962074 0
M  V30 55 H -5.865613 -0.390565 -2.579109 0
M  V30 56 H -4.144993 -0.176399 -0.430835 0
M  V30 57 H -5.818758 -0.199866 0.265440 0
M  V30 58 H -4.317216 -0.712611 1.899484 0
M  V30 59 H -3.561410 -2.111537 0.968084 0
M  V30 60 H -6.576499 -2.953145 3.362697 0
M  V30 61 H -4.851458 -3.409216 3.362756 0
M  V30 62 H -5.287049 -1.687604 3.575770 0
M  V30 63 H -7.218274 -1.228375 1.376445 0
M  V30 64 H -7.497473 -2.964370 1.379046 0
M  V30 65 H -7.608269 -1.657866 -0.853564 0
M  V30 66 H -6.913378 -3.335087 -0.794459 0
M  V30 67 H -1.916686 -3.002923 -2.741043 0
M  V30 68 H 0.214488 -4.225571 -2.797336 0
M  V30 69 H 3.803152 -3.095934 0.319488 0
M  V30 70 H 6.192058 -2.857278 -0.190952 0
M  V30 71 H 5.236610 -3.127333 -1.661386 0
M  V30 72 H 5.909247 -1.455113 -1.244067 0
M  V30 END ATOM
M  V30 BEGIN BOND
M  V30 1 1 1 2
M  V30 2 1 2 3
M  V30 3 2 3 4
M  V30 4 1 4 5
M  V30 5 2 5 6
M  V30 6 1 5 7
M  V30 7 1 7 8
M  V30 8 1 7 9
M  V30 9 1 9 10
M  V30 10 1 9 11
M  V30 11 1 11 12
M  V30 12 2 12 13
M  V30 13 1 13 14
M  V30 14 2 14 15
M  V30 15 1 15 16
M  V30 16 1 16 17
M  V30 17 1 17 18
M  V30 18 1 18 19
M  V30 19 1 19 20
M  V30 20 1 20 21
M  V30 21 1 21 22
M  V30 22 1 22 23
M  V30 23 1 23 24
M  V30 24 1 23 25
M  V30 25 1 25 26
M  V30 26 2 16 27
M  V30 27 1 27 28
M  V30 28 1 28 29
M  V30 29 2 28 30
M  V30 30 1 30 31
M  V30 31 2 31 32
M  V30 32 1 31 33
M  V30 33 1 33 34
M  V30 34 1 34 35
M  V30 35 1 34 2
M  V30 36 1 30 14
M  V30 37 1 26 20
M  V30 38 1 1 36
M  V30 39 1 1 37
M  V30 40 1 1 38
M  V30 41 1 2 39 CFG=1
M  V30 42 1 3 40
M  V30 43 1 4 41
M  V30 44 1 7 42 CFG=1
M  V30 45 1 8 43
M  V30 46 1 9 44 CFG=1
M  V30 47 1 10 45
M  V30 48 1 11 46
M  V30 49 1 11 47
M  V30 50 1 12 48
M  V30 51 1 13 49
M  V30 52 1 15 50
M  V30 53 1 17 51
M  V30 54 1 18 52
M  V30 55 1 18 53
M  V30 56 1 19 54
M  V30 57 1 19 55
M  V30 58 1 21 56
M  V30 59 1 21 57
M  V30 60 1 22 58
M  V30 61 1 22 59
M  V30 62 1 24 60
M  V30 63 1 24 61
M  V30 64 1 24 62
M  V30 65 1 25 63
M  V30 66 1 25 64
M  V30 67 1 26 65
M  V30 68 1 26 66
M  V30 69 1 27 67
M  V30 70 1 29 68
M  V30 71 1 34 69 CFG=1
M  V30 72 1 35 70
M  V30 73 1 35 71
M  V30 74 1 35 72
M  V30 END BOND
M  V30 END CTAB
M  END
>  <Dataset>  (866) 
ChEMBL_Kinases

>  <Ligand_Instance>  (866) 
nan

>  <PDB_ID>  (866) 
nan

>  <Standardized_SMILES>  (866) 
C[C@@H]1/C=C\C(=O)[C@@H](O)[C@@H](O)C/C=C/c2cc(NCCN3CCN(C)CC3)cc(O)c2C(=O)O[C@H]1C

>  <Name>  (866) 
nan

>  <Pocket>  (866) 
nan

>  <ATP_Site>  (866) 
nan

>  <Peripheral>  (866) 
nan

>  <Num_H_Atoms_ProtBoundConf>  (866) 
nan

>  <Num_Resolved_Atoms>  (866) 
nan

>  <Num_Not_Resolved_Atoms>  (866) 
nan

$$$$
CHEMBL63544
     RDKit          3D

  0  0  0  0  0  0  0  0  0  0999 V3000
M  V30 BEGIN CTAB
M  V30 COUNTS 39 41 0 0 0
M  V30 BEGIN ATOM
M  V30 1 O -0.447979 -1.748504 4.280613 0
M  V30 2 C -0.832185 -1.651694 3.085721 0
M  V30 3 N -0.158454 -0.671438 2.301480 0
M  V30 4 C 0.904236 0.308847 2.481905 0 CFG=1
M  V30 5 C 2.120677 0.072266 1.774711 0
M  V30 6 C 2.270167 -0.034412 0.348505 0
M  V30 7 C 2.430932 -1.235978 -0.370621 0
M  V30 8 N 2.542808 -1.050949 -1.687718 0
M  V30 9 C 2.462552 0.282872 -1.914452 0
M  V30 10 C 2.519240 1.011165 -3.076962 0
M  V30 11 C 2.410378 2.372483 -3.015044 0
M  V30 12 C 2.245671 3.010893 -1.801376 0
M  V30 13 C 2.191689 2.257521 -0.647219 0
M  V30 14 C 2.299590 0.884171 -0.691937 0
M  V30 15 C 0.396734 1.710159 2.607251 0
M  V30 16 O 1.014805 2.813690 2.788117 0
M  V30 17 O -0.961444 1.913619 2.521627 0
M  V30 18 C -1.877330 -2.417024 2.411706 0
M  V30 19 C -2.319066 -2.318796 1.099093 0
M  V30 20 C -3.330403 -3.151468 0.672754 0
M  V30 21 C -3.937086 -4.087575 1.482068 0
M  V30 22 Cl -5.207401 -5.063155 0.777525 0
M  V30 23 C -3.475777 -4.166212 2.795276 0
M  V30 24 C -2.468896 -3.342935 3.233231 0
M  V30 25 H -0.314338 -0.425017 1.297458 0
M  V30 26 H 1.168683 0.151141 3.581328 0
M  V30 27 H 2.620803 -0.814758 2.231131 0
M  V30 28 H 2.829445 0.909479 2.072233 0
M  V30 29 H 2.459289 -2.220855 0.123013 0
M  V30 30 H 2.667155 -1.823486 -2.368586 0
M  V30 31 H 2.650751 0.467940 -4.017655 0
M  V30 32 H 2.457871 2.919026 -3.946144 0
M  V30 33 H 2.166190 4.089062 -1.822869 0
M  V30 34 H 2.067954 2.740632 0.274487 0
M  V30 35 H -1.420100 2.616107 3.060735 0
M  V30 36 H -1.800584 -1.567025 0.523154 0
M  V30 37 H -3.566881 -2.953321 -0.384699 0
M  V30 38 H -3.972396 -4.909631 3.401486 0
M  V30 39 H -2.220336 -3.517644 4.264789 0
M  V30 END ATOM
M  V30 BEGIN BOND
M  V30 1 2 1 2
M  V30 2 1 2 3
M  V30 3 1 3 4
M  V30 4 1 4 5
M  V30 5 1 5 6
M  V30 6 2 6 7
M  V30 7 1 7 8
M  V30 8 1 8 9
M  V30 9 2 9 10
M  V30 10 1 10 11
M  V30 11 2 11 12
M  V30 12 1 12 13
M  V30 13 2 13 14
M  V30 14 1 4 15
M  V30 15 2 15 16
M  V30 16 1 15 17
M  V30 17 1 2 18
M  V30 18 2 18 19
M  V30 19 1 19 20
M  V30 20 2 20 21
M  V30 21 1 21 22
M  V30 22 1 21 23
M  V30 23 2 23 24
M  V30 24 1 14 6
M  V30 25 1 24 18
M  V30 26 1 14 9
M  V30 27 1 3 25
M  V30 28 1 4 26 CFG=1
M  V30 29 1 5 27
M  V30 30 1 5 28
M  V30 31 1 7 29
M  V30 32 1 8 30
M  V30 33 1 10 31
M  V30 34 1 11 32
M  V30 35 1 12 33
M  V30 36 1 13 34
M  V30 37 1 17 35
M  V30 38 1 19 36
M  V30 39 1 20 37
M  V30 40 1 23 38
M  V30 41 1 24 39
M  V30 END BOND
M  V30 END CTAB
M  END
>  <Dataset>  (867) 
ChEMBL_Kinases

>  <Ligand_Instance>  (867) 
nan

>  <PDB_ID>  (867) 
nan

>  <Standardized_SMILES>  (867) 
O=C(N[C@@H](Cc1c[nH]c2ccccc12)C(=O)O)c1ccc(Cl)cc1

>  <Name>  (867) 
BENZOTRIPT

>  <Pocket>  (867) 
nan

>  <ATP_Site>  (867) 
nan

>  <Peripheral>  (867) 
nan

>  <Num_H_Atoms_ProtBoundConf>  (867) 
nan

>  <Num_Resolved_Atoms>  (867) 
nan

>  <Num_Not_Resolved_Atoms>  (867) 
nan

$$$$
CHEMBL3934673
     RDKit          3D

  0  0  0  0  0  0  0  0  0  0999 V3000
M  V30 BEGIN CTAB
M  V30 COUNTS 55 58 0 0 0
M  V30 BEGIN ATOM
M  V30 1 C 6.149235 1.733314 0.082008 0
M  V30 2 C 5.146738 2.104539 1.184367 0
M  V30 3 N 4.797570 1.004721 2.038762 0
M  V30 4 N 5.365283 0.635699 3.208413 0
M  V30 5 C 4.788656 -0.428523 3.739787 0
M  V30 6 C 3.784772 -0.807751 2.904232 0
M  V30 7 C 2.846750 -1.808031 2.867238 0
M  V30 8 C 2.024279 -1.835937 1.817203 0
M  V30 9 N 2.087656 -0.947894 0.838930 0
M  V30 10 C 2.947327 0.016030 0.821427 0
M  V30 11 C 3.825903 0.100681 1.872005 0
M  V30 12 C 2.657039 0.739014 -0.399685 0
M  V30 13 C 1.357445 1.455430 -0.483987 0 CFG=2
M  V30 14 O 1.385592 2.358019 0.649252 0
M  V30 15 C 0.040159 0.903988 -0.538597 0
M  V30 16 O -0.404184 -0.028805 -1.478598 0
M  V30 17 C -1.801416 -0.299661 -1.170853 0
M  V30 18 C -2.049016 -1.829319 -1.167329 0 CFG=2
M  V30 19 C -3.483896 -2.029414 -0.685394 0
M  V30 20 C -4.543851 -2.558247 -1.426409 0
M  V30 21 C -5.730107 -2.644586 -0.767965 0
M  V30 22 C -5.924806 -2.251230 0.538237 0
M  V30 23 O -7.186360 -2.374450 1.143804 0
M  V30 24 C -8.263759 -2.908211 0.395769 0
M  V30 25 C -4.858145 -1.735290 1.236152 0
M  V30 26 F -5.105384 -1.362863 2.520643 0
M  V30 27 C -3.595519 -1.614198 0.621374 0
M  V30 28 N -1.099308 -2.209444 -0.270801 0
M  V30 29 C -0.154333 -2.611054 0.633901 0
M  V30 30 O -0.303868 -3.681085 1.114640 0
M  V30 31 N 0.930514 -2.728388 1.480271 0
M  V30 32 H 6.185599 2.472519 -0.717356 0
M  V30 33 H 5.763477 0.780235 -0.335844 0
M  V30 34 H 7.150794 1.528653 0.508728 0
M  V30 35 H 4.419211 2.852780 0.953903 0
M  V30 36 H 5.838424 2.730022 1.880504 0
M  V30 37 H 4.958870 -1.002249 4.652282 0
M  V30 38 H 2.645905 -2.589500 3.553425 0
M  V30 39 H 2.649620 0.074949 -1.317144 0
M  V30 40 H 3.417896 1.527986 -0.524577 0
M  V30 41 H 1.433994 2.236656 -1.336177 0
M  V30 42 H 2.132673 2.978150 0.576694 0
M  V30 43 H -0.274445 0.594591 0.527434 0
M  V30 44 H -0.701240 1.766317 -0.680158 0
M  V30 45 H -2.347471 0.158374 -1.968471 0
M  V30 46 H -2.085242 0.137233 -0.216941 0
M  V30 47 H -2.082771 -2.241778 -2.153534 0
M  V30 48 H -4.245780 -2.818794 -2.433860 0
M  V30 49 H -6.530511 -3.054831 -1.357154 0
M  V30 50 H -8.321038 -2.390889 -0.607606 0
M  V30 51 H -8.154476 -3.984008 0.157133 0
M  V30 52 H -9.255040 -2.716816 0.889611 0
M  V30 53 H -2.831453 -1.205484 1.241389 0
M  V30 54 H -0.441762 -1.496005 -0.518791 0
M  V30 55 H 0.988878 -3.636102 2.014962 0
M  V30 END ATOM
M  V30 BEGIN BOND
M  V30 1 1 1 2
M  V30 2 1 2 3
M  V30 3 1 3 4
M  V30 4 2 4 5
M  V30 5 1 5 6
M  V30 6 2 6 7
M  V30 7 1 7 8
M  V30 8 2 8 9
M  V30 9 1 9 10
M  V30 10 2 10 11
M  V30 11 1 10 12
M  V30 12 1 12 13
M  V30 13 1 13 14
M  V30 14 1 13 15
M  V30 15 1 15 16
M  V30 16 1 16 17
M  V30 17 1 17 18
M  V30 18 1 18 19
M  V30 19 2 19 20
M  V30 20 1 20 21
M  V30 21 2 21 22
M  V30 22 1 22 23
M  V30 23 1 23 24
M  V30 24 1 22 25
M  V30 25 1 25 26
M  V30 26 2 25 27
M  V30 27 1 18 28
M  V30 28 1 28 29
M  V30 29 2 29 30
M  V30 30 1 29 31
M  V30 31 1 11 3
M  V30 32 1 27 19
M  V30 33 1 11 6
M  V30 34 1 31 8
M  V30 35 1 1 32
M  V30 36 1 1 33
M  V30 37 1 1 34
M  V30 38 1 2 35
M  V30 39 1 2 36
M  V30 40 1 5 37
M  V30 41 1 7 38
M  V30 42 1 12 39
M  V30 43 1 12 40
M  V30 44 1 13 41 CFG=3
M  V30 45 1 14 42
M  V30 46 1 15 43
M  V30 47 1 15 44
M  V30 48 1 17 45
M  V30 49 1 17 46
M  V30 50 1 18 47 CFG=3
M  V30 51 1 20 48
M  V30 52 1 21 49
M  V30 53 1 24 50
M  V30 54 1 24 51
M  V30 55 1 24 52
M  V30 56 1 27 53
M  V30 57 1 28 54
M  V30 58 1 31 55
M  V30 END BOND
M  V30 END CTAB
M  END
>  <Dataset>  (868) 
ChEMBL_Kinases

>  <Ligand_Instance>  (868) 
nan

>  <PDB_ID>  (868) 
nan

>  <Standardized_SMILES>  (868) 
CCn1ncc2cc3nc(c21)C[C@H](O)COC[C@H](c1ccc(OC)c(F)c1)NC(=O)N3

>  <Name>  (868) 
nan

>  <Pocket>  (868) 
nan

>  <ATP_Site>  (868) 
nan

>  <Peripheral>  (868) 
nan

>  <Num_H_Atoms_ProtBoundConf>  (868) 
nan

>  <Num_Resolved_Atoms>  (868) 
nan

>  <Num_Not_Resolved_Atoms>  (868) 
nan

$$$$
CHEMBL3938119
     RDKit          3D

  0  0  0  0  0  0  0  0  0  0999 V3000
M  V30 BEGIN CTAB
M  V30 COUNTS 47 51 0 0 0
M  V30 BEGIN ATOM
M  V30 1 O -5.160837 1.502244 3.810072 0
M  V30 2 C -4.055623 0.980286 3.504726 0
M  V30 3 C -3.539586 0.184417 4.640778 0
M  V30 4 O -2.202033 -0.166955 4.366388 0
M  V30 5 C -1.643736 0.039582 3.134145 0
M  V30 6 C -0.352312 -0.460605 2.925970 0
M  V30 7 C 0.329879 -0.320591 1.724559 0
M  V30 8 C -0.270366 0.335593 0.677644 0
M  V30 9 C 0.367165 0.535970 -0.630065 0
M  V30 10 O -0.490829 1.101437 -1.564628 0
M  V30 11 C 1.547633 1.427201 -0.371473 0
M  V30 12 C 1.409647 2.740793 0.067708 0
M  V30 13 C 2.553533 3.477963 0.305839 0
M  V30 14 C 3.776629 2.878905 0.097678 0
M  V30 15 C 3.902396 1.577082 -0.337947 0
M  V30 16 C 2.771176 0.831100 -0.579629 0
M  V30 17 C 2.405247 -0.500097 -1.043718 0
M  V30 18 O 3.388379 -1.276482 -1.311778 0
M  V30 19 N 0.970947 -0.675842 -1.108129 0
M  V30 20 C 0.546716 -1.953549 -1.629109 0
M  V30 21 C 0.383602 -2.995853 -0.604947 0
M  V30 22 C 1.451199 -3.879017 -0.480422 0
M  V30 23 C 1.496214 -4.911088 0.432226 0
M  V30 24 Br 2.998130 -6.090150 0.550075 0
M  V30 25 C 0.453761 -5.114961 1.283061 0
M  V30 26 C -0.603926 -4.261970 1.179249 0
M  V30 27 C -0.651350 -3.231612 0.269269 0
M  V30 28 F -1.708597 -2.395256 0.152239 0
M  V30 29 C -1.555771 0.848213 0.844596 0
M  V30 30 C -2.201516 0.689063 2.053511 0
M  V30 31 N -3.509038 1.214346 2.213158 0
M  V30 32 H -3.641817 0.713510 5.608653 0
M  V30 33 H -4.141666 -0.768646 4.647518 0
M  V30 34 H 0.191384 -0.995947 3.715154 0
M  V30 35 H 1.324017 -0.722314 1.609006 0
M  V30 36 H -0.474884 0.509067 -2.364289 0
M  V30 37 H 0.488694 3.256624 0.245820 0
M  V30 38 H 2.532091 4.504568 0.648090 0
M  V30 39 H 4.708245 3.414753 0.270594 0
M  V30 40 H 4.846445 1.086016 -0.508138 0
M  V30 41 H -0.458815 -1.784686 -2.142452 0
M  V30 42 H 1.196522 -2.297225 -2.446540 0
M  V30 43 H 2.340676 -3.808471 -1.112733 0
M  V30 44 H 0.475963 -5.918981 2.002785 0
M  V30 45 H -1.482285 -4.354471 1.823289 0
M  V30 46 H -2.079608 1.373790 0.057759 0
M  V30 47 H -4.041612 1.717976 1.496035 0
M  V30 END ATOM
M  V30 BEGIN BOND
M  V30 1 2 1 2
M  V30 2 1 2 3
M  V30 3 1 3 4
M  V30 4 1 4 5
M  V30 5 2 5 6
M  V30 6 1 6 7
M  V30 7 2 7 8
M  V30 8 1 8 9
M  V30 9 1 9 10
M  V30 10 1 9 11
M  V30 11 2 11 12
M  V30 12 1 12 13
M  V30 13 2 13 14
M  V30 14 1 14 15
M  V30 15 2 15 16
M  V30 16 1 16 17
M  V30 17 2 17 18
M  V30 18 1 17 19
M  V30 19 1 19 20
M  V30 20 1 20 21
M  V30 21 2 21 22
M  V30 22 1 22 23
M  V30 23 1 23 24
M  V30 24 2 23 25
M  V30 25 1 25 26
M  V30 26 2 26 27
M  V30 27 1 27 28
M  V30 28 1 8 29
M  V30 29 2 29 30
M  V30 30 1 30 31
M  V30 31 1 31 2
M  V30 32 1 30 5
M  V30 33 1 19 9
M  V30 34 1 27 21
M  V30 35 1 16 11
M  V30 36 1 3 32
M  V30 37 1 3 33
M  V30 38 1 6 34
M  V30 39 1 7 35
M  V30 40 1 10 36
M  V30 41 1 12 37
M  V30 42 1 13 38
M  V30 43 1 14 39
M  V30 44 1 15 40
M  V30 45 1 20 41
M  V30 46 1 20 42
M  V30 47 1 22 43
M  V30 48 1 25 44
M  V30 49 1 26 45
M  V30 50 1 29 46
M  V30 51 1 31 47
M  V30 END BOND
M  V30 END CTAB
M  END
>  <Dataset>  (869) 
ChEMBL_Kinases

>  <Ligand_Instance>  (869) 
nan

>  <PDB_ID>  (869) 
nan

>  <Standardized_SMILES>  (869) 
O=C1COc2ccc(C3(O)c4ccccc4C(=O)N3Cc3cc(Br)ccc3F)cc2N1

>  <Name>  (869) 
nan

>  <Pocket>  (869) 
nan

>  <ATP_Site>  (869) 
nan

>  <Peripheral>  (869) 
nan

>  <Num_H_Atoms_ProtBoundConf>  (869) 
nan

>  <Num_Resolved_Atoms>  (869) 
nan

>  <Num_Not_Resolved_Atoms>  (869) 
nan

$$$$
CHEMBL3937879
     RDKit          3D

  0  0  0  0  0  0  0  0  0  0999 V3000
M  V30 BEGIN CTAB
M  V30 COUNTS 46 50 0 0 0
M  V30 BEGIN ATOM
M  V30 1 C -0.531606 -5.470406 3.572397 0
M  V30 2 O -0.929114 -6.074296 2.363556 0
M  V30 3 C -1.086719 -5.339160 1.195757 0
M  V30 4 C -0.867485 -3.992956 1.146688 0
M  V30 5 C -1.038492 -3.293029 -0.051340 0
M  V30 6 C -0.774277 -1.864309 0.026705 0
M  V30 7 C 0.367217 -1.475006 0.703539 0
M  V30 8 C 0.724571 -0.132163 0.843766 0
M  V30 9 C -0.098425 0.831023 0.282774 0
M  V30 10 C -0.063732 2.210353 0.223088 0
M  V30 11 C 0.966860 3.072331 0.804203 0
M  V30 12 N 2.048946 2.660231 1.491659 0
M  V30 13 C 2.782897 3.737802 1.878288 0
M  V30 14 C 3.959918 3.853216 2.592972 0
M  V30 15 C 4.430649 5.134664 2.806290 0
M  V30 16 C 3.787175 6.288243 2.344161 0
M  V30 17 C 2.609102 6.075742 1.634531 0
M  V30 18 C 2.084277 4.822829 1.386379 0
M  V30 19 N 0.976600 4.417094 0.731242 0
M  V30 20 N -1.138284 2.642955 -0.460955 0
M  V30 21 N -1.875278 1.590536 -0.850931 0
M  V30 22 C -1.253009 0.468096 -0.403632 0
M  V30 23 C -1.560578 -0.872476 -0.513477 0
M  V30 24 C -1.431302 -3.988099 -1.176408 0
M  V30 25 C -1.599897 -3.212178 -2.418390 0
M  V30 26 C -1.652040 -5.356113 -1.118116 0
M  V30 27 C -1.477878 -6.027492 0.072725 0
M  V30 28 O -1.717576 -7.400608 0.056628 0
M  V30 29 H -0.617491 -6.204217 4.389288 0
M  V30 30 H 0.494585 -5.069734 3.448762 0
M  V30 31 H -1.246671 -4.636424 3.790768 0
M  V30 32 H -0.561907 -3.517677 2.068188 0
M  V30 33 H 1.078157 -2.134720 1.178043 0
M  V30 34 H 1.613284 0.197881 1.369140 0
M  V30 35 H 4.492916 2.991719 2.970238 0
M  V30 36 H 5.359754 5.311599 3.365383 0
M  V30 37 H 4.189072 7.272916 2.532711 0
M  V30 38 H 2.131581 6.982866 1.288595 0
M  V30 39 H 0.297609 5.079472 0.276179 0
M  V30 40 H -2.766782 1.529246 -1.393791 0
M  V30 41 H -2.449922 -1.177199 -1.040703 0
M  V30 42 H -2.653810 -2.945783 -2.650154 0
M  V30 43 H -0.923270 -2.338444 -2.483033 0
M  V30 44 H -1.297674 -3.899085 -3.258266 0
M  V30 45 H -1.962067 -5.873768 -2.027949 0
M  V30 46 H -1.931589 -7.921940 0.900404 0
M  V30 END ATOM
M  V30 BEGIN BOND
M  V30 1 1 1 2
M  V30 2 1 2 3
M  V30 3 2 3 4
M  V30 4 1 4 5
M  V30 5 1 5 6
M  V30 6 2 6 7
M  V30 7 1 7 8
M  V30 8 2 8 9
M  V30 9 1 9 10
M  V30 10 1 10 11
M  V30 11 2 11 12
M  V30 12 1 12 13
M  V30 13 2 13 14
M  V30 14 1 14 15
M  V30 15 2 15 16
M  V30 16 1 16 17
M  V30 17 2 17 18
M  V30 18 1 18 19
M  V30 19 2 10 20
M  V30 20 1 20 21
M  V30 21 1 21 22
M  V30 22 2 22 23
M  V30 23 2 5 24
M  V30 24 1 24 25
M  V30 25 1 24 26
M  V30 26 2 26 27
M  V30 27 1 27 28
M  V30 28 1 27 3
M  V30 29 1 23 6
M  V30 30 1 22 9
M  V30 31 1 19 11
M  V30 32 1 18 13
M  V30 33 1 1 29
M  V30 34 1 1 30
M  V30 35 1 1 31
M  V30 36 1 4 32
M  V30 37 1 7 33
M  V30 38 1 8 34
M  V30 39 1 14 35
M  V30 40 1 15 36
M  V30 41 1 16 37
M  V30 42 1 17 38
M  V30 43 1 19 39
M  V30 44 1 21 40
M  V30 45 1 23 41
M  V30 46 1 25 42
M  V30 47 1 25 43
M  V30 48 1 25 44
M  V30 49 1 26 45
M  V30 50 1 28 46
M  V30 END BOND
M  V30 END CTAB
M  END
>  <Dataset>  (870) 
ChEMBL_Kinases

>  <Ligand_Instance>  (870) 
nan

>  <PDB_ID>  (870) 
nan

>  <Standardized_SMILES>  (870) 
COc1cc(-c2ccc3c(-c4nc5ccccc5[nH]4)n[nH]c3c2)c(C)cc1O

>  <Name>  (870) 
nan

>  <Pocket>  (870) 
nan

>  <ATP_Site>  (870) 
nan

>  <Peripheral>  (870) 
nan

>  <Num_H_Atoms_ProtBoundConf>  (870) 
nan

>  <Num_Resolved_Atoms>  (870) 
nan

>  <Num_Not_Resolved_Atoms>  (870) 
nan

$$$$
CHEMBL3937721
     RDKit          3D

  0  0  0  0  0  0  0  0  0  0999 V3000
M  V30 BEGIN CTAB
M  V30 COUNTS 40 44 0 0 0
M  V30 BEGIN ATOM
M  V30 1 N 2.009517 -4.459063 3.463329 0
M  V30 2 C 2.462067 -4.356777 2.382356 0
M  V30 3 C 3.003572 -4.217674 1.032632 0
M  V30 4 C 2.376892 -3.055730 0.357210 0
M  V30 5 C 2.992321 -1.835625 0.498265 0
M  V30 6 C 2.388810 -0.773243 -0.139672 0
M  V30 7 C 1.219874 -0.804325 -0.913283 0
M  V30 8 N 0.737202 0.384112 -1.516555 0
M  V30 9 C 1.189986 0.672735 -2.754815 0
M  V30 10 N 0.629815 1.826471 -3.164970 0
M  V30 11 C -0.194807 2.288298 -2.179184 0
M  V30 12 C -0.998810 3.406014 -2.076000 0
M  V30 13 N -1.709766 3.576080 -0.932862 0
M  V30 14 C -1.605667 2.647962 0.060809 0
M  V30 15 C -2.337312 2.841903 1.212861 0
M  V30 16 N -2.243370 1.937935 2.194925 0
M  V30 17 C -1.495495 0.845279 2.167029 0
M  V30 18 C -1.492785 -0.053218 3.316778 0
M  V30 19 C -0.735676 -1.191840 3.330263 0
M  V30 20 C -0.725460 -2.021217 4.376804 0
M  V30 21 S -1.838886 -1.274133 5.549090 0
M  V30 22 C -2.255195 0.182550 4.474002 0
M  V30 23 C -0.751581 0.623083 1.027800 0
M  V30 24 C -0.813644 1.521343 -0.007985 0
M  V30 25 C -0.102941 1.368048 -1.172193 0
M  V30 26 C 0.659080 -2.069622 -1.007862 0
M  V30 27 C 1.231998 -3.158959 -0.384392 0
M  V30 28 H 4.111185 -4.059564 1.165040 0
M  V30 29 H 2.799607 -5.176937 0.499302 0
M  V30 30 H 3.892696 -1.649176 1.058201 0
M  V30 31 H 2.859977 0.216846 -0.044064 0
M  V30 32 H 1.885885 0.161595 -3.430656 0
M  V30 33 H -1.008554 4.071018 -2.912173 0
M  V30 34 H -2.995427 3.702786 1.366759 0
M  V30 35 H -0.085186 -1.553389 2.549074 0
M  V30 36 H -0.275277 -2.938881 4.694134 0
M  V30 37 H -2.922617 1.050483 4.636691 0
M  V30 38 H -0.159713 -0.251708 1.018656 0
M  V30 39 H -0.251976 -2.131702 -1.602432 0
M  V30 40 H 0.753143 -4.140202 -0.487086 0
M  V30 END ATOM
M  V30 BEGIN BOND
M  V30 1 3 1 2
M  V30 2 1 2 3
M  V30 3 1 3 4
M  V30 4 2 4 5
M  V30 5 1 5 6
M  V30 6 2 6 7
M  V30 7 1 7 8
M  V30 8 1 8 9
M  V30 9 2 9 10
M  V30 10 1 10 11
M  V30 11 2 11 12
M  V30 12 1 12 13
M  V30 13 2 13 14
M  V30 14 1 14 15
M  V30 15 2 15 16
M  V30 16 1 16 17
M  V30 17 1 17 18
M  V30 18 1 18 19
M  V30 19 2 19 20
M  V30 20 1 20 21
M  V30 21 1 21 22
M  V30 22 2 17 23
M  V30 23 1 23 24
M  V30 24 2 24 25
M  V30 25 1 7 26
M  V30 26 2 26 27
M  V30 27 1 27 4
M  V30 28 1 25 8
M  V30 29 1 25 11
M  V30 30 1 24 14
M  V30 31 2 22 18
M  V30 32 1 3 28
M  V30 33 1 3 29
M  V30 34 1 5 30
M  V30 35 1 6 31
M  V30 36 1 9 32
M  V30 37 1 12 33
M  V30 38 1 15 34
M  V30 39 1 19 35
M  V30 40 1 20 36
M  V30 41 1 22 37
M  V30 42 1 23 38
M  V30 43 1 26 39
M  V30 44 1 27 40
M  V30 END BOND
M  V30 END CTAB
M  END
>  <Dataset>  (871) 
ChEMBL_Kinases

>  <Ligand_Instance>  (871) 
nan

>  <PDB_ID>  (871) 
nan

>  <Standardized_SMILES>  (871) 
N#CCc1ccc(-n2cnc3cnc4cnc(-c5ccsc5)cc4c32)cc1

>  <Name>  (871) 
nan

>  <Pocket>  (871) 
nan

>  <ATP_Site>  (871) 
nan

>  <Peripheral>  (871) 
nan

>  <Num_H_Atoms_ProtBoundConf>  (871) 
nan

>  <Num_Resolved_Atoms>  (871) 
nan

>  <Num_Not_Resolved_Atoms>  (871) 
nan

$$$$
CHEMBL3937431
     RDKit          3D

  0  0  0  0  0  0  0  0  0  0999 V3000
M  V30 BEGIN CTAB
M  V30 COUNTS 48 50 0 0 0
M  V30 BEGIN ATOM
M  V30 1 C -3.219706 -3.085208 -1.038705 0
M  V30 2 C -1.749396 -2.908526 -1.061693 0
M  V30 3 C -1.093840 -1.948032 -1.802835 0
M  V30 4 C 0.241700 -2.153431 -1.520452 0
M  V30 5 N 1.411516 -1.493709 -1.969154 0
M  V30 6 C 2.104687 -0.359063 -1.413791 0
M  V30 7 C 3.240213 0.105887 -2.042945 0
M  V30 8 C 3.836467 1.183502 -1.453049 0
M  V30 9 C 5.068629 1.769939 -2.045288 0
M  V30 10 C 3.327522 1.757154 -0.307591 0
M  V30 11 C 3.986175 2.892692 0.283475 0
M  V30 12 N 4.515873 3.809675 0.776417 0
M  V30 13 C 2.173448 1.272765 0.318759 0
M  V30 14 N 1.630620 1.842240 1.490099 0
M  V30 15 C 0.437378 1.363588 2.164251 0
M  V30 16 C 0.564826 -0.043277 2.646521 0
M  V30 17 O -0.545574 -0.537332 3.292402 0
M  V30 18 C -1.819639 -0.746307 2.902986 0
M  V30 19 C -2.586615 -0.596054 1.771158 0
M  V30 20 C -3.913956 -0.926760 1.730273 0
M  V30 21 C -4.544271 -1.433839 2.845930 0
M  V30 22 N -3.834327 -1.606005 3.999643 0
M  V30 23 C -2.509125 -1.266813 4.011862 0
M  V30 24 C -1.987244 -1.558908 5.396580 0
M  V30 25 N 1.638459 0.213490 -0.312524 0
M  V30 26 N 0.358332 -3.190543 -0.650969 0
M  V30 27 N -0.866767 -3.658672 -0.365775 0
M  V30 28 H -3.558769 -3.985906 -1.589005 0
M  V30 29 H -3.545414 -3.265877 0.027299 0
M  V30 30 H -3.717743 -2.160269 -1.347987 0
M  V30 31 H -1.452030 -1.179928 -2.469608 0
M  V30 32 H 1.747347 -1.965148 -2.827682 0
M  V30 33 H 3.646236 -0.330152 -2.932905 0
M  V30 34 H 5.519452 2.511214 -1.369604 0
M  V30 35 H 5.802971 0.924350 -2.136695 0
M  V30 36 H 4.872126 2.202020 -3.046024 0
M  V30 37 H 2.165240 2.679637 1.872203 0
M  V30 38 H -0.465938 1.479986 1.544730 0
M  V30 39 H 0.279912 1.995102 3.065206 0
M  V30 40 H 0.874987 -0.650865 1.755182 0
M  V30 41 H 1.426494 -0.136611 3.377153 0
M  V30 42 H -1.983090 -0.200574 0.968140 0
M  V30 43 H -4.390499 -0.755333 0.774702 0
M  V30 44 H -5.600889 -1.672643 2.734127 0
M  V30 45 H -0.866598 -1.436235 5.391984 0
M  V30 46 H -2.480770 -0.872811 6.087533 0
M  V30 47 H -2.243120 -2.594216 5.702935 0
M  V30 48 H -1.151265 -4.451407 0.267457 0
M  V30 END ATOM
M  V30 BEGIN BOND
M  V30 1 1 1 2
M  V30 2 2 2 3
M  V30 3 1 3 4
M  V30 4 1 4 5
M  V30 5 1 5 6
M  V30 6 2 6 7
M  V30 7 1 7 8
M  V30 8 1 8 9
M  V30 9 2 8 10
M  V30 10 1 10 11
M  V30 11 3 11 12
M  V30 12 1 10 13
M  V30 13 1 13 14
M  V30 14 1 14 15
M  V30 15 1 15 16
M  V30 16 1 16 17
M  V30 17 1 17 18
M  V30 18 2 18 19
M  V30 19 1 19 20
M  V30 20 2 20 21
M  V30 21 1 21 22
M  V30 22 2 22 23
M  V30 23 1 23 24
M  V30 24 2 13 25
M  V30 25 2 4 26
M  V30 26 1 26 27
M  V30 27 1 27 2
M  V30 28 1 25 6
M  V30 29 1 23 18
M  V30 30 1 1 28
M  V30 31 1 1 29
M  V30 32 1 1 30
M  V30 33 1 3 31
M  V30 34 1 5 32
M  V30 35 1 7 33
M  V30 36 1 9 34
M  V30 37 1 9 35
M  V30 38 1 9 36
M  V30 39 1 14 37
M  V30 40 1 15 38
M  V30 41 1 15 39
M  V30 42 1 16 40
M  V30 43 1 16 41
M  V30 44 1 19 42
M  V30 45 1 20 43
M  V30 46 1 21 44
M  V30 47 1 24 45
M  V30 48 1 24 46
M  V30 49 1 24 47
M  V30 50 1 27 48
M  V30 END BOND
M  V30 END CTAB
M  END
>  <Dataset>  (872) 
ChEMBL_Kinases

>  <Ligand_Instance>  (872) 
nan

>  <PDB_ID>  (872) 
nan

>  <Standardized_SMILES>  (872) 
Cc1cc(Nc2cc(C)c(C#N)c(NCCOc3cccnc3C)n2)n[nH]1

>  <Name>  (872) 
nan

>  <Pocket>  (872) 
nan

>  <ATP_Site>  (872) 
nan

>  <Peripheral>  (872) 
nan

>  <Num_H_Atoms_ProtBoundConf>  (872) 
nan

>  <Num_Resolved_Atoms>  (872) 
nan

>  <Num_Not_Resolved_Atoms>  (872) 
nan

$$$$
CHEMBL64894
     RDKit          3D

  0  0  0  0  0  0  0  0  0  0999 V3000
M  V30 BEGIN CTAB
M  V30 COUNTS 58 60 0 0 0
M  V30 BEGIN ATOM
M  V30 1 C -5.757049 0.064329 -4.427232 0
M  V30 2 N -5.629722 -0.392584 -3.052411 0
M  V30 3 C -6.800684 -0.892157 -2.356312 0
M  V30 4 C -4.372654 -0.353825 -2.389351 0
M  V30 5 C -3.238436 0.107596 -3.005419 0
M  V30 6 C -2.062977 0.109929 -2.284646 0
M  V30 7 C -1.914327 -0.322525 -0.958425 0
M  V30 8 C -0.569426 -0.254826 -0.406893 0
M  V30 9 C 0.451410 -0.851701 -0.998910 0
M  V30 10 C 0.349401 -1.619881 -2.230145 0
M  V30 11 C 1.336667 -2.239023 -2.853059 0
M  V30 12 C 2.669544 -2.163698 -2.273898 0
M  V30 13 N 3.654434 -2.745180 -2.839877 0 CHG=1 VAL=4
M  V30 14 C 5.003370 -2.677466 -2.266926 0
M  V30 15 C 3.446316 -3.491525 -4.076237 0
M  V30 16 C 2.857204 -1.413694 -1.039030 0
M  V30 17 C 1.811712 -0.825031 -0.483772 0
M  V30 18 C -0.348909 0.560855 0.774850 0
M  V30 19 C -0.915556 0.572114 2.022065 0
M  V30 20 C -0.550395 1.509513 2.959193 0
M  V30 21 C 0.389664 2.492759 2.736664 0
M  V30 22 N 0.743954 3.444451 3.721148 0
M  V30 23 C 1.746157 4.452186 3.411052 0
M  V30 24 C 0.113529 3.413512 5.024856 0
M  V30 25 C 0.980194 2.509897 1.491040 0
M  V30 26 C 0.606428 1.565668 0.559215 0
M  V30 27 C -3.085233 -0.772667 -0.397851 0
M  V30 28 C -4.272882 -0.788518 -1.086508 0
M  V30 29 H -5.306807 -0.641219 -5.136068 0
M  V30 30 H -6.816135 0.303110 -4.659061 0
M  V30 31 H -5.193622 1.028380 -4.522821 0
M  V30 32 H -6.703680 -2.006454 -2.339211 0
M  V30 33 H -7.698721 -0.651215 -2.940992 0
M  V30 34 H -6.894866 -0.469131 -1.328640 0
M  V30 35 H -3.307178 0.449648 -4.027245 0
M  V30 36 H -1.222294 0.511509 -2.874911 0
M  V30 37 H -0.604836 -1.742343 -2.715978 0
M  V30 38 H 1.202801 -2.796266 -3.766336 0
M  V30 39 H 4.998487 -3.257634 -1.320626 0
M  V30 40 H 5.289157 -1.610336 -2.124040 0
M  V30 41 H 5.724123 -3.163892 -2.934210 0
M  V30 42 H 3.109985 -2.812619 -4.908985 0
M  V30 43 H 2.693768 -4.305177 -3.945581 0
M  V30 44 H 4.377132 -3.979041 -4.408173 0
M  V30 45 H 3.858080 -1.376635 -0.633047 0
M  V30 46 H 2.064278 -0.315916 0.430699 0
M  V30 47 H -1.640353 -0.201793 2.186341 0
M  V30 48 H -1.060492 1.434792 3.925077 0
M  V30 49 H 1.928727 5.108465 4.263398 0
M  V30 50 H 1.284501 5.080176 2.601892 0
M  V30 51 H 2.664141 3.984954 2.986033 0
M  V30 52 H 0.187475 4.385285 5.556779 0
M  V30 53 H 0.450221 2.566037 5.649624 0
M  V30 54 H -0.991466 3.237158 4.879934 0
M  V30 55 H 1.710362 3.277728 1.325830 0
M  V30 56 H 1.153656 1.707820 -0.386145 0
M  V30 57 H -3.040749 -1.123019 0.602214 0
M  V30 58 H -5.144630 -1.165695 -0.549186 0
M  V30 END ATOM
M  V30 BEGIN BOND
M  V30 1 1 1 2
M  V30 2 1 2 3
M  V30 3 1 2 4
M  V30 4 2 4 5
M  V30 5 1 5 6
M  V30 6 2 6 7
M  V30 7 1 7 8
M  V30 8 2 8 9 CFG=2
M  V30 9 1 9 10
M  V30 10 2 10 11
M  V30 11 1 11 12
M  V30 12 2 12 13 CFG=2
M  V30 13 1 13 14
M  V30 14 1 13 15
M  V30 15 1 12 16
M  V30 16 2 16 17
M  V30 17 1 8 18
M  V30 18 2 18 19
M  V30 19 1 19 20
M  V30 20 2 20 21
M  V30 21 1 21 22
M  V30 22 1 22 23
M  V30 23 1 22 24
M  V30 24 1 21 25
M  V30 25 2 25 26
M  V30 26 1 7 27
M  V30 27 2 27 28
M  V30 28 1 28 4
M  V30 29 1 17 9
M  V30 30 1 26 18
M  V30 31 1 1 29
M  V30 32 1 1 30
M  V30 33 1 1 31
M  V30 34 1 3 32
M  V30 35 1 3 33
M  V30 36 1 3 34
M  V30 37 1 5 35
M  V30 38 1 6 36
M  V30 39 1 10 37
M  V30 40 1 11 38
M  V30 41 1 14 39
M  V30 42 1 14 40
M  V30 43 1 14 41
M  V30 44 1 15 42
M  V30 45 1 15 43
M  V30 46 1 15 44
M  V30 47 1 16 45
M  V30 48 1 17 46
M  V30 49 1 19 47
M  V30 50 1 20 48
M  V30 51 1 23 49
M  V30 52 1 23 50
M  V30 53 1 23 51
M  V30 54 1 24 52
M  V30 55 1 24 53
M  V30 56 1 24 54
M  V30 57 1 25 55
M  V30 58 1 26 56
M  V30 59 1 27 57
M  V30 60 1 28 58
M  V30 END BOND
M  V30 END CTAB
M  END
>  <Dataset>  (873) 
ChEMBL_Kinases

>  <Ligand_Instance>  (873) 
nan

>  <PDB_ID>  (873) 
nan

>  <Standardized_SMILES>  (873) 
CN(C)c1ccc(C(=C2C=CC(=[N+](C)C)C=C2)c2ccc(N(C)C)cc2)cc1

>  <Name>  (873) 
GENTIAN VIOLET

>  <Pocket>  (873) 
nan

>  <ATP_Site>  (873) 
nan

>  <Peripheral>  (873) 
nan

>  <Num_H_Atoms_ProtBoundConf>  (873) 
nan

>  <Num_Resolved_Atoms>  (873) 
nan

>  <Num_Not_Resolved_Atoms>  (873) 
nan

$$$$
CHEMBL4875779
     RDKit          3D

  0  0  0  0  0  0  0  0  0  0999 V3000
M  V30 BEGIN CTAB
M  V30 COUNTS 33 35 0 0 0
M  V30 BEGIN ATOM
M  V30 1 C -0.493598 -3.858417 5.756833 0
M  V30 2 C -0.363583 -3.032379 4.526917 0
M  V30 3 C -0.561621 -3.607014 3.265320 0
M  V30 4 C -0.433449 -2.817937 2.168658 0
M  V30 5 C -0.123645 -1.503271 2.235677 0
M  V30 6 C 0.028750 -0.626557 1.213741 0
M  V30 7 C -0.041792 -0.616011 -0.223056 0
M  V30 8 C -0.315892 -1.594142 -1.131072 0
M  V30 9 C -0.360699 -1.488147 -2.499543 0
M  V30 10 N -0.101783 -0.266838 -3.006166 0
M  V30 11 C 0.177618 0.750749 -2.174798 0
M  V30 12 N 0.455209 2.051394 -2.677794 0
M  V30 13 C 0.417410 2.205351 -4.128152 0
M  V30 14 C 0.756432 3.147691 -1.778126 0
M  V30 15 N 0.196390 0.544771 -0.860148 0
M  V30 16 C 0.338602 0.551179 1.909636 0
M  V30 17 N 0.343689 0.286101 3.225440 0
M  V30 18 N 0.061041 -0.976476 3.453945 0
M  V30 19 N -0.058633 -1.725987 4.536383 0
M  V30 20 H -1.315298 -4.621507 5.635096 0
M  V30 21 H -0.813961 -3.252404 6.628523 0
M  V30 22 H 0.462620 -4.351616 6.036776 0
M  V30 23 H -0.809902 -4.666505 3.238554 0
M  V30 24 H -0.598872 -3.327489 1.250364 0
M  V30 25 H -0.525501 -2.573886 -0.762097 0
M  V30 26 H -0.588037 -2.328595 -3.118798 0
M  V30 27 H 0.553082 3.293989 -4.322839 0
M  V30 28 H 1.217009 1.594743 -4.579949 0
M  V30 29 H -0.592939 1.933686 -4.503167 0
M  V30 30 H -0.004116 3.214621 -0.952634 0
M  V30 31 H 0.720553 4.110573 -2.285591 0
M  V30 32 H 1.750472 2.986281 -1.288318 0
M  V30 33 H 0.565423 1.581976 1.645493 0
M  V30 END ATOM
M  V30 BEGIN BOND
M  V30 1 1 1 2
M  V30 2 1 2 3
M  V30 3 2 3 4
M  V30 4 1 4 5
M  V30 5 2 5 6
M  V30 6 1 6 7
M  V30 7 2 7 8
M  V30 8 1 8 9
M  V30 9 2 9 10
M  V30 10 1 10 11
M  V30 11 1 11 12
M  V30 12 1 12 13
M  V30 13 1 12 14
M  V30 14 2 11 15
M  V30 15 1 6 16
M  V30 16 2 16 17
M  V30 17 1 17 18
M  V30 18 1 18 19
M  V30 19 2 19 2
M  V30 20 1 18 5
M  V30 21 1 15 7
M  V30 22 1 1 20
M  V30 23 1 1 21
M  V30 24 1 1 22
M  V30 25 1 3 23
M  V30 26 1 4 24
M  V30 27 1 8 25
M  V30 28 1 9 26
M  V30 29 1 13 27
M  V30 30 1 13 28
M  V30 31 1 13 29
M  V30 32 1 14 30
M  V30 33 1 14 31
M  V30 34 1 14 32
M  V30 35 1 16 33
M  V30 END BOND
M  V30 END CTAB
M  END
>  <Dataset>  (874) 
ChEMBL_Kinases

>  <Ligand_Instance>  (874) 
nan

>  <PDB_ID>  (874) 
nan

>  <Standardized_SMILES>  (874) 
Cc1ccc2c(-c3ccnc(N(C)C)n3)cnn2n1

>  <Name>  (874) 
nan

>  <Pocket>  (874) 
nan

>  <ATP_Site>  (874) 
nan

>  <Peripheral>  (874) 
nan

>  <Num_H_Atoms_ProtBoundConf>  (874) 
nan

>  <Num_Resolved_Atoms>  (874) 
nan

>  <Num_Not_Resolved_Atoms>  (874) 
nan

$$$$
CHEMBL3937245
     RDKit          3D

  0  0  0  0  0  0  0  0  0  0999 V3000
M  V30 BEGIN CTAB
M  V30 COUNTS 51 54 0 0 0
M  V30 BEGIN ATOM
M  V30 1 C 2.698772 -5.330298 5.059548 0
M  V30 2 C 1.562094 -4.698983 4.296560 0
M  V30 3 C 0.270616 -5.261922 4.864442 0
M  V30 4 O 1.653603 -4.840824 2.919707 0
M  V30 5 C 1.651925 -3.788908 2.027608 0
M  V30 6 C 1.757389 -4.231362 0.724298 0
M  V30 7 C 1.781306 -3.403034 -0.378166 0
M  V30 8 C 1.693973 -2.016080 -0.187475 0
M  V30 9 C 1.588957 -1.602502 1.120912 0
M  V30 10 C 1.564902 -2.417831 2.227598 0
M  V30 11 C 1.476801 -0.141197 1.179912 0
M  V30 12 O 1.364108 0.705911 2.099745 0
M  V30 13 N 1.521545 0.262968 -0.200803 0
M  V30 14 C 1.411408 1.571736 -0.800632 0
M  V30 15 C 2.362405 2.507295 -1.125350 0
M  V30 16 C 1.935624 3.688049 -1.693175 0
M  V30 17 C 0.591957 3.914329 -1.923773 0
M  V30 18 C -0.346381 2.967744 -1.592977 0
M  V30 19 C -1.784262 3.197119 -1.831303 0
M  V30 20 N -2.366291 4.085048 -2.650077 0
M  V30 21 N -3.681864 3.985146 -2.584560 0
M  V30 22 C -3.941942 3.003585 -1.696891 0
M  V30 23 N -2.773285 2.510369 -1.225277 0
M  V30 24 C -2.706108 1.449480 -0.253754 0
M  V30 25 C -3.924405 1.406478 0.642159 0
M  V30 26 C -2.708690 0.126048 -1.029361 0
M  V30 27 N 0.087714 1.822233 -1.040745 0
M  V30 28 C 1.701151 -0.865525 -1.125871 0
M  V30 29 H 2.627067 -4.959170 6.097442 0
M  V30 30 H 3.644710 -4.982530 4.594152 0
M  V30 31 H 2.686874 -6.419280 5.105070 0
M  V30 32 H 1.549861 -3.623842 4.566735 0
M  V30 33 H 0.328520 -6.353075 5.047441 0
M  V30 34 H -0.548840 -5.118793 4.119034 0
M  V30 35 H -0.035434 -4.789673 5.811246 0
M  V30 36 H 1.834526 -5.276387 0.400213 0
M  V30 37 H 1.862816 -3.705456 -1.410947 0
M  V30 38 H 1.486732 -2.123834 3.242141 0
M  V30 39 H 3.338103 2.167224 -0.878692 0
M  V30 40 H 2.735592 4.384707 -1.925938 0
M  V30 41 H 0.313695 4.857588 -2.372306 0
M  V30 42 H -4.932053 2.657654 -1.399479 0
M  V30 43 H -1.783899 1.511727 0.376788 0
M  V30 44 H -4.651093 0.625809 0.321303 0
M  V30 45 H -4.469272 2.373391 0.635681 0
M  V30 46 H -3.587349 1.221579 1.696519 0
M  V30 47 H -3.727299 0.004477 -1.465091 0
M  V30 48 H -2.537819 -0.725664 -0.334423 0
M  V30 49 H -1.993218 0.149241 -1.875179 0
M  V30 50 H 0.933482 -0.920771 -1.891890 0
M  V30 51 H 2.728983 -0.686701 -1.557456 0
M  V30 END ATOM
M  V30 BEGIN BOND
M  V30 1 1 1 2
M  V30 2 1 2 3
M  V30 3 1 2 4
M  V30 4 1 4 5
M  V30 5 2 5 6
M  V30 6 1 6 7
M  V30 7 2 7 8
M  V30 8 1 8 9
M  V30 9 2 9 10
M  V30 10 1 9 11
M  V30 11 2 11 12
M  V30 12 1 11 13
M  V30 13 1 13 14
M  V30 14 2 14 15
M  V30 15 1 15 16
M  V30 16 2 16 17
M  V30 17 1 17 18
M  V30 18 1 18 19
M  V30 19 2 19 20
M  V30 20 1 20 21
M  V30 21 2 21 22
M  V30 22 1 22 23
M  V30 23 1 23 24
M  V30 24 1 24 25
M  V30 25 1 24 26
M  V30 26 2 18 27
M  V30 27 1 13 28
M  V30 28 1 10 5
M  V30 29 1 27 14
M  V30 30 1 28 8
M  V30 31 1 23 19
M  V30 32 1 1 29
M  V30 33 1 1 30
M  V30 34 1 1 31
M  V30 35 1 2 32
M  V30 36 1 3 33
M  V30 37 1 3 34
M  V30 38 1 3 35
M  V30 39 1 6 36
M  V30 40 1 7 37
M  V30 41 1 10 38
M  V30 42 1 15 39
M  V30 43 1 16 40
M  V30 44 1 17 41
M  V30 45 1 22 42
M  V30 46 1 24 43
M  V30 47 1 25 44
M  V30 48 1 25 45
M  V30 49 1 25 46
M  V30 50 1 26 47
M  V30 51 1 26 48
M  V30 52 1 26 49
M  V30 53 1 28 50
M  V30 54 1 28 51
M  V30 END BOND
M  V30 END CTAB
M  END
>  <Dataset>  (875) 
ChEMBL_Kinases

>  <Ligand_Instance>  (875) 
nan

>  <PDB_ID>  (875) 
nan

>  <Standardized_SMILES>  (875) 
CC(C)Oc1ccc2c(c1)C(=O)N(c1cccc(-c3nncn3C(C)C)n1)C2

>  <Name>  (875) 
nan

>  <Pocket>  (875) 
nan

>  <ATP_Site>  (875) 
nan

>  <Peripheral>  (875) 
nan

>  <Num_H_Atoms_ProtBoundConf>  (875) 
nan

>  <Num_Resolved_Atoms>  (875) 
nan

>  <Num_Not_Resolved_Atoms>  (875) 
nan

$$$$
CHEMBL3937086
     RDKit          3D

  0  0  0  0  0  0  0  0  0  0999 V3000
M  V30 BEGIN CTAB
M  V30 COUNTS 41 46 0 0 0
M  V30 BEGIN ATOM
M  V30 1 C 0.882412 -4.625861 0.986233 0
M  V30 2 C 1.681613 -5.522012 0.275977 0
M  V30 3 N 2.545726 -5.052400 -0.642861 0
M  V30 4 C 2.665080 -3.723564 -0.902356 0
M  V30 5 C 1.901273 -2.793334 -0.231295 0
M  V30 6 C 2.076693 -1.384413 -0.555657 0
M  V30 7 C 1.386674 -0.342644 0.029326 0
M  V30 8 C 1.641537 0.948597 -0.362723 0
M  V30 9 C 2.576857 1.233524 -1.333859 0
M  V30 10 C 3.256398 0.178822 -1.906941 0
M  V30 11 N 2.986418 -1.082925 -1.502771 0
M  V30 12 N 2.823774 2.500783 -1.715434 0
M  V30 13 C 2.189847 3.566192 -1.189414 0
M  V30 14 C 1.255092 3.273694 -0.218044 0
M  V30 15 N 0.458508 4.081538 0.498731 0
M  V30 16 C -0.287731 3.303726 1.331384 0
M  V30 17 N 0.042543 2.014481 1.134432 0
M  V30 18 C -0.635786 1.047508 1.918707 0
M  V30 19 C -0.203292 0.591546 3.174676 0
M  V30 20 C -0.925518 -0.343809 3.886731 0
M  V30 21 C -2.102627 -0.873378 3.399959 0
M  V30 22 N -3.003281 -1.776475 3.851930 0
M  V30 23 C -3.993503 -1.908245 2.923003 0
M  V30 24 N -3.718335 -1.091359 1.889200 0
M  V30 25 C -2.574643 -0.463422 2.174374 0
M  V30 26 C -1.839278 0.470336 1.480185 0
M  V30 27 C 0.981939 1.986877 0.191986 0
M  V30 28 C 1.027173 -3.285217 0.699932 0
M  V30 29 H 0.193858 -5.004416 1.718848 0
M  V30 30 H 1.574905 -6.582653 0.494607 0
M  V30 31 H 3.403846 -3.465219 -1.672899 0
M  V30 32 H 0.681555 -0.657881 0.771977 0
M  V30 33 H 4.012219 0.336404 -2.684080 0
M  V30 34 H 2.406524 4.575260 -1.513452 0
M  V30 35 H -0.991396 3.797658 1.987628 0
M  V30 36 H 0.721588 1.039919 3.503678 0
M  V30 37 H -0.564256 -0.667110 4.840541 0
M  V30 38 H -4.854890 -2.577721 3.033614 0
M  V30 39 H -4.323756 -1.004377 1.043862 0
M  V30 40 H -2.217416 0.798133 0.499387 0
M  V30 41 H 0.414489 -2.612615 1.245957 0
M  V30 END ATOM
M  V30 BEGIN BOND
M  V30 1 2 1 2
M  V30 2 1 2 3
M  V30 3 2 3 4
M  V30 4 1 4 5
M  V30 5 1 5 6
M  V30 6 2 6 7
M  V30 7 1 7 8
M  V30 8 2 8 9
M  V30 9 1 9 10
M  V30 10 2 10 11
M  V30 11 1 9 12
M  V30 12 2 12 13
M  V30 13 1 13 14
M  V30 14 1 14 15
M  V30 15 2 15 16
M  V30 16 1 16 17
M  V30 17 1 17 18
M  V30 18 2 18 19
M  V30 19 1 19 20
M  V30 20 2 20 21
M  V30 21 1 21 22
M  V30 22 2 22 23
M  V30 23 1 23 24
M  V30 24 1 24 25
M  V30 25 2 25 26
M  V30 26 1 17 27
M  V30 27 2 5 28
M  V30 28 1 28 1
M  V30 29 1 11 6
M  V30 30 2 27 14
M  V30 31 1 27 8
M  V30 32 1 26 18
M  V30 33 1 25 21
M  V30 34 1 1 29
M  V30 35 1 2 30
M  V30 36 1 4 31
M  V30 37 1 7 32
M  V30 38 1 10 33
M  V30 39 1 13 34
M  V30 40 1 16 35
M  V30 41 1 19 36
M  V30 42 1 20 37
M  V30 43 1 23 38
M  V30 44 1 24 39
M  V30 45 1 26 40
M  V30 46 1 28 41
M  V30 END BOND
M  V30 END CTAB
M  END
>  <Dataset>  (876) 
ChEMBL_Kinases

>  <Ligand_Instance>  (876) 
nan

>  <PDB_ID>  (876) 
nan

>  <Standardized_SMILES>  (876) 
c1cncc(-c2cc3c(cn2)ncc2ncn(-c4ccc5nc[nH]c5c4)c23)c1

>  <Name>  (876) 
nan

>  <Pocket>  (876) 
nan

>  <ATP_Site>  (876) 
nan

>  <Peripheral>  (876) 
nan

>  <Num_H_Atoms_ProtBoundConf>  (876) 
nan

>  <Num_Resolved_Atoms>  (876) 
nan

>  <Num_Not_Resolved_Atoms>  (876) 
nan

$$$$
CHEMBL3936985
     RDKit          3D

  0  0  0  0  0  0  0  0  0  0999 V3000
M  V30 BEGIN CTAB
M  V30 COUNTS 44 48 0 0 0
M  V30 BEGIN ATOM
M  V30 1 C -0.286261 -5.999951 -2.300422 0
M  V30 2 N -0.605773 -4.907135 -1.409390 0
M  V30 3 C -1.548812 -5.077744 -0.321234 0
M  V30 4 C -1.647373 -3.710049 0.286636 0
M  V30 5 C -0.692497 -2.850399 -0.446615 0
M  V30 6 C -0.407098 -1.521442 -0.215657 0
M  V30 7 C 0.526130 -0.909847 -1.029517 0
M  V30 8 C 0.918005 0.494162 -0.887202 0
M  V30 9 C 1.316405 1.310826 -1.926412 0
M  V30 10 N 1.667852 2.595868 -1.744111 0
M  V30 11 C 1.639754 3.133852 -0.511776 0
M  V30 12 N 2.017999 4.497234 -0.351148 0
M  V30 13 C 1.245868 2.343824 0.549836 0
M  V30 14 C 1.219434 2.940999 1.902440 0
M  V30 15 N 1.539677 4.188351 2.232199 0
M  V30 16 N 1.376163 4.309931 3.559597 0
M  V30 17 C 0.953614 3.125337 4.034467 0
M  V30 18 C 0.604058 2.647872 5.418629 0
M  V30 19 C -0.490542 1.629403 5.560000 0
M  V30 20 C 0.925584 1.160361 5.698303 0
M  V30 21 O 0.869163 2.317933 3.003274 0
M  V30 22 C 0.881100 1.023769 0.387029 0
M  V30 23 C 1.142298 -1.624635 -2.036985 0
M  V30 24 C 0.851102 -2.954090 -2.261453 0
M  V30 25 C -0.081594 -3.580393 -1.454314 0
M  V30 26 H -1.170523 -6.411539 -2.827521 0
M  V30 27 H 0.396791 -5.619503 -3.095292 0
M  V30 28 H 0.214166 -6.790603 -1.685188 0
M  V30 29 H -1.168645 -5.822178 0.401528 0
M  V30 30 H -2.523208 -5.459192 -0.697912 0
M  V30 31 H -2.669236 -3.303838 0.094089 0
M  V30 32 H -1.398866 -3.705643 1.353759 0
M  V30 33 H -0.878090 -0.951732 0.564099 0
M  V30 34 H 1.332081 0.862680 -2.901701 0
M  V30 35 H 1.566719 5.424529 -0.588065 0
M  V30 36 H 2.865842 4.950885 0.055144 0
M  V30 37 H 0.692357 3.361161 6.252186 0
M  V30 38 H -1.091159 1.338861 4.685164 0
M  V30 39 H -1.078869 1.622259 6.503081 0
M  V30 40 H 1.281780 0.580873 4.807671 0
M  V30 41 H 1.307482 0.878371 6.683389 0
M  V30 42 H 0.582158 0.458962 1.261033 0
M  V30 43 H 1.865097 -1.164131 -2.672991 0
M  V30 44 H 1.337750 -3.505082 -3.051058 0
M  V30 END ATOM
M  V30 BEGIN BOND
M  V30 1 1 1 2
M  V30 2 1 2 3
M  V30 3 1 3 4
M  V30 4 1 4 5
M  V30 5 2 5 6
M  V30 6 1 6 7
M  V30 7 1 7 8
M  V30 8 2 8 9
M  V30 9 1 9 10
M  V30 10 2 10 11
M  V30 11 1 11 12
M  V30 12 1 11 13
M  V30 13 1 13 14
M  V30 14 2 14 15
M  V30 15 1 15 16
M  V30 16 2 16 17
M  V30 17 1 17 18
M  V30 18 1 18 19
M  V30 19 1 19 20
M  V30 20 1 17 21
M  V30 21 2 13 22
M  V30 22 2 7 23
M  V30 23 1 23 24
M  V30 24 2 24 25
M  V30 25 1 25 2
M  V30 26 1 25 5
M  V30 27 1 22 8
M  V30 28 1 21 14
M  V30 29 1 20 18
M  V30 30 1 1 26
M  V30 31 1 1 27
M  V30 32 1 1 28
M  V30 33 1 3 29
M  V30 34 1 3 30
M  V30 35 1 4 31
M  V30 36 1 4 32
M  V30 37 1 6 33
M  V30 38 1 9 34
M  V30 39 1 12 35
M  V30 40 1 12 36
M  V30 41 1 18 37
M  V30 42 1 19 38
M  V30 43 1 19 39
M  V30 44 1 20 40
M  V30 45 1 20 41
M  V30 46 1 22 42
M  V30 47 1 23 43
M  V30 48 1 24 44
M  V30 END BOND
M  V30 END CTAB
M  END
>  <Dataset>  (877) 
ChEMBL_Kinases

>  <Ligand_Instance>  (877) 
nan

>  <PDB_ID>  (877) 
nan

>  <Standardized_SMILES>  (877) 
CN1CCc2cc(-c3cnc(N)c(-c4nnc(C5CC5)o4)c3)ccc21

>  <Name>  (877) 
nan

>  <Pocket>  (877) 
nan

>  <ATP_Site>  (877) 
nan

>  <Peripheral>  (877) 
nan

>  <Num_H_Atoms_ProtBoundConf>  (877) 
nan

>  <Num_Resolved_Atoms>  (877) 
nan

>  <Num_Not_Resolved_Atoms>  (877) 
nan

$$$$
CHEMBL3936983
     RDKit          3D

  0  0  0  0  0  0  0  0  0  0999 V3000
M  V30 BEGIN CTAB
M  V30 COUNTS 44 48 0 0 0
M  V30 BEGIN ATOM
M  V30 1 O 3.330883 -3.247618 5.032168 0
M  V30 2 C 3.307549 -2.692315 3.902866 0
M  V30 3 C 4.533131 -2.559130 3.037258 0
M  V30 4 O 4.500199 -1.342224 2.315321 0
M  V30 5 C 3.325154 -0.821323 1.788077 0
M  V30 6 C 3.496443 0.092733 0.746132 0
M  V30 7 C 2.290776 0.594017 0.242627 0
M  V30 8 C 1.037833 0.248383 0.698498 0
M  V30 9 C -0.161262 0.863677 0.073062 0
M  V30 10 O 0.217796 1.574952 -1.069089 0
M  V30 11 C -0.922966 1.694123 1.018695 0
M  V30 12 C -0.605262 2.840598 1.694184 0
M  V30 13 C -1.515959 3.452071 2.558064 0
M  V30 14 C -2.774326 2.922755 2.764341 0
M  V30 15 C -3.038427 1.768620 2.057922 0
M  V30 16 C -2.183803 1.118406 1.192480 0
M  V30 17 C -2.270855 -0.080206 0.368306 0
M  V30 18 O -3.323171 -0.789097 0.348638 0
M  V30 19 N -1.043509 -0.220569 -0.306889 0
M  V30 20 C -0.869983 -1.315394 -1.195318 0
M  V30 21 C -1.244268 -1.001505 -2.509770 0
M  V30 22 C -1.140006 -1.951231 -3.504757 0
M  V30 23 C -0.671320 -3.229473 -3.256546 0
M  V30 24 C -0.309078 -3.522008 -1.966445 0
M  V30 25 Cl 0.300060 -5.093345 -1.500151 0
M  V30 26 C -0.403392 -2.590183 -0.950915 0
M  V30 27 C 0.990327 -0.662307 1.730010 0
M  V30 28 C 2.120021 -1.206310 2.285810 0
M  V30 29 N 2.121247 -2.139063 3.339692 0
M  V30 30 H 5.396576 -2.605260 3.727733 0
M  V30 31 H 4.547518 -3.435951 2.359880 0
M  V30 32 H 4.450578 0.392988 0.356747 0
M  V30 33 H 2.393707 1.315176 -0.577988 0
M  V30 34 H 0.509441 2.479450 -0.808943 0
M  V30 35 H 0.357014 3.348518 1.610573 0
M  V30 36 H -1.244423 4.360712 3.084219 0
M  V30 37 H -3.526511 3.342842 3.417522 0
M  V30 38 H -4.030694 1.319285 2.197780 0
M  V30 39 H -1.627092 -0.021168 -2.814636 0
M  V30 40 H -1.429227 -1.715074 -4.537015 0
M  V30 41 H -0.573965 -4.002300 -4.008273 0
M  V30 42 H -0.137860 -2.751531 0.083775 0
M  V30 43 H 0.017536 -0.955519 2.112599 0
M  V30 44 H 1.201455 -2.450021 3.739347 0
M  V30 END ATOM
M  V30 BEGIN BOND
M  V30 1 2 1 2
M  V30 2 1 2 3
M  V30 3 1 3 4
M  V30 4 1 4 5
M  V30 5 2 5 6
M  V30 6 1 6 7
M  V30 7 2 7 8
M  V30 8 1 8 9
M  V30 9 1 9 10
M  V30 10 1 9 11
M  V30 11 2 11 12
M  V30 12 1 12 13
M  V30 13 2 13 14
M  V30 14 1 14 15
M  V30 15 2 15 16
M  V30 16 1 16 17
M  V30 17 2 17 18
M  V30 18 1 17 19
M  V30 19 1 19 20
M  V30 20 2 20 21
M  V30 21 1 21 22
M  V30 22 2 22 23
M  V30 23 1 23 24
M  V30 24 1 24 25
M  V30 25 2 24 26
M  V30 26 1 8 27
M  V30 27 2 27 28
M  V30 28 1 28 29
M  V30 29 1 29 2
M  V30 30 1 28 5
M  V30 31 1 19 9
M  V30 32 1 26 20
M  V30 33 1 16 11
M  V30 34 1 3 30
M  V30 35 1 3 31
M  V30 36 1 6 32
M  V30 37 1 7 33
M  V30 38 1 10 34
M  V30 39 1 12 35
M  V30 40 1 13 36
M  V30 41 1 14 37
M  V30 42 1 15 38
M  V30 43 1 21 39
M  V30 44 1 22 40
M  V30 45 1 23 41
M  V30 46 1 26 42
M  V30 47 1 27 43
M  V30 48 1 29 44
M  V30 END BOND
M  V30 END CTAB
M  END
>  <Dataset>  (878) 
ChEMBL_Kinases

>  <Ligand_Instance>  (878) 
nan

>  <PDB_ID>  (878) 
nan

>  <Standardized_SMILES>  (878) 
O=C1COc2ccc(C3(O)c4ccccc4C(=O)N3c3cccc(Cl)c3)cc2N1

>  <Name>  (878) 
nan

>  <Pocket>  (878) 
nan

>  <ATP_Site>  (878) 
nan

>  <Peripheral>  (878) 
nan

>  <Num_H_Atoms_ProtBoundConf>  (878) 
nan

>  <Num_Resolved_Atoms>  (878) 
nan

>  <Num_Not_Resolved_Atoms>  (878) 
nan

$$$$
CHEMBL3936937
     RDKit          3D

  0  0  0  0  0  0  0  0  0  0999 V3000
M  V30 BEGIN CTAB
M  V30 COUNTS 49 52 0 0 0
M  V30 BEGIN ATOM
M  V30 1 C 6.199040 -1.070651 1.625193 0
M  V30 2 C 5.390226 -0.571290 0.454376 0
M  V30 3 N 4.541607 -1.584412 -0.140216 0
M  V30 4 N 4.985455 -2.401962 -1.111075 0
M  V30 5 C 4.018569 -3.262636 -1.495027 0
M  V30 6 C 2.955621 -2.935871 -0.713117 0
M  V30 7 C 1.693632 -3.485307 -0.673371 0
M  V30 8 C 0.863198 -2.928274 0.220915 0
M  V30 9 N 1.212452 -1.929670 1.011006 0
M  V30 10 C 2.387128 -1.360505 1.026438 0
M  V30 11 C 3.279740 -1.893297 0.128818 0
M  V30 12 N 2.669393 -0.220266 1.893418 0
M  V30 13 C 1.649766 0.751311 1.559268 0
M  V30 14 C 0.268934 0.389104 2.104883 0
M  V30 15 O -0.677475 1.188447 1.632587 0
M  V30 16 C -1.974862 1.148328 1.579302 0
M  V30 17 C -2.696687 0.167367 0.640448 0 CFG=2
M  V30 18 C -4.089147 0.491632 0.399898 0
M  V30 19 C -4.470452 1.241697 -0.715924 0
M  V30 20 C -5.805007 1.548616 -0.938086 0
M  V30 21 C -6.819071 1.145047 -0.095346 0
M  V30 22 C -6.458448 0.399680 1.017202 0
M  V30 23 C -5.121374 0.102534 1.223394 0
M  V30 24 N -2.473270 -1.197671 0.994392 0
M  V30 25 C -1.693497 -2.418111 1.038406 0
M  V30 26 O -1.212448 -1.406050 0.503474 0
M  V30 27 N -0.465056 -3.015427 0.707499 0
M  V30 28 H 7.200759 -1.468492 1.331093 0
M  V30 29 H 6.392071 -0.276082 2.370932 0
M  V30 30 H 5.673587 -1.946511 2.056621 0
M  V30 31 H 6.165186 -0.234620 -0.297437 0
M  V30 32 H 4.842206 0.379740 0.664438 0
M  V30 33 H 3.984735 -4.065117 -2.239354 0
M  V30 34 H 1.174255 -4.268555 -1.174245 0
M  V30 35 H 3.487685 -0.633875 2.362583 0
M  V30 36 H 2.010440 1.733043 1.939871 0
M  V30 37 H 1.554514 0.864142 0.465970 0
M  V30 38 H 0.414374 0.852911 3.227446 0
M  V30 39 H 0.114050 -0.628834 2.391678 0
M  V30 40 H -2.512614 1.025399 2.569965 0
M  V30 41 H -2.388359 2.166996 1.245524 0
M  V30 42 H -2.102911 0.370033 -0.335547 0
M  V30 43 H -3.747623 1.604067 -1.434942 0
M  V30 44 H -6.096373 2.132852 -1.808561 0
M  V30 45 H -7.837635 1.382789 -0.271184 0
M  V30 46 H -7.240271 0.072293 1.692269 0
M  V30 47 H -4.936615 -0.477213 2.109814 0
M  V30 48 H -3.331542 -1.577028 1.529048 0
M  V30 49 H -0.384986 -4.007755 0.970861 0
M  V30 END ATOM
M  V30 BEGIN BOND
M  V30 1 1 1 2
M  V30 2 1 2 3
M  V30 3 1 3 4
M  V30 4 2 4 5
M  V30 5 1 5 6
M  V30 6 2 6 7
M  V30 7 1 7 8
M  V30 8 2 8 9
M  V30 9 1 9 10
M  V30 10 2 10 11
M  V30 11 1 10 12
M  V30 12 1 12 13
M  V30 13 1 13 14
M  V30 14 1 14 15
M  V30 15 1 15 16
M  V30 16 1 16 17
M  V30 17 1 17 18
M  V30 18 2 18 19
M  V30 19 1 19 20
M  V30 20 2 20 21
M  V30 21 1 21 22
M  V30 22 2 22 23
M  V30 23 1 17 24
M  V30 24 1 24 25
M  V30 25 2 25 26
M  V30 26 1 25 27
M  V30 27 1 11 3
M  V30 28 1 23 18
M  V30 29 1 11 6
M  V30 30 1 27 8
M  V30 31 1 1 28
M  V30 32 1 1 29
M  V30 33 1 1 30
M  V30 34 1 2 31
M  V30 35 1 2 32
M  V30 36 1 5 33
M  V30 37 1 7 34
M  V30 38 1 12 35
M  V30 39 1 13 36
M  V30 40 1 13 37
M  V30 41 1 14 38
M  V30 42 1 14 39
M  V30 43 1 16 40
M  V30 44 1 16 41
M  V30 45 1 17 42 CFG=3
M  V30 46 1 19 43
M  V30 47 1 20 44
M  V30 48 1 21 45
M  V30 49 1 22 46
M  V30 50 1 23 47
M  V30 51 1 24 48
M  V30 52 1 27 49
M  V30 END BOND
M  V30 END CTAB
M  END
>  <Dataset>  (879) 
ChEMBL_Kinases

>  <Ligand_Instance>  (879) 
nan

>  <PDB_ID>  (879) 
nan

>  <Standardized_SMILES>  (879) 
CCn1ncc2cc3nc(c21)NCCOC[C@H](c1ccccc1)NC(=O)N3

>  <Name>  (879) 
nan

>  <Pocket>  (879) 
nan

>  <ATP_Site>  (879) 
nan

>  <Peripheral>  (879) 
nan

>  <Num_H_Atoms_ProtBoundConf>  (879) 
nan

>  <Num_Resolved_Atoms>  (879) 
nan

>  <Num_Not_Resolved_Atoms>  (879) 
nan

$$$$
CHEMBL3935552
     RDKit          3D

  0  0  0  0  0  0  0  0  0  0999 V3000
M  V30 BEGIN CTAB
M  V30 COUNTS 47 50 0 0 0
M  V30 BEGIN ATOM
M  V30 1 N 6.828024 -5.194057 0.830335 0
M  V30 2 C 7.081515 -3.996320 1.553654 0
M  V30 3 O 8.178789 -4.271199 2.084532 0
M  V30 4 C 6.214098 -2.844243 1.579185 0
M  V30 5 C 6.604763 -1.756127 2.331329 0
M  V30 6 C 5.704020 -0.685595 2.297538 0
M  V30 7 C 4.517753 -0.741322 1.556746 0
M  V30 8 N 3.537675 0.197000 1.411876 0
M  V30 9 C 2.608963 -0.346223 0.594294 0
M  V30 10 C 1.392857 0.357366 0.194984 0
M  V30 11 C 1.178765 1.634504 0.671356 0
M  V30 12 C 0.015801 2.253108 0.263680 0
M  V30 13 C -0.961689 1.721285 -0.577641 0
M  V30 14 S -2.357760 2.697148 -0.967193 0
M  V30 15 O -2.826702 2.438551 -2.374220 0
M  V30 16 O -1.906788 4.134351 -0.935964 0
M  V30 17 N -3.632514 2.543781 0.168479 0
M  V30 18 C -4.419781 1.443918 0.578916 0
M  V30 19 C -3.891698 0.212300 0.900978 0
M  V30 20 C -4.621905 -0.890047 1.309142 0
M  V30 21 C -5.993283 -0.748597 1.402934 0
M  V30 22 C -6.814371 -1.902926 1.835276 0
M  V30 23 F -6.966116 -2.841321 0.835915 0
M  V30 24 F -6.217695 -2.499239 2.931296 0
M  V30 25 F -8.082508 -1.432003 2.187079 0
M  V30 26 C -6.587477 0.449379 1.097840 0
M  V30 27 C -5.794010 1.486526 0.703153 0
M  V30 28 C -0.696636 0.425043 -1.032363 0
M  V30 29 C 0.459295 -0.219046 -0.641000 0
M  V30 30 N 3.002849 -1.585407 0.243040 0
M  V30 31 C 4.193932 -1.866790 0.827111 0
M  V30 32 C 5.059364 -2.951494 0.832940 0
M  V30 33 H 5.921307 -5.719360 0.816824 0
M  V30 34 H 6.079294 -5.873000 0.651382 0
M  V30 35 H 7.509979 -1.737421 2.885381 0
M  V30 36 H 5.991280 0.188553 2.886016 0
M  V30 37 H 3.566708 1.117612 1.866590 0
M  V30 38 H 1.863241 2.145053 1.325955 0
M  V30 39 H -0.147551 3.261688 0.643315 0
M  V30 40 H -3.978602 3.378183 0.733685 0
M  V30 41 H -2.834550 0.037219 0.851631 0
M  V30 42 H -4.168012 -1.837043 1.552008 0
M  V30 43 H -7.657720 0.498471 1.189922 0
M  V30 44 H -6.321213 2.415081 0.473312 0
M  V30 45 H -1.457161 0.018184 -1.683492 0
M  V30 46 H 0.606355 -1.228690 -1.030701 0
M  V30 47 H 4.809201 -3.831104 0.264539 0
M  V30 END ATOM
M  V30 BEGIN BOND
M  V30 1 1 1 2
M  V30 2 2 2 3
M  V30 3 1 2 4
M  V30 4 2 4 5
M  V30 5 1 5 6
M  V30 6 2 6 7
M  V30 7 1 7 8
M  V30 8 1 8 9
M  V30 9 1 9 10
M  V30 10 2 10 11
M  V30 11 1 11 12
M  V30 12 2 12 13
M  V30 13 1 13 14
M  V30 14 2 14 15
M  V30 15 2 14 16
M  V30 16 1 14 17
M  V30 17 1 17 18
M  V30 18 2 18 19
M  V30 19 1 19 20
M  V30 20 2 20 21
M  V30 21 1 21 22
M  V30 22 1 22 23
M  V30 23 1 22 24
M  V30 24 1 22 25
M  V30 25 1 21 26
M  V30 26 2 26 27
M  V30 27 1 13 28
M  V30 28 2 28 29
M  V30 29 2 9 30
M  V30 30 1 30 31
M  V30 31 2 31 32
M  V30 32 1 32 4
M  V30 33 1 31 7
M  V30 34 1 29 10
M  V30 35 1 27 18
M  V30 36 1 1 33
M  V30 37 1 1 34
M  V30 38 1 5 35
M  V30 39 1 6 36
M  V30 40 1 8 37
M  V30 41 1 11 38
M  V30 42 1 12 39
M  V30 43 1 17 40
M  V30 44 1 19 41
M  V30 45 1 20 42
M  V30 46 1 26 43
M  V30 47 1 27 44
M  V30 48 1 28 45
M  V30 49 1 29 46
M  V30 50 1 32 47
M  V30 END BOND
M  V30 END CTAB
M  END
>  <Dataset>  (880) 
ChEMBL_Kinases

>  <Ligand_Instance>  (880) 
nan

>  <PDB_ID>  (880) 
nan

>  <Standardized_SMILES>  (880) 
NC(=O)c1ccc2[nH]c(-c3ccc(S(=O)(=O)Nc4ccc(C(F)(F)F)cc4)cc3)nc2c1

>  <Name>  (880) 
nan

>  <Pocket>  (880) 
nan

>  <ATP_Site>  (880) 
nan

>  <Peripheral>  (880) 
nan

>  <Num_H_Atoms_ProtBoundConf>  (880) 
nan

>  <Num_Resolved_Atoms>  (880) 
nan

>  <Num_Not_Resolved_Atoms>  (880) 
nan

$$$$
CHEMBL3936462
     RDKit          3D

  0  0  0  0  0  0  0  0  0  0999 V3000
M  V30 BEGIN CTAB
M  V30 COUNTS 44 49 0 0 0
M  V30 BEGIN ATOM
M  V30 1 C 0.150488 -6.746229 0.065769 0
M  V30 2 C 0.646394 -5.335677 -0.045059 0
M  V30 3 N 1.320968 -4.665895 0.641684 0
M  V30 4 C 1.702301 -3.421817 0.450042 0
M  V30 5 C 2.495486 -2.632404 1.256320 0
M  V30 6 C 2.774253 -1.346513 0.864035 0
M  V30 7 C 2.327953 -0.721525 -0.305971 0
M  V30 8 N 2.620001 0.572714 -0.708727 0
M  V30 9 C 3.721116 0.730145 -1.467716 0
M  V30 10 N 3.867261 2.051100 -1.777556 0
M  V30 11 C 2.834718 2.720382 -1.197222 0
M  V30 12 C 2.520932 4.063962 -1.204251 0
M  V30 13 N 1.414912 4.420207 -0.524606 0
M  V30 14 C 0.663341 3.511007 0.122398 0
M  V30 15 C -0.464667 3.903943 0.810797 0
M  V30 16 N -1.206960 2.982348 1.453625 0
M  V30 17 C -0.918789 1.668715 1.472903 0
M  V30 18 C -1.832875 0.814327 2.219412 0
M  V30 19 C -2.918633 1.375199 2.852682 0
M  V30 20 C -3.819598 0.610785 3.575985 0
M  V30 21 C -3.673410 -0.748906 3.697276 0
M  V30 22 C -2.599892 -1.321934 3.074123 0
M  V30 23 C -1.713991 -0.550962 2.359804 0
M  V30 24 C 0.201015 1.236465 0.796290 0
M  V30 25 C 0.967259 2.166555 0.136138 0
M  V30 26 C 2.086772 1.764414 -0.545108 0
M  V30 27 C 1.519756 -1.498172 -1.146075 0
M  V30 28 C 1.246953 -2.805639 -0.729291 0
M  V30 29 S 0.260296 -4.137341 -1.497892 0
M  V30 30 H -0.423678 -6.827968 1.017257 0
M  V30 31 H -0.590279 -6.958245 -0.741542 0
M  V30 32 H 0.983034 -7.452858 0.083654 0
M  V30 33 H 2.929971 -2.940692 2.194259 0
M  V30 34 H 3.405940 -0.695685 1.491311 0
M  V30 35 H 4.500385 0.072087 -1.881103 0
M  V30 36 H 3.161524 4.758802 -1.742825 0
M  V30 37 H -0.744079 4.945485 0.829441 0
M  V30 38 H -3.122342 2.455490 2.814659 0
M  V30 39 H -4.661270 1.093963 4.059102 0
M  V30 40 H -4.383730 -1.328827 4.263876 0
M  V30 41 H -2.428744 -2.400790 3.133608 0
M  V30 42 H -0.878906 -1.041900 1.882311 0
M  V30 43 H 0.369188 0.180945 0.854007 0
M  V30 44 H 1.087512 -1.189882 -2.080238 0
M  V30 END ATOM
M  V30 BEGIN BOND
M  V30 1 1 1 2
M  V30 2 2 2 3
M  V30 3 1 3 4
M  V30 4 2 4 5
M  V30 5 1 5 6
M  V30 6 2 6 7
M  V30 7 1 7 8
M  V30 8 1 8 9
M  V30 9 2 9 10
M  V30 10 1 10 11
M  V30 11 2 11 12
M  V30 12 1 12 13
M  V30 13 2 13 14
M  V30 14 1 14 15
M  V30 15 2 15 16
M  V30 16 1 16 17
M  V30 17 1 17 18
M  V30 18 2 18 19
M  V30 19 1 19 20
M  V30 20 2 20 21
M  V30 21 1 21 22
M  V30 22 2 22 23
M  V30 23 2 17 24
M  V30 24 1 24 25
M  V30 25 2 25 26
M  V30 26 1 7 27
M  V30 27 2 27 28
M  V30 28 1 28 29
M  V30 29 1 29 2
M  V30 30 1 28 4
M  V30 31 1 26 8
M  V30 32 1 26 11
M  V30 33 1 25 14
M  V30 34 1 23 18
M  V30 35 1 1 30
M  V30 36 1 1 31
M  V30 37 1 1 32
M  V30 38 1 5 33
M  V30 39 1 6 34
M  V30 40 1 9 35
M  V30 41 1 12 36
M  V30 42 1 15 37
M  V30 43 1 19 38
M  V30 44 1 20 39
M  V30 45 1 21 40
M  V30 46 1 22 41
M  V30 47 1 23 42
M  V30 48 1 24 43
M  V30 49 1 27 44
M  V30 END BOND
M  V30 END CTAB
M  END
>  <Dataset>  (881) 
ChEMBL_Kinases

>  <Ligand_Instance>  (881) 
nan

>  <PDB_ID>  (881) 
nan

>  <Standardized_SMILES>  (881) 
Cc1nc2ccc(-n3cnc4cnc5cnc(-c6ccccc6)cc5c43)cc2s1

>  <Name>  (881) 
nan

>  <Pocket>  (881) 
nan

>  <ATP_Site>  (881) 
nan

>  <Peripheral>  (881) 
nan

>  <Num_H_Atoms_ProtBoundConf>  (881) 
nan

>  <Num_Resolved_Atoms>  (881) 
nan

>  <Num_Not_Resolved_Atoms>  (881) 
nan

$$$$
CHEMBL3936445
     RDKit          3D

  0  0  0  0  0  0  0  0  0  0999 V3000
M  V30 BEGIN CTAB
M  V30 COUNTS 58 61 0 0 0
M  V30 BEGIN ATOM
M  V30 1 C -0.714286 -2.987416 3.343716 0
M  V30 2 C 0.197073 -1.937737 2.826483 0
M  V30 3 C 1.327576 -1.557005 3.504591 0
M  V30 4 C 2.145991 -0.570271 2.979784 0
M  V30 5 C 1.845943 0.042656 1.779996 0
M  V30 6 N 2.677190 1.058704 1.227182 0
M  V30 7 C 2.766942 2.465482 1.300498 0
M  V30 8 O 1.910909 3.027756 2.034780 0
M  V30 9 C 3.830871 3.102329 0.524846 0
M  V30 10 C 4.778727 2.512445 -0.285622 0
M  V30 11 C 5.701474 3.308211 -0.933188 0
M  V30 12 C 5.733461 4.687829 -0.816048 0
M  V30 13 C 4.768529 5.257080 0.005807 0
M  V30 14 C 4.832706 6.739413 0.108167 0
M  V30 15 F 4.007682 7.085104 1.166302 0
M  V30 16 F 6.108574 7.148863 0.410712 0
M  V30 17 F 4.321128 7.348790 -1.014289 0
M  V30 18 C 3.834930 4.491292 0.665044 0
M  V30 19 C 0.698915 -0.382251 1.147089 0
M  V30 20 C -0.147998 -1.356871 1.623750 0
M  V30 21 C -1.319887 -1.675115 0.808479 0
M  V30 22 C -1.824424 -2.910738 0.456099 0
M  V30 23 C -2.947655 -2.993634 -0.323178 0
M  V30 24 N -3.435809 -4.285809 -0.664164 0
M  V30 25 C -4.750816 -4.753194 -0.308378 0
M  V30 26 C -4.792481 -6.217924 -0.760514 0
M  V30 27 O -3.703540 -6.822300 -0.137783 0
M  V30 28 C -2.519633 -6.545012 -0.787092 0
M  V30 29 C -2.559751 -5.171191 -1.407280 0
M  V30 30 C -3.623048 -1.891649 -0.789562 0
M  V30 31 O -4.651445 -2.004984 -1.503141 0
M  V30 32 N -3.115197 -0.675553 -0.434961 0
M  V30 33 C -3.800090 0.514044 -0.907738 0
M  V30 34 C -2.011889 -0.555031 0.330605 0
M  V30 35 H -0.744057 -2.917656 4.470934 0
M  V30 36 H -0.402851 -4.016121 3.067927 0
M  V30 37 H -1.742782 -2.843717 3.019675 0
M  V30 38 H 1.563581 -2.041054 4.451087 0
M  V30 39 H 3.038669 -0.263577 3.506563 0
M  V30 40 H 3.281488 0.404986 0.682534 0
M  V30 41 H 4.703595 1.454549 -0.335401 0
M  V30 42 H 6.413130 2.744600 -1.554203 0
M  V30 43 H 6.496946 5.242727 -1.362525 0
M  V30 44 H 3.150371 5.084476 1.267649 0
M  V30 45 H 0.479109 0.119857 0.192300 0
M  V30 46 H -1.257772 -3.731742 0.846559 0
M  V30 47 H -4.900037 -4.738684 0.795015 0
M  V30 48 H -5.538351 -4.203577 -0.861509 0
M  V30 49 H -4.664339 -6.188167 -1.875100 0
M  V30 50 H -5.747070 -6.661606 -0.464345 0
M  V30 51 H -2.284436 -7.338088 -1.537138 0
M  V30 52 H -1.652915 -6.547861 -0.092810 0
M  V30 53 H -2.921400 -5.309398 -2.468227 0
M  V30 54 H -1.543588 -4.739790 -1.531794 0
M  V30 55 H -3.940259 1.239441 -0.068689 0
M  V30 56 H -3.146756 0.998243 -1.658391 0
M  V30 57 H -4.783523 0.249777 -1.334672 0
M  V30 58 H -1.682816 0.468218 0.560832 0
M  V30 END ATOM
M  V30 BEGIN BOND
M  V30 1 1 1 2
M  V30 2 2 2 3
M  V30 3 1 3 4
M  V30 4 2 4 5
M  V30 5 1 5 6
M  V30 6 1 6 7
M  V30 7 2 7 8
M  V30 8 1 7 9
M  V30 9 2 9 10
M  V30 10 1 10 11
M  V30 11 2 11 12
M  V30 12 1 12 13
M  V30 13 1 13 14
M  V30 14 1 14 15
M  V30 15 1 14 16
M  V30 16 1 14 17
M  V30 17 2 13 18
M  V30 18 1 5 19
M  V30 19 2 19 20
M  V30 20 1 20 21
M  V30 21 1 21 22
M  V30 22 2 22 23
M  V30 23 1 23 24
M  V30 24 1 24 25
M  V30 25 1 25 26
M  V30 26 1 26 27
M  V30 27 1 27 28
M  V30 28 1 28 29
M  V30 29 1 23 30
M  V30 30 2 30 31
M  V30 31 1 30 32
M  V30 32 1 32 33
M  V30 33 1 32 34
M  V30 34 1 20 2
M  V30 35 2 34 21
M  V30 36 1 18 9
M  V30 37 1 29 24
M  V30 38 1 1 35
M  V30 39 1 1 36
M  V30 40 1 1 37
M  V30 41 1 3 38
M  V30 42 1 4 39
M  V30 43 1 6 40
M  V30 44 1 10 41
M  V30 45 1 11 42
M  V30 46 1 12 43
M  V30 47 1 18 44
M  V30 48 1 19 45
M  V30 49 1 22 46
M  V30 50 1 25 47
M  V30 51 1 25 48
M  V30 52 1 26 49
M  V30 53 1 26 50
M  V30 54 1 28 51
M  V30 55 1 28 52
M  V30 56 1 29 53
M  V30 57 1 29 54
M  V30 58 1 33 55
M  V30 59 1 33 56
M  V30 60 1 33 57
M  V30 61 1 34 58
M  V30 END BOND
M  V30 END CTAB
M  END
>  <Dataset>  (882) 
ChEMBL_Kinases

>  <Ligand_Instance>  (882) 
nan

>  <PDB_ID>  (882) 
nan

>  <Standardized_SMILES>  (882) 
Cc1ccc(NC(=O)c2cccc(C(F)(F)F)c2)cc1-c1cc(N2CCOCC2)c(=O)n(C)c1

>  <Name>  (882) 
nan

>  <Pocket>  (882) 
nan

>  <ATP_Site>  (882) 
nan

>  <Peripheral>  (882) 
nan

>  <Num_H_Atoms_ProtBoundConf>  (882) 
nan

>  <Num_Resolved_Atoms>  (882) 
nan

>  <Num_Not_Resolved_Atoms>  (882) 
nan

$$$$
CHEMBL64758
     RDKit          3D

  0  0  0  0  0  0  0  0  0  0999 V3000
M  V30 BEGIN CTAB
M  V30 COUNTS 36 41 0 0 0
M  V30 BEGIN ATOM
M  V30 1 O 4.332434 -0.292791 0.989668 0
M  V30 2 C 3.265571 -0.898023 1.158118 0
M  V30 3 N 3.320638 -2.147700 1.841039 0
M  V30 4 C 1.993873 -2.653148 1.917037 0
M  V30 5 O 1.810290 -3.748605 2.481266 0
M  V30 6 C 1.126345 -1.692784 1.269746 0
M  V30 7 C 1.885796 -0.641366 0.814761 0
M  V30 8 C 1.273115 0.380616 0.172017 0
M  V30 9 C 1.743554 1.530378 -0.378967 0
M  V30 10 C 2.921198 2.180097 -0.554989 0
M  V30 11 C 3.137668 3.389297 -1.175763 0
M  V30 12 C 2.015299 4.041993 -1.694773 0
M  V30 13 C 0.779528 3.448781 -1.557889 0
M  V30 14 C 0.678486 2.214351 -0.906359 0
M  V30 15 N -0.470975 1.546398 -0.716312 0
M  V30 16 C -0.084566 0.425006 -0.053465 0
M  V30 17 C -0.853455 -0.628421 0.401203 0
M  V30 18 N -2.200881 -0.825287 0.307518 0
M  V30 19 C -2.410630 -2.005688 0.913742 0
M  V30 20 C -3.653062 -2.622796 1.062552 0
M  V30 21 C -3.727397 -3.838034 1.707682 0
M  V30 22 Br -5.393331 -4.730067 1.942072 0
M  V30 23 C -2.554528 -4.415275 2.193433 0
M  V30 24 C -1.383109 -3.723217 1.993618 0
M  V30 25 C -1.220975 -2.525362 1.370902 0
M  V30 26 C -0.214145 -1.658895 1.052490 0
M  V30 27 H 4.193562 -2.626243 2.228972 0
M  V30 28 H 3.809806 1.732443 -0.181392 0
M  V30 29 H 4.114534 3.842043 -1.275215 0
M  V30 30 H 2.090614 4.994121 -2.197696 0
M  V30 31 H -0.069054 3.972591 -1.966675 0
M  V30 32 H -1.439503 1.808727 -1.001704 0
M  V30 33 H -2.896896 -0.190921 -0.138304 0
M  V30 34 H -4.566998 -2.192806 0.694746 0
M  V30 35 H -2.611302 -5.361264 2.695789 0
M  V30 36 H -0.527840 -4.215022 2.386117 0
M  V30 END ATOM
M  V30 BEGIN BOND
M  V30 1 2 1 2
M  V30 2 1 2 3
M  V30 3 1 3 4
M  V30 4 2 4 5
M  V30 5 1 4 6
M  V30 6 2 6 7
M  V30 7 1 7 8
M  V30 8 1 8 9
M  V30 9 2 9 10
M  V30 10 1 10 11
M  V30 11 2 11 12
M  V30 12 1 12 13
M  V30 13 2 13 14
M  V30 14 1 14 15
M  V30 15 1 15 16
M  V30 16 1 16 17
M  V30 17 1 17 18
M  V30 18 1 18 19
M  V30 19 2 19 20
M  V30 20 1 20 21
M  V30 21 1 21 22
M  V30 22 2 21 23
M  V30 23 1 23 24
M  V30 24 2 24 25
M  V30 25 1 25 26
M  V30 26 1 7 2
M  V30 27 2 16 8
M  V30 28 2 26 17
M  V30 29 1 26 6
M  V30 30 1 14 9
M  V30 31 1 25 19
M  V30 32 1 3 27
M  V30 33 1 10 28
M  V30 34 1 11 29
M  V30 35 1 12 30
M  V30 36 1 13 31
M  V30 37 1 15 32
M  V30 38 1 18 33
M  V30 39 1 20 34
M  V30 40 1 23 35
M  V30 41 1 24 36
M  V30 END BOND
M  V30 END CTAB
M  END
>  <Dataset>  (883) 
ChEMBL_Kinases

>  <Ligand_Instance>  (883) 
nan

>  <PDB_ID>  (883) 
nan

>  <Standardized_SMILES>  (883) 
O=C1NC(=O)c2c1c1c3ccccc3[nH]c1c1[nH]c3cc(Br)ccc3c21

>  <Name>  (883) 
nan

>  <Pocket>  (883) 
nan

>  <ATP_Site>  (883) 
nan

>  <Peripheral>  (883) 
nan

>  <Num_H_Atoms_ProtBoundConf>  (883) 
nan

>  <Num_Resolved_Atoms>  (883) 
nan

>  <Num_Not_Resolved_Atoms>  (883) 
nan

$$$$
CHEMBL393636
     RDKit          3D

  0  0  0  0  0  0  0  0  0  0999 V3000
M  V30 BEGIN CTAB
M  V30 COUNTS 27 29 0 0 0
M  V30 BEGIN ATOM
M  V30 1 O 1.306992 -1.012013 3.008817 0
M  V30 2 C 0.956673 -1.485715 1.905754 0
M  V30 3 N 0.971264 -2.812040 1.415850 0
M  V30 4 C 0.464017 -2.840007 0.090169 0
M  V30 5 C 0.274856 -3.884705 -0.820970 0
M  V30 6 C -0.247664 -3.649636 -2.087806 0
M  V30 7 C -0.580074 -2.336186 -2.425715 0
M  V30 8 O -1.102416 -2.086883 -3.683912 0
M  V30 9 C -0.387545 -1.320618 -1.517410 0
M  V30 10 C 0.130476 -1.550532 -0.261843 0
M  V30 11 C 0.420459 -0.626108 0.857834 0
M  V30 12 C 0.217186 0.678034 0.825977 0
M  V30 13 C 0.533051 1.551755 1.940747 0
M  V30 14 C 1.566529 1.864445 2.802206 0
M  V30 15 C 1.173481 2.820168 3.715282 0
M  V30 16 C -0.147304 3.102045 3.398681 0
M  V30 17 N -0.501196 2.343466 2.351377 0
M  V30 18 H 1.318874 -3.609168 2.000851 0
M  V30 19 H 0.531874 -4.899673 -0.555652 0
M  V30 20 H -0.418546 -4.410395 -2.836038 0
M  V30 21 H -1.992517 -1.613568 -3.844370 0
M  V30 22 H -0.665574 -0.309474 -1.838397 0
M  V30 23 H -0.208366 1.101099 -0.098715 0
M  V30 24 H 2.497854 1.334953 2.623272 0
M  V30 25 H 1.888212 3.178585 4.474295 0
M  V30 26 H -0.661431 3.840183 4.001946 0
M  V30 27 H -1.493505 2.487623 2.036003 0
M  V30 END ATOM
M  V30 BEGIN BOND
M  V30 1 2 1 2
M  V30 2 1 2 3
M  V30 3 1 3 4
M  V30 4 2 4 5
M  V30 5 1 5 6
M  V30 6 2 6 7
M  V30 7 1 7 8
M  V30 8 1 7 9
M  V30 9 2 9 10
M  V30 10 1 10 11
M  V30 11 2 11 12
M  V30 12 1 12 13
M  V30 13 2 13 14
M  V30 14 1 14 15
M  V30 15 2 15 16
M  V30 16 1 16 17
M  V30 17 1 11 2
M  V30 18 1 17 13
M  V30 19 1 10 4
M  V30 20 1 3 18
M  V30 21 1 5 19
M  V30 22 1 6 20
M  V30 23 1 8 21
M  V30 24 1 9 22
M  V30 25 1 12 23
M  V30 26 1 14 24
M  V30 27 1 15 25
M  V30 28 1 16 26
M  V30 29 1 17 27
M  V30 END BOND
M  V30 END CTAB
M  END
>  <Dataset>  (884) 
ChEMBL_Kinases

>  <Ligand_Instance>  (884) 
nan

>  <PDB_ID>  (884) 
nan

>  <Standardized_SMILES>  (884) 
O=C1Nc2ccc(O)cc2/C1=C/c1ccc[nH]1

>  <Name>  (884) 
nan

>  <Pocket>  (884) 
nan

>  <ATP_Site>  (884) 
nan

>  <Peripheral>  (884) 
nan

>  <Num_H_Atoms_ProtBoundConf>  (884) 
nan

>  <Num_Resolved_Atoms>  (884) 
nan

>  <Num_Not_Resolved_Atoms>  (884) 
nan

$$$$
CHEMBL3936303
     RDKit          3D

  0  0  0  0  0  0  0  0  0  0999 V3000
M  V30 BEGIN CTAB
M  V30 COUNTS 51 54 0 0 0
M  V30 BEGIN ATOM
M  V30 1 N 1.195089 -4.347137 -2.059741 0
M  V30 2 C 1.388698 -3.424012 -1.398926 0
M  V30 3 C 1.630604 -2.229461 -0.570334 0 CFG=2
M  V30 4 C 3.041826 -1.731877 -0.773503 0
M  V30 5 C 3.225445 -0.533352 0.082177 0
M  V30 6 C 3.678507 -0.585195 1.377523 0
M  V30 7 C 3.797194 0.623828 2.046646 0
M  V30 8 C 3.465454 1.788049 1.402001 0
M  V30 9 C 3.013959 1.799826 0.100338 0
M  V30 10 N 2.717122 3.090335 -0.410063 0
M  V30 11 C 1.407975 3.656317 -0.271449 0
M  V30 12 C 0.179931 3.738967 -0.911399 0
M  V30 13 C -0.631319 4.510876 -0.102559 0
M  V30 14 N 0.076547 4.876342 0.975576 0
M  V30 15 N 1.300166 4.366873 0.879860 0
M  V30 16 N 2.900752 0.630503 -0.542262 0
M  V30 17 C 1.415436 -2.635005 0.873003 0
M  V30 18 C 0.145155 -3.436643 0.900591 0
M  V30 19 C -1.046888 -2.776208 0.283672 0 CFG=1
M  V30 20 O -1.795701 -2.147855 1.281967 0
M  V30 21 C -3.043907 -2.387529 1.739633 0
M  V30 22 C -3.326486 -1.467451 2.757592 0
M  V30 23 C -4.549324 -1.456062 3.436951 0
M  V30 24 C -5.520896 -2.386679 3.094885 0
M  V30 25 C -5.260080 -3.299127 2.095940 0
M  V30 26 Cl -6.399715 -4.524204 1.569434 0
M  V30 27 C -4.049938 -3.281157 1.451061 0
M  V30 28 F -3.727990 -4.137442 0.471407 0
M  V30 29 C -0.747353 -1.846295 -0.845486 0
M  V30 30 C 0.584002 -1.164421 -0.803992 0
M  V30 31 H 3.259653 -1.554824 -1.835977 0
M  V30 32 H 3.702906 -2.568029 -0.415839 0
M  V30 33 H 3.909894 -1.550033 1.786004 0
M  V30 34 H 4.158668 0.558477 3.073537 0
M  V30 35 H 3.599834 2.668392 2.027885 0
M  V30 36 H 3.333458 3.776622 -0.919603 0
M  V30 37 H 0.177713 3.188018 -1.858814 0
M  V30 38 H -1.644887 4.658887 -0.493624 0
M  V30 39 H -0.411853 5.468498 1.681256 0
M  V30 40 H 1.294321 -1.731594 1.508163 0
M  V30 41 H 2.225305 -3.275498 1.222003 0
M  V30 42 H 0.383644 -4.401726 0.396998 0
M  V30 43 H -0.064935 -3.689560 1.961108 0
M  V30 44 H -1.651663 -3.593586 -0.149268 0
M  V30 45 H -2.702179 -0.672994 3.161805 0
M  V30 46 H -4.847304 -0.798008 4.217526 0
M  V30 47 H -6.494698 -2.444768 3.572804 0
M  V30 48 H -1.517013 -1.030506 -0.813052 0
M  V30 49 H -0.859020 -2.322426 -1.844490 0
M  V30 50 H 0.602259 -0.467235 0.057207 0
M  V30 51 H 0.729335 -0.629618 -1.741510 0
M  V30 END ATOM
M  V30 BEGIN BOND
M  V30 1 3 1 2
M  V30 2 1 3 2 CFG=3
M  V30 3 1 3 4
M  V30 4 1 4 5
M  V30 5 2 5 6
M  V30 6 1 6 7
M  V30 7 2 7 8
M  V30 8 1 8 9
M  V30 9 1 9 10
M  V30 10 1 10 11
M  V30 11 1 11 12
M  V30 12 2 12 13
M  V30 13 1 13 14
M  V30 14 1 14 15
M  V30 15 2 9 16
M  V30 16 1 3 17
M  V30 17 1 17 18
M  V30 18 1 18 19
M  V30 19 1 19 20
M  V30 20 1 20 21
M  V30 21 2 21 22
M  V30 22 1 22 23
M  V30 23 2 23 24
M  V30 24 1 24 25
M  V30 25 1 25 26
M  V30 26 2 25 27
M  V30 27 1 27 28
M  V30 28 1 19 29
M  V30 29 1 29 30
M  V30 30 1 30 3
M  V30 31 1 16 5
M  V30 32 1 27 21
M  V30 33 2 15 11
M  V30 34 1 4 31
M  V30 35 1 4 32
M  V30 36 1 6 33
M  V30 37 1 7 34
M  V30 38 1 8 35
M  V30 39 1 10 36
M  V30 40 1 12 37
M  V30 41 1 13 38
M  V30 42 1 14 39
M  V30 43 1 17 40
M  V30 44 1 17 41
M  V30 45 1 18 42
M  V30 46 1 18 43
M  V30 47 1 19 44 CFG=3
M  V30 48 1 22 45
M  V30 49 1 23 46
M  V30 50 1 24 47
M  V30 51 1 29 48
M  V30 52 1 29 49
M  V30 53 1 30 50
M  V30 54 1 30 51
M  V30 END BOND
M  V30 END CTAB
M  END
>  <Dataset>  (885) 
ChEMBL_Kinases

>  <Ligand_Instance>  (885) 
nan

>  <PDB_ID>  (885) 
nan

>  <Standardized_SMILES>  (885) 
N#C[C@]1(Cc2cccc(Nc3cc[nH]n3)n2)CC[C@@H](Oc2cccc(Cl)c2F)CC1

>  <Name>  (885) 
nan

>  <Pocket>  (885) 
nan

>  <ATP_Site>  (885) 
nan

>  <Peripheral>  (885) 
nan

>  <Num_H_Atoms_ProtBoundConf>  (885) 
nan

>  <Num_Resolved_Atoms>  (885) 
nan

>  <Num_Not_Resolved_Atoms>  (885) 
nan

$$$$
CHEMBL3936269
     RDKit          3D

  0  0  0  0  0  0  0  0  0  0999 V3000
M  V30 BEGIN CTAB
M  V30 COUNTS 56 58 0 0 0
M  V30 BEGIN ATOM
M  V30 1 C 2.842593 -3.562631 0.285332 0
M  V30 2 C 2.301211 -3.142554 1.616647 0 CFG=2
M  V30 3 C 3.246504 -3.393232 2.652090 0
M  V30 4 C 3.851635 -2.342138 3.283774 0
M  V30 5 C 3.575641 -0.950240 2.944316 0
M  V30 6 O 4.058700 0.087504 3.482313 0
M  V30 7 C 3.012808 0.176548 2.279268 0 CFG=1
M  V30 8 O 3.286844 1.342429 3.055690 0
M  V30 9 C 3.573592 0.557354 0.908768 0 CFG=1
M  V30 10 O 3.527146 -0.465316 -0.017039 0
M  V30 11 C 2.641528 1.703960 0.399324 0
M  V30 12 C 1.257746 1.144666 0.242489 0
M  V30 13 C -0.008804 1.213117 0.606626 0
M  V30 14 C -1.197621 0.453935 0.227476 0
M  V30 15 C -2.076131 1.297072 -0.424080 0
M  V30 16 C -3.310059 0.915933 -0.912556 0
M  V30 17 N -4.217847 1.766648 -1.582789 0
M  V30 18 C -5.511276 1.350350 -2.087826 0
M  V30 19 C -6.391886 2.314344 -2.785569 0
M  V30 20 C -5.610397 1.297241 -3.589743 0
M  V30 21 C -3.660742 -0.398454 -0.721041 0
M  V30 22 C -2.783741 -1.269646 -0.061388 0
M  V30 23 O -3.000487 -2.616041 0.210225 0
M  V30 24 C -1.560002 -0.846758 0.407913 0
M  V30 25 C -0.712749 -1.876389 1.058736 0
M  V30 26 O -1.274737 -1.695113 2.169951 0
M  V30 27 O 0.323682 -2.726606 0.602027 0
M  V30 28 C 0.883434 -3.569056 1.640807 0 CFG=1
M  V30 29 C 0.645416 -5.015169 1.336560 0
M  V30 30 H 2.646918 -4.616368 0.104687 0
M  V30 31 H 2.415205 -3.004462 -0.572258 0
M  V30 32 H 3.935085 -3.299478 0.271707 0
M  V30 33 H 2.126655 -2.014089 1.666044 0
M  V30 34 H 3.578187 -4.336195 3.037396 0
M  V30 35 H 4.578733 -2.426907 4.079749 0
M  V30 36 H 1.927579 0.245497 2.122149 0
M  V30 37 H 2.626897 1.456539 3.769669 0
M  V30 38 H 4.584471 0.941886 1.052895 0
M  V30 39 H 4.332053 -0.366006 -0.619138 0
M  V30 40 H 3.036583 1.983354 -0.594528 0
M  V30 41 H 2.621656 2.524415 1.134535 0
M  V30 42 H 1.335946 0.321784 -0.492603 0
M  V30 43 H -0.254911 1.999376 1.347239 0
M  V30 44 H -1.891329 2.366747 -0.622537 0
M  V30 45 H -3.926974 2.766489 -1.719599 0
M  V30 46 H -5.996834 0.482018 -1.561039 0
M  V30 47 H -7.481660 2.099017 -2.728847 0
M  V30 48 H -6.129150 3.384715 -2.832187 0
M  V30 49 H -6.175299 0.451477 -4.059248 0
M  V30 50 H -4.807931 1.741525 -4.210061 0
M  V30 51 H -4.576770 -0.870507 -1.033475 0
M  V30 52 H -3.706194 -2.872217 0.892058 0
M  V30 53 H 0.348277 -3.309470 2.564193 0
M  V30 54 H -0.353760 -5.288565 1.748638 0
M  V30 55 H 0.727832 -5.287218 0.266633 0
M  V30 56 H 1.390241 -5.630980 1.882472 0
M  V30 END ATOM
M  V30 BEGIN BOND
M  V30 1 1 1 2
M  V30 2 1 2 3
M  V30 3 2 3 4
M  V30 4 1 4 5
M  V30 5 2 5 6
M  V30 6 1 5 7
M  V30 7 1 7 8
M  V30 8 1 7 9
M  V30 9 1 9 10
M  V30 10 1 9 11
M  V30 11 1 11 12
M  V30 12 2 12 13
M  V30 13 1 13 14
M  V30 14 2 14 15
M  V30 15 1 15 16
M  V30 16 1 16 17
M  V30 17 1 17 18
M  V30 18 1 18 19
M  V30 19 1 19 20
M  V30 20 2 16 21
M  V30 21 1 21 22
M  V30 22 1 22 23
M  V30 23 2 22 24
M  V30 24 1 24 25
M  V30 25 2 25 26
M  V30 26 1 25 27
M  V30 27 1 27 28
M  V30 28 1 28 29
M  V30 29 1 28 2
M  V30 30 1 24 14
M  V30 31 1 20 18
M  V30 32 1 1 30
M  V30 33 1 1 31
M  V30 34 1 1 32
M  V30 35 1 2 33 CFG=3
M  V30 36 1 3 34
M  V30 37 1 4 35
M  V30 38 1 7 36 CFG=3
M  V30 39 1 8 37
M  V30 40 1 9 38 CFG=1
M  V30 41 1 10 39
M  V30 42 1 11 40
M  V30 43 1 11 41
M  V30 44 1 12 42
M  V30 45 1 13 43
M  V30 46 1 15 44
M  V30 47 1 17 45
M  V30 48 1 18 46
M  V30 49 1 19 47
M  V30 50 1 19 48
M  V30 51 1 20 49
M  V30 52 1 20 50
M  V30 53 1 21 51
M  V30 54 1 23 52
M  V30 55 1 28 53 CFG=1
M  V30 56 1 29 54
M  V30 57 1 29 55
M  V30 58 1 29 56
M  V30 END BOND
M  V30 END CTAB
M  END
>  <Dataset>  (886) 
ChEMBL_Kinases

>  <Ligand_Instance>  (886) 
nan

>  <PDB_ID>  (886) 
nan

>  <Standardized_SMILES>  (886) 
C[C@@H]1/C=C\C(=O)[C@@H](O)[C@@H](O)C/C=C/c2cc(NC3CC3)cc(O)c2C(=O)O[C@H]1C

>  <Name>  (886) 
nan

>  <Pocket>  (886) 
nan

>  <ATP_Site>  (886) 
nan

>  <Peripheral>  (886) 
nan

>  <Num_H_Atoms_ProtBoundConf>  (886) 
nan

>  <Num_Resolved_Atoms>  (886) 
nan

>  <Num_Not_Resolved_Atoms>  (886) 
nan

$$$$
CHEMBL393603
     RDKit          3D

  0  0  0  0  0  0  0  0  0  0999 V3000
M  V30 BEGIN CTAB
M  V30 COUNTS 64 69 0 0 0
M  V30 BEGIN ATOM
M  V30 1 O 7.897970 2.536144 8.003656 0
M  V30 2 C 6.766710 2.601564 7.209483 0
M  V30 3 C 5.748090 3.490443 7.464538 0
M  V30 4 C 4.634101 3.551835 6.679780 0
M  V30 5 C 4.428847 2.743720 5.578313 0
M  V30 6 C 3.281537 2.740298 4.690518 0
M  V30 7 C 3.506084 2.390121 3.366821 0
M  V30 8 C 2.447350 2.361340 2.455754 0
M  V30 9 C 1.172725 2.685517 2.884416 0
M  V30 10 C 0.065713 2.643299 1.923149 0
M  V30 11 N -0.959854 3.501688 1.651808 0
M  V30 12 N -1.710838 2.994591 0.688734 0
M  V30 13 C -1.207094 1.807977 0.307137 0
M  V30 14 C -0.070006 1.544756 1.071100 0
M  V30 15 C 0.490721 0.241310 0.656538 0
M  V30 16 C -0.450727 -0.217443 -0.410727 0
M  V30 17 C -0.327216 -1.411872 -1.085486 0
M  V30 18 C -1.267978 -1.729078 -2.057962 0
M  V30 19 C -2.300559 -0.815249 -2.305807 0
M  V30 20 C -3.307390 -1.176239 -3.329485 0
M  V30 21 N -4.483333 -1.772684 -2.842648 0
M  V30 22 C -4.896840 -3.025918 -3.364040 0
M  V30 23 C -3.998250 -4.142293 -2.956952 0
M  V30 24 N -4.401455 -5.418839 -3.459518 0
M  V30 25 C -4.239261 -5.549578 -4.880648 0
M  V30 26 C -2.751169 -5.851735 -5.063612 0
M  V30 27 C -2.240432 -6.345459 -3.744283 0
M  V30 28 C -3.510610 -6.424540 -2.916029 0
M  V30 29 C -2.376310 0.370382 -1.597995 0
M  V30 30 C -1.451715 0.706679 -0.625881 0
M  V30 31 C 0.966372 3.032019 4.204177 0
M  V30 32 C 1.999065 3.071977 5.143749 0
M  V30 33 C 5.469354 1.842597 5.325603 0
M  V30 34 C 6.597977 1.777792 6.117578 0
M  V30 35 H 8.522962 1.755615 8.086125 0
M  V30 36 H 5.866996 4.144631 8.318575 0
M  V30 37 H 3.848040 4.260113 6.902154 0
M  V30 38 H 4.477179 2.132708 2.990251 0
M  V30 39 H 2.658727 2.080789 1.419324 0
M  V30 40 H -2.567760 3.455289 0.290422 0
M  V30 41 H 0.444108 -0.487587 1.511988 0
M  V30 42 H 1.518868 0.325737 0.247624 0
M  V30 43 H 0.478700 -2.136147 -0.899702 0
M  V30 44 H -1.143698 -2.668112 -2.570290 0
M  V30 45 H -2.827987 -1.871984 -4.062744 0
M  V30 46 H -3.529649 -0.260895 -3.954861 0
M  V30 47 H -4.930831 -1.411481 -2.008486 0
M  V30 48 H -5.126590 -2.962959 -4.439492 0
M  V30 49 H -5.896763 -3.247401 -2.883607 0
M  V30 50 H -2.967724 -3.967538 -3.344070 0
M  V30 51 H -4.005486 -4.209017 -1.841881 0
M  V30 52 H -4.861196 -6.386003 -5.256682 0
M  V30 53 H -4.458198 -4.592651 -5.367739 0
M  V30 54 H -2.585763 -6.652532 -5.823538 0
M  V30 55 H -2.206553 -4.955621 -5.439516 0
M  V30 56 H -1.827682 -7.368936 -3.801260 0
M  V30 57 H -1.490558 -5.679150 -3.278515 0
M  V30 58 H -3.219153 -6.112989 -1.871752 0
M  V30 59 H -3.952333 -7.448351 -2.908531 0
M  V30 60 H -3.167524 1.081842 -1.778717 0
M  V30 61 H -0.032683 3.291085 4.560435 0
M  V30 62 H 1.839675 3.344111 6.174361 0
M  V30 63 H 5.448932 1.134707 4.484126 0
M  V30 64 H 7.382833 1.072221 5.897929 0
M  V30 END ATOM
M  V30 BEGIN BOND
M  V30 1 1 1 2
M  V30 2 2 2 3
M  V30 3 1 3 4
M  V30 4 2 4 5
M  V30 5 1 5 6
M  V30 6 2 6 7
M  V30 7 1 7 8
M  V30 8 2 8 9
M  V30 9 1 9 10
M  V30 10 2 10 11
M  V30 11 1 11 12
M  V30 12 1 12 13
M  V30 13 2 13 14
M  V30 14 1 14 15
M  V30 15 1 15 16
M  V30 16 2 16 17
M  V30 17 1 17 18
M  V30 18 2 18 19
M  V30 19 1 19 20
M  V30 20 1 20 21
M  V30 21 1 21 22
M  V30 22 1 22 23
M  V30 23 1 23 24
M  V30 24 1 24 25
M  V30 25 1 25 26
M  V30 26 1 26 27
M  V30 27 1 27 28
M  V30 28 1 19 29
M  V30 29 2 29 30
M  V30 30 1 9 31
M  V30 31 2 31 32
M  V30 32 1 5 33
M  V30 33 2 33 34
M  V30 34 1 34 2
M  V30 35 1 32 6
M  V30 36 1 14 10
M  V30 37 1 30 16
M  V30 38 1 30 13
M  V30 39 1 28 24
M  V30 40 1 1 35
M  V30 41 1 3 36
M  V30 42 1 4 37
M  V30 43 1 7 38
M  V30 44 1 8 39
M  V30 45 1 12 40
M  V30 46 1 15 41
M  V30 47 1 15 42
M  V30 48 1 17 43
M  V30 49 1 18 44
M  V30 50 1 20 45
M  V30 51 1 20 46
M  V30 52 1 21 47
M  V30 53 1 22 48
M  V30 54 1 22 49
M  V30 55 1 23 50
M  V30 56 1 23 51
M  V30 57 1 25 52
M  V30 58 1 25 53
M  V30 59 1 26 54
M  V30 60 1 26 55
M  V30 61 1 27 56
M  V30 62 1 27 57
M  V30 63 1 28 58
M  V30 64 1 28 59
M  V30 65 1 29 60
M  V30 66 1 31 61
M  V30 67 1 32 62
M  V30 68 1 33 63
M  V30 69 1 34 64
M  V30 END BOND
M  V30 END CTAB
M  END
>  <Dataset>  (887) 
ChEMBL_Kinases

>  <Ligand_Instance>  (887) 
nan

>  <PDB_ID>  (887) 
nan

>  <Standardized_SMILES>  (887) 
Oc1ccc(-c2ccc(-c3n[nH]c4c3Cc3ccc(CNCCN5CCCC5)cc3-4)cc2)cc1

>  <Name>  (887) 
nan

>  <Pocket>  (887) 
nan

>  <ATP_Site>  (887) 
nan

>  <Peripheral>  (887) 
nan

>  <Num_H_Atoms_ProtBoundConf>  (887) 
nan

>  <Num_Resolved_Atoms>  (887) 
nan

>  <Num_Not_Resolved_Atoms>  (887) 
nan

$$$$
CHEMBL6390
     RDKit          3D

  0  0  0  0  0  0  0  0  0  0999 V3000
M  V30 BEGIN CTAB
M  V30 COUNTS 26 28 0 0 0
M  V30 BEGIN ATOM
M  V30 1 O 0.573896 0.852878 3.530981 0
M  V30 2 C 0.856502 0.050894 2.589571 0
M  V30 3 N 1.897721 -0.911944 2.529259 0
M  V30 4 C 1.777354 -1.548339 1.256926 0
M  V30 5 C 2.574849 -2.566426 0.730580 0
M  V30 6 C 2.240933 -3.001789 -0.523294 0
M  V30 7 C 1.187715 -2.510864 -1.288700 0
M  V30 8 C 0.410428 -1.491637 -0.729603 0
M  V30 9 C 0.715501 -1.017793 0.546148 0
M  V30 10 C 0.033407 0.044889 1.324697 0
M  V30 11 O 0.236495 1.305171 0.779189 0
M  V30 12 C -0.854845 2.135254 0.934311 0
M  V30 13 C -1.948389 1.465175 0.091058 0
M  V30 14 C -2.253091 0.172595 0.844424 0
M  V30 15 O -1.246730 -0.228340 1.682425 0
M  V30 16 H 2.570879 -1.053187 3.313660 0
M  V30 17 H 3.403768 -2.985509 1.277031 0
M  V30 18 H 2.852110 -3.792020 -0.943764 0
M  V30 19 H 0.986537 -2.905156 -2.269960 0
M  V30 20 H -0.414468 -1.086209 -1.293286 0
M  V30 21 H -0.606189 3.140237 0.601603 0
M  V30 22 H -1.159162 2.107488 2.010653 0
M  V30 23 H -2.827478 2.106346 -0.011374 0
M  V30 24 H -1.481140 1.170260 -0.865427 0
M  V30 25 H -2.608015 -0.592726 0.125312 0
M  V30 26 H -3.142630 0.403822 1.475724 0
M  V30 END ATOM
M  V30 BEGIN BOND
M  V30 1 2 1 2
M  V30 2 1 2 3
M  V30 3 1 3 4
M  V30 4 2 4 5
M  V30 5 1 5 6
M  V30 6 2 6 7
M  V30 7 1 7 8
M  V30 8 2 8 9
M  V30 9 1 9 10
M  V30 10 1 10 11
M  V30 11 1 11 12
M  V30 12 1 12 13
M  V30 13 1 13 14
M  V30 14 1 14 15
M  V30 15 1 10 2
M  V30 16 1 9 4
M  V30 17 1 15 10
M  V30 18 1 3 16
M  V30 19 1 5 17
M  V30 20 1 6 18
M  V30 21 1 7 19
M  V30 22 1 8 20
M  V30 23 1 12 21
M  V30 24 1 12 22
M  V30 25 1 13 23
M  V30 26 1 13 24
M  V30 27 1 14 25
M  V30 28 1 14 26
M  V30 END BOND
M  V30 END CTAB
M  END
>  <Dataset>  (888) 
ChEMBL_Kinases

>  <Ligand_Instance>  (888) 
nan

>  <PDB_ID>  (888) 
nan

>  <Standardized_SMILES>  (888) 
O=C1Nc2ccccc2C12OCCCO2

>  <Name>  (888) 
nan

>  <Pocket>  (888) 
nan

>  <ATP_Site>  (888) 
nan

>  <Peripheral>  (888) 
nan

>  <Num_H_Atoms_ProtBoundConf>  (888) 
nan

>  <Num_Resolved_Atoms>  (888) 
nan

>  <Num_Not_Resolved_Atoms>  (888) 
nan

$$$$
CHEMBL3935794
     RDKit          3D

  0  0  0  0  0  0  0  0  0  0999 V3000
M  V30 BEGIN CTAB
M  V30 COUNTS 46 49 0 0 0
M  V30 BEGIN ATOM
M  V30 1 N 6.122752 -6.438448 0.476967 0
M  V30 2 C 6.612634 -5.181297 0.924868 0
M  V30 3 O 7.720522 -5.682464 1.164234 0
M  V30 4 C 5.874776 -3.925937 0.978767 0
M  V30 5 C 6.551021 -2.828521 1.461413 0
M  V30 6 C 5.803737 -1.650865 1.493176 0
M  V30 7 C 4.475296 -1.639788 1.057146 0
M  V30 8 N 3.582505 -0.619122 1.003210 0
M  V30 9 C 2.444667 -1.132959 0.505706 0
M  V30 10 C 1.209389 -0.377163 0.275963 0
M  V30 11 C 1.200649 0.968315 0.598052 0
M  V30 12 C 0.032197 1.710968 0.385092 0
M  V30 13 C -1.087279 1.061413 -0.147890 0
M  V30 14 C -2.320842 1.867275 -0.366779 0
M  V30 15 O -2.879434 1.604651 -1.636649 0
M  V30 16 C -3.363685 1.625232 0.669984 0
M  V30 17 C -3.267115 0.954026 1.871330 0
M  V30 18 C -4.369006 0.848743 2.689114 0
M  V30 19 C -5.602569 1.381962 2.386903 0
M  V30 20 Cl -6.946127 1.196833 3.490573 0
M  V30 21 C -5.672010 2.046744 1.182561 0
M  V30 22 C -6.995223 2.651791 0.807089 0
M  V30 23 F -7.956528 1.669098 0.737537 0
M  V30 24 F -7.326979 3.608543 1.715595 0
M  V30 25 F -6.921568 3.255317 -0.433491 0
M  V30 26 C -4.593197 2.177320 0.330173 0
M  V30 27 C -1.075159 -0.292815 -0.470842 0
M  V30 28 C 0.094583 -1.000600 -0.249046 0
M  V30 29 N 2.624496 -2.456237 0.252522 0
M  V30 30 C 3.878855 -2.812854 0.582889 0
M  V30 31 C 4.574304 -4.005941 0.530465 0
M  V30 32 H 5.269186 -6.701048 1.004795 0
M  V30 33 H 5.314679 -7.058760 0.724710 0
M  V30 34 H 7.579367 -2.918405 1.779340 0
M  V30 35 H 6.284771 -0.756160 1.863517 0
M  V30 36 H 3.725569 0.378931 1.286276 0
M  V30 37 H 2.052720 1.514396 1.016418 0
M  V30 38 H -0.001281 2.763888 0.628362 0
M  V30 39 H -2.092694 2.937721 -0.327217 0
M  V30 40 H -2.826532 2.411743 -2.235081 0
M  V30 41 H -2.276749 0.560135 2.050020 0
M  V30 42 H -4.179590 0.295310 3.618258 0
M  V30 43 H -4.784284 2.732315 -0.601739 0
M  V30 44 H -1.936473 -0.800840 -0.882935 0
M  V30 45 H 0.203817 -2.068557 -0.471167 0
M  V30 46 H 4.130128 -4.920359 0.167714 0
M  V30 END ATOM
M  V30 BEGIN BOND
M  V30 1 1 1 2
M  V30 2 2 2 3
M  V30 3 1 2 4
M  V30 4 2 4 5
M  V30 5 1 5 6
M  V30 6 2 6 7
M  V30 7 1 7 8
M  V30 8 1 8 9
M  V30 9 1 9 10
M  V30 10 2 10 11
M  V30 11 1 11 12
M  V30 12 2 12 13
M  V30 13 1 13 14
M  V30 14 1 14 15
M  V30 15 1 14 16
M  V30 16 2 16 17
M  V30 17 1 17 18
M  V30 18 2 18 19
M  V30 19 1 19 20
M  V30 20 1 19 21
M  V30 21 1 21 22
M  V30 22 1 22 23
M  V30 23 1 22 24
M  V30 24 1 22 25
M  V30 25 2 21 26
M  V30 26 1 13 27
M  V30 27 2 27 28
M  V30 28 2 9 29
M  V30 29 1 29 30
M  V30 30 2 30 31
M  V30 31 1 31 4
M  V30 32 1 30 7
M  V30 33 1 28 10
M  V30 34 1 26 16
M  V30 35 1 1 32
M  V30 36 1 1 33
M  V30 37 1 5 34
M  V30 38 1 6 35
M  V30 39 1 8 36
M  V30 40 1 11 37
M  V30 41 1 12 38
M  V30 42 1 14 39
M  V30 43 1 15 40
M  V30 44 1 17 41
M  V30 45 1 18 42
M  V30 46 1 26 43
M  V30 47 1 27 44
M  V30 48 1 28 45
M  V30 49 1 31 46
M  V30 END BOND
M  V30 END CTAB
M  END
>  <Dataset>  (889) 
ChEMBL_Kinases

>  <Ligand_Instance>  (889) 
nan

>  <PDB_ID>  (889) 
nan

>  <Standardized_SMILES>  (889) 
NC(=O)c1ccc2[nH]c(-c3ccc(C(O)c4ccc(Cl)c(C(F)(F)F)c4)cc3)nc2c1

>  <Name>  (889) 
nan

>  <Pocket>  (889) 
nan

>  <ATP_Site>  (889) 
nan

>  <Peripheral>  (889) 
nan

>  <Num_H_Atoms_ProtBoundConf>  (889) 
nan

>  <Num_Resolved_Atoms>  (889) 
nan

>  <Num_Not_Resolved_Atoms>  (889) 
nan

$$$$
CHEMBL3935733
     RDKit          3D

  0  0  0  0  0  0  0  0  0  0999 V3000
M  V30 BEGIN CTAB
M  V30 COUNTS 56 59 0 0 0
M  V30 BEGIN ATOM
M  V30 1 C -8.030862 -1.915753 -3.967226 0
M  V30 2 C -7.247572 -1.482935 -2.988312 0
M  V30 3 C -6.322174 -1.060448 -1.896177 0
M  V30 4 O -7.019078 -0.931064 -0.679825 0
M  V30 5 C -6.372888 -0.538130 0.479636 0
M  V30 6 C -5.007137 -0.267495 0.371658 0
M  V30 7 C -4.384096 0.125391 1.564992 0
M  V30 8 C -2.960931 0.415712 1.407636 0
M  V30 9 C -2.134984 -0.210651 0.501741 0
M  V30 10 C -0.801788 0.118487 0.399676 0
M  V30 11 C -0.267225 1.084043 1.205673 0
M  V30 12 C 1.018627 1.552280 1.257119 0
M  V30 13 C 2.252881 1.284994 0.567909 0
M  V30 14 C 2.696416 0.517795 -0.377010 0
M  V30 15 C 4.021279 0.376427 -0.965706 0
M  V30 16 C 5.124485 1.103300 -0.573135 0
M  V30 17 C 6.381015 0.980263 -1.125143 0
M  V30 18 C 6.523959 0.047565 -2.153073 0
M  V30 19 O 7.733498 -0.173748 -2.792291 0
M  V30 20 C 8.937130 0.485250 -2.507830 0
M  V30 21 C 5.427915 -0.686021 -2.555438 0
M  V30 22 O 5.578294 -1.614474 -3.581767 0
M  V30 23 C 4.442484 -2.362725 -3.986156 0
M  V30 24 C 4.183896 -0.538799 -1.982013 0
M  V30 25 N 0.973060 2.489050 2.224564 0
M  V30 26 N -0.246486 2.567288 2.705823 0
M  V30 27 C -1.091848 1.708415 2.110870 0
M  V30 28 C -2.428870 1.402777 2.237121 0
M  V30 29 C -5.042242 0.244565 2.769970 0
M  V30 30 C -6.401997 -0.037400 2.817350 0
M  V30 31 C -7.057411 -0.426948 1.671045 0
M  V30 32 O -8.415501 -0.724029 1.646121 0
M  V30 33 H -8.857721 -1.907542 -4.664539 0
M  V30 34 H -7.573435 -2.878091 -4.259135 0
M  V30 35 H -7.949512 -0.635342 -2.964422 0
M  V30 36 H -5.547921 -1.878520 -1.833973 0
M  V30 37 H -5.803903 -0.135521 -2.210109 0
M  V30 38 H -4.486318 -0.359024 -0.562632 0
M  V30 39 H -2.545631 -0.965621 -0.129000 0
M  V30 40 H -0.215370 -0.405449 -0.324308 0
M  V30 41 H 3.151833 1.856738 0.861299 0
M  V30 42 H 1.907542 -0.106227 -0.761348 0
M  V30 43 H 5.053692 1.825707 0.209491 0
M  V30 44 H 7.210719 1.559231 -0.796151 0
M  V30 45 H 8.937591 1.483866 -3.013835 0
M  V30 46 H 9.831260 -0.103576 -2.780988 0
M  V30 47 H 8.964895 0.702653 -1.402511 0
M  V30 48 H 3.589200 -1.695478 -4.276939 0
M  V30 49 H 4.055619 -3.003459 -3.166931 0
M  V30 50 H 4.653287 -2.999048 -4.863407 0
M  V30 51 H 3.358764 -1.132859 -2.329638 0
M  V30 52 H -0.480166 3.247228 3.474315 0
M  V30 53 H -2.981330 1.974884 2.999135 0
M  V30 54 H -4.501275 0.550652 3.654417 0
M  V30 55 H -6.937664 0.051192 3.757528 0
M  V30 56 H -8.777322 -1.660108 1.782487 0
M  V30 END ATOM
M  V30 BEGIN BOND
M  V30 1 2 1 2
M  V30 2 1 2 3
M  V30 3 1 3 4
M  V30 4 1 4 5
M  V30 5 2 5 6
M  V30 6 1 6 7
M  V30 7 1 7 8
M  V30 8 2 8 9
M  V30 9 1 9 10
M  V30 10 2 10 11
M  V30 11 1 11 12
M  V30 12 1 12 13
M  V30 13 2 13 14
M  V30 14 1 14 15
M  V30 15 2 15 16
M  V30 16 1 16 17
M  V30 17 2 17 18
M  V30 18 1 18 19
M  V30 19 1 19 20
M  V30 20 1 18 21
M  V30 21 1 21 22
M  V30 22 1 22 23
M  V30 23 2 21 24
M  V30 24 2 12 25
M  V30 25 1 25 26
M  V30 26 1 26 27
M  V30 27 2 27 28
M  V30 28 2 7 29
M  V30 29 1 29 30
M  V30 30 2 30 31
M  V30 31 1 31 32
M  V30 32 1 31 5
M  V30 33 1 28 8
M  V30 34 1 27 11
M  V30 35 1 24 15
M  V30 36 1 1 33
M  V30 37 1 1 34
M  V30 38 1 2 35
M  V30 39 1 3 36
M  V30 40 1 3 37
M  V30 41 1 6 38
M  V30 42 1 9 39
M  V30 43 1 10 40
M  V30 44 1 13 41
M  V30 45 1 14 42
M  V30 46 1 16 43
M  V30 47 1 17 44
M  V30 48 1 20 45
M  V30 49 1 20 46
M  V30 50 1 20 47
M  V30 51 1 23 48
M  V30 52 1 23 49
M  V30 53 1 23 50
M  V30 54 1 24 51
M  V30 55 1 26 52
M  V30 56 1 28 53
M  V30 57 1 29 54
M  V30 58 1 30 55
M  V30 59 1 32 56
M  V30 END BOND
M  V30 END CTAB
M  END
>  <Dataset>  (890) 
ChEMBL_Kinases

>  <Ligand_Instance>  (890) 
nan

>  <PDB_ID>  (890) 
nan

>  <Standardized_SMILES>  (890) 
C=CCOc1cc(-c2ccc3c(/C=C/c4ccc(OC)c(OC)c4)n[nH]c3c2)ccc1O

>  <Name>  (890) 
nan

>  <Pocket>  (890) 
nan

>  <ATP_Site>  (890) 
nan

>  <Peripheral>  (890) 
nan

>  <Num_H_Atoms_ProtBoundConf>  (890) 
nan

>  <Num_Resolved_Atoms>  (890) 
nan

>  <Num_Not_Resolved_Atoms>  (890) 
nan

$$$$
CHEMBL3935590
     RDKit          3D

  0  0  0  0  0  0  0  0  0  0999 V3000
M  V30 BEGIN CTAB
M  V30 COUNTS 53 57 0 0 0
M  V30 BEGIN ATOM
M  V30 1 C 0.801383 -0.513110 4.898365 0
M  V30 2 C 1.307735 -1.709535 4.089078 0
M  V30 3 C 0.149594 -2.571956 3.657291 0
M  V30 4 C 1.969337 -1.148701 2.878136 0
M  V30 5 C 3.310339 -1.369443 2.707730 0
M  V30 6 C 3.924337 -0.850216 1.586501 0
M  V30 7 C 3.157882 -0.133822 0.691211 0
M  V30 8 C 1.829250 0.112574 0.813389 0
M  V30 9 N 1.040427 0.848592 -0.099301 0
M  V30 10 C 1.498229 1.469845 -1.293516 0
M  V30 11 O 2.624376 1.499514 -1.804256 0
M  V30 12 C 0.385355 2.165867 -1.963444 0
M  V30 13 C 0.259015 2.924866 -3.121024 0
M  V30 14 C -0.964149 3.459255 -3.466593 0
M  V30 15 C -2.059029 3.235576 -2.656752 0
M  V30 16 C -1.953841 2.481349 -1.498416 0
M  V30 17 C -0.731349 1.949674 -1.157475 0
M  V30 18 C -0.365643 1.107386 0.010680 0
M  V30 19 O -0.712962 1.821398 1.149288 0
M  V30 20 C -1.078496 -0.214093 -0.048415 0
M  V30 21 C -2.420068 -0.296163 0.275103 0
M  V30 22 C -3.150550 -1.474324 0.242000 0
M  V30 23 C -2.510565 -2.642093 -0.135218 0
M  V30 24 C -1.172090 -2.588165 -0.463175 0
M  V30 25 C -0.472628 -1.400925 -0.420598 0
M  V30 26 N -0.507469 -3.794646 -0.853395 0
M  V30 27 C -1.237141 -5.018080 -0.894776 0
M  V30 28 O -0.713006 -5.908671 -1.622707 0
M  V30 29 C -2.485665 -5.117441 -0.111760 0
M  V30 30 O -3.153069 -3.870000 -0.199784 0
M  V30 31 C 1.243973 -0.430352 1.962874 0
M  V30 32 H -0.280072 -0.374161 4.700932 0
M  V30 33 H 0.926183 -0.709630 5.991182 0
M  V30 34 H 1.387942 0.395882 4.629134 0
M  V30 35 H 2.029745 -2.265729 4.720055 0
M  V30 36 H 0.272164 -2.997031 2.635515 0
M  V30 37 H 0.115414 -3.420986 4.370531 0
M  V30 38 H -0.802773 -1.998476 3.659833 0
M  V30 39 H 3.865007 -1.940160 3.443817 0
M  V30 40 H 4.991500 -1.012919 1.428913 0
M  V30 41 H 3.688587 0.243496 -0.157271 0
M  V30 42 H 1.142250 3.078661 -3.732162 0
M  V30 43 H -0.961544 4.036521 -4.387715 0
M  V30 44 H -2.968360 3.715092 -3.043984 0
M  V30 45 H -2.880468 2.384321 -0.960031 0
M  V30 46 H -1.445289 1.376362 1.647060 0
M  V30 47 H -2.995120 0.550329 0.577250 0
M  V30 48 H -4.188592 -1.548233 0.490689 0
M  V30 49 H 0.575534 -1.384825 -0.684459 0
M  V30 50 H 0.503563 -3.715553 -1.093627 0
M  V30 51 H -2.227376 -5.237795 0.972301 0
M  V30 52 H -3.160294 -5.909107 -0.471230 0
M  V30 53 H 0.184553 -0.304202 2.179825 0
M  V30 END ATOM
M  V30 BEGIN BOND
M  V30 1 1 1 2
M  V30 2 1 2 3
M  V30 3 1 2 4
M  V30 4 2 4 5
M  V30 5 1 5 6
M  V30 6 2 6 7
M  V30 7 1 7 8
M  V30 8 1 8 9
M  V30 9 1 9 10
M  V30 10 2 10 11
M  V30 11 1 10 12
M  V30 12 2 12 13
M  V30 13 1 13 14
M  V30 14 2 14 15
M  V30 15 1 15 16
M  V30 16 2 16 17
M  V30 17 1 17 18
M  V30 18 1 18 19
M  V30 19 1 18 20
M  V30 20 2 20 21
M  V30 21 1 21 22
M  V30 22 2 22 23
M  V30 23 1 23 24
M  V30 24 2 24 25
M  V30 25 1 24 26
M  V30 26 1 26 27
M  V30 27 2 27 28
M  V30 28 1 27 29
M  V30 29 1 29 30
M  V30 30 2 8 31
M  V30 31 1 31 4
M  V30 32 1 18 9
M  V30 33 1 25 20
M  V30 34 1 17 12
M  V30 35 1 30 23
M  V30 36 1 1 32
M  V30 37 1 1 33
M  V30 38 1 1 34
M  V30 39 1 2 35
M  V30 40 1 3 36
M  V30 41 1 3 37
M  V30 42 1 3 38
M  V30 43 1 5 39
M  V30 44 1 6 40
M  V30 45 1 7 41
M  V30 46 1 13 42
M  V30 47 1 14 43
M  V30 48 1 15 44
M  V30 49 1 16 45
M  V30 50 1 19 46
M  V30 51 1 21 47
M  V30 52 1 22 48
M  V30 53 1 25 49
M  V30 54 1 26 50
M  V30 55 1 29 51
M  V30 56 1 29 52
M  V30 57 1 31 53
M  V30 END BOND
M  V30 END CTAB
M  END
>  <Dataset>  (891) 
ChEMBL_Kinases

>  <Ligand_Instance>  (891) 
nan

>  <PDB_ID>  (891) 
nan

>  <Standardized_SMILES>  (891) 
CC(C)c1cccc(N2C(=O)c3ccccc3C2(O)c2ccc3c(c2)NC(=O)CO3)c1

>  <Name>  (891) 
nan

>  <Pocket>  (891) 
nan

>  <ATP_Site>  (891) 
nan

>  <Peripheral>  (891) 
nan

>  <Num_H_Atoms_ProtBoundConf>  (891) 
nan

>  <Num_Resolved_Atoms>  (891) 
nan

>  <Num_Not_Resolved_Atoms>  (891) 
nan

$$$$
CHEMBL3936484
     RDKit          3D

  0  0  0  0  0  0  0  0  0  0999 V3000
M  V30 BEGIN CTAB
M  V30 COUNTS 58 62 0 0 0
M  V30 BEGIN ATOM
M  V30 1 C 4.323984 -0.989402 7.246556 0
M  V30 2 O 5.091352 -0.910747 6.035021 0
M  V30 3 C 4.444539 -0.731910 4.814041 0
M  V30 4 O 3.209063 -0.656994 4.917926 0
M  V30 5 N 5.173790 -0.650100 3.599212 0
M  V30 6 C 4.444082 -0.465845 2.387335 0
M  V30 7 N 3.088326 -0.360520 2.339859 0
M  V30 8 C 2.703861 -0.195865 1.063536 0
M  V30 9 C 1.473238 -0.039892 0.457266 0
M  V30 10 C 1.303504 0.117762 -0.902725 0
M  V30 11 C -0.087911 0.277048 -1.416714 0
M  V30 12 O -0.117907 0.279082 -2.808007 0
M  V30 13 C -0.588029 1.570655 -0.878362 0
M  V30 14 C -0.022497 2.795260 -1.167374 0
M  V30 15 C -0.565631 3.941948 -0.613974 0
M  V30 16 C -1.658209 3.820093 0.210713 0
M  V30 17 C -2.221831 2.572509 0.495711 0
M  V30 18 C -1.677355 1.410119 -0.060512 0
M  V30 19 C -1.953930 -0.013325 -0.016861 0
M  V30 20 O -2.936851 -0.399515 0.692509 0
M  V30 21 N -0.989036 -0.700717 -0.839511 0
M  V30 22 C -1.138880 -2.131511 -0.892245 0
M  V30 23 C -1.024204 -2.742929 0.512444 0
M  V30 24 C -2.515456 -2.462374 -1.360816 0
M  V30 25 C -3.057089 -1.784980 -2.433324 0
M  V30 26 C -4.326566 -2.061616 -2.897645 0
M  V30 27 C -5.108379 -3.041123 -2.294063 0
M  V30 28 C -4.585690 -3.718412 -1.233055 0
M  V30 29 C -5.375880 -4.782588 -0.540976 0
M  V30 30 F -5.219277 -4.646143 0.841462 0
M  V30 31 F -6.728446 -4.619848 -0.783065 0
M  V30 32 F -4.929753 -6.036894 -0.870791 0
M  V30 33 C -3.316863 -3.427033 -0.785406 0
M  V30 34 C 2.444237 0.114863 -1.669917 0
M  V30 35 C 3.690435 -0.039105 -1.092701 0
M  V30 36 C 3.840013 -0.195967 0.275309 0
M  V30 37 N 4.872480 -0.362726 1.124238 0
M  V30 38 H 4.853798 -1.535982 8.025875 0
M  V30 39 H 4.169737 0.060225 7.569102 0
M  V30 40 H 3.322865 -1.401398 7.009734 0
M  V30 41 H 6.214106 -0.720835 3.580141 0
M  V30 42 H 0.618450 -0.049681 1.142123 0
M  V30 43 H 0.104904 1.203457 -3.140500 0
M  V30 44 H 0.834605 2.960717 -1.806331 0
M  V30 45 H -0.169663 4.932463 -0.800553 0
M  V30 46 H -2.120477 4.669924 0.666664 0
M  V30 47 H -3.080487 2.465499 1.142596 0
M  V30 48 H -0.357234 -2.566410 -1.545118 0
M  V30 49 H -0.108339 -2.403472 1.016379 0
M  V30 50 H -0.941856 -3.845967 0.443871 0
M  V30 51 H -1.946921 -2.499430 1.037222 0
M  V30 52 H -2.539765 -1.009923 -2.972052 0
M  V30 53 H -4.791564 -1.553814 -3.737550 0
M  V30 54 H -6.105690 -3.283641 -2.631728 0
M  V30 55 H -2.937759 -3.984692 0.056940 0
M  V30 56 H 2.318818 0.237604 -2.736028 0
M  V30 57 H 4.576493 -0.038393 -1.719146 0
M  V30 58 H 5.873348 -0.405363 0.830533 0
M  V30 END ATOM
M  V30 BEGIN BOND
M  V30 1 1 1 2
M  V30 2 1 2 3
M  V30 3 2 3 4
M  V30 4 1 3 5
M  V30 5 1 5 6
M  V30 6 2 6 7
M  V30 7 1 7 8
M  V30 8 2 8 9
M  V30 9 1 9 10
M  V30 10 1 10 11
M  V30 11 1 11 12
M  V30 12 1 11 13
M  V30 13 2 13 14
M  V30 14 1 14 15
M  V30 15 2 15 16
M  V30 16 1 16 17
M  V30 17 2 17 18
M  V30 18 1 18 19
M  V30 19 2 19 20
M  V30 20 1 19 21
M  V30 21 1 21 22
M  V30 22 1 22 23
M  V30 23 1 22 24
M  V30 24 2 24 25
M  V30 25 1 25 26
M  V30 26 2 26 27
M  V30 27 1 27 28
M  V30 28 1 28 29
M  V30 29 1 29 30
M  V30 30 1 29 31
M  V30 31 1 29 32
M  V30 32 2 28 33
M  V30 33 2 10 34
M  V30 34 1 34 35
M  V30 35 2 35 36
M  V30 36 1 36 37
M  V30 37 1 37 6
M  V30 38 1 36 8
M  V30 39 1 21 11
M  V30 40 1 33 24
M  V30 41 1 18 13
M  V30 42 1 1 38
M  V30 43 1 1 39
M  V30 44 1 1 40
M  V30 45 1 5 41
M  V30 46 1 9 42
M  V30 47 1 12 43
M  V30 48 1 14 44
M  V30 49 1 15 45
M  V30 50 1 16 46
M  V30 51 1 17 47
M  V30 52 1 22 48
M  V30 53 1 23 49
M  V30 54 1 23 50
M  V30 55 1 23 51
M  V30 56 1 25 52
M  V30 57 1 26 53
M  V30 58 1 27 54
M  V30 59 1 33 55
M  V30 60 1 34 56
M  V30 61 1 35 57
M  V30 62 1 37 58
M  V30 END BOND
M  V30 END CTAB
M  END
>  <Dataset>  (892) 
ChEMBL_Kinases

>  <Ligand_Instance>  (892) 
nan

>  <PDB_ID>  (892) 
nan

>  <Standardized_SMILES>  (892) 
COC(=O)Nc1nc2cc(C3(O)c4ccccc4C(=O)N3C(C)c3cccc(C(F)(F)F)c3)ccc2[nH]1

>  <Name>  (892) 
nan

>  <Pocket>  (892) 
nan

>  <ATP_Site>  (892) 
nan

>  <Peripheral>  (892) 
nan

>  <Num_H_Atoms_ProtBoundConf>  (892) 
nan

>  <Num_Resolved_Atoms>  (892) 
nan

>  <Num_Not_Resolved_Atoms>  (892) 
nan

$$$$
CHEMBL3932394
     RDKit          3D

  0  0  0  0  0  0  0  0  0  0999 V3000
M  V30 BEGIN CTAB
M  V30 COUNTS 50 52 0 0 0
M  V30 BEGIN ATOM
M  V30 1 C 3.924827 -0.962383 -2.254431 0
M  V30 2 C 3.544282 -2.426545 -2.096202 0
M  V30 3 C 2.108245 -2.583477 -1.723589 0
M  V30 4 C 1.727168 -2.623891 -0.401011 0
M  V30 5 C 0.418647 -2.760451 -0.013549 0
M  V30 6 C -0.566773 -2.862282 -0.972003 0
M  V30 7 N -1.980773 -3.001537 -0.905736 0
M  V30 8 C -2.679107 -2.190948 -0.192960 0
M  V30 9 S -1.843577 -0.890873 0.711899 0
M  V30 10 C -3.350216 -0.061556 1.264025 0
M  V30 11 C -3.511970 1.086912 1.922588 0
M  V30 12 C -2.374023 1.872536 2.306167 0
M  V30 13 C -2.447285 3.258636 2.187277 0
M  V30 14 C -1.324150 3.968957 2.579849 0
M  V30 15 N -0.183595 3.442355 3.059757 0
M  V30 16 C -0.071814 2.094276 3.191316 0
M  V30 17 N 0.976270 1.253081 3.657807 0
M  V30 18 C 1.886012 0.836263 2.643119 0
M  V30 19 O 1.702201 1.238630 1.443093 0
M  V30 20 C 3.060916 -0.034825 2.794340 0
M  V30 21 C 4.350569 0.626902 2.416674 0
M  V30 22 O 4.598585 1.792129 2.015041 0
M  V30 23 O 5.368153 -0.300510 2.577897 0
M  V30 24 C -1.178176 1.359340 2.806874 0
M  V30 25 C -4.439719 -0.933766 0.840775 0
M  V30 26 O -5.664195 -0.712437 1.138264 0
M  V30 27 N -4.067816 -2.044741 0.078268 0
M  V30 28 C -4.933167 -3.070956 -0.472124 0
M  V30 29 C -0.203265 -2.823773 -2.323042 0
M  V30 30 C 1.134232 -2.684457 -2.714975 0
M  V30 31 H 4.809544 -0.869280 -2.933450 0
M  V30 32 H 4.210315 -0.485218 -1.296344 0
M  V30 33 H 3.105899 -0.351908 -2.697023 0
M  V30 34 H 4.136859 -2.802477 -1.224479 0
M  V30 35 H 3.818290 -3.011414 -2.985091 0
M  V30 36 H 2.431389 -2.550265 0.410341 0
M  V30 37 H -0.012904 -2.805470 0.972024 0
M  V30 38 H -4.501751 1.440718 2.175886 0
M  V30 39 H -3.311533 3.797196 1.814170 0
M  V30 40 H -1.271381 5.068696 2.528122 0
M  V30 41 H 1.219027 0.874341 4.603397 0
M  V30 42 H 2.935417 -0.857862 2.037905 0
M  V30 43 H 3.120023 -0.546319 3.781753 0
M  V30 44 H 6.349963 -0.070405 2.346986 0
M  V30 45 H -1.235439 0.264869 2.862473 0
M  V30 46 H -4.665123 -3.362666 -1.503878 0
M  V30 47 H -5.996396 -2.723881 -0.544487 0
M  V30 48 H -4.889755 -3.977274 0.180752 0
M  V30 49 H -0.826929 -2.886556 -3.207935 0
M  V30 50 H 1.495519 -2.646873 -3.717268 0
M  V30 END ATOM
M  V30 BEGIN BOND
M  V30 1 1 1 2
M  V30 2 1 2 3
M  V30 3 2 3 4
M  V30 4 1 4 5
M  V30 5 2 5 6
M  V30 6 1 6 7
M  V30 7 2 7 8
M  V30 8 1 8 9
M  V30 9 1 9 10
M  V30 10 2 10 11
M  V30 11 1 11 12
M  V30 12 2 12 13
M  V30 13 1 13 14
M  V30 14 2 14 15
M  V30 15 1 15 16
M  V30 16 1 16 17
M  V30 17 1 17 18
M  V30 18 2 18 19
M  V30 19 1 18 20
M  V30 20 1 20 21
M  V30 21 2 21 22
M  V30 22 1 21 23
M  V30 23 2 16 24
M  V30 24 1 10 25
M  V30 25 2 25 26
M  V30 26 1 25 27
M  V30 27 1 27 28
M  V30 28 1 6 29
M  V30 29 2 29 30
M  V30 30 1 30 3
M  V30 31 1 27 8
M  V30 32 1 24 12
M  V30 33 1 1 31
M  V30 34 1 1 32
M  V30 35 1 1 33
M  V30 36 1 2 34
M  V30 37 1 2 35
M  V30 38 1 4 36
M  V30 39 1 5 37
M  V30 40 1 11 38
M  V30 41 1 13 39
M  V30 42 1 14 40
M  V30 43 1 17 41
M  V30 44 1 20 42
M  V30 45 1 20 43
M  V30 46 1 23 44
M  V30 47 1 24 45
M  V30 48 1 28 46
M  V30 49 1 28 47
M  V30 50 1 28 48
M  V30 51 1 29 49
M  V30 52 1 30 50
M  V30 END BOND
M  V30 END CTAB
M  END
>  <Dataset>  (893) 
ChEMBL_Kinases

>  <Ligand_Instance>  (893) 
nan

>  <PDB_ID>  (893) 
nan

>  <Standardized_SMILES>  (893) 
CCc1ccc(/N=C2\S/C(=C\c3ccnc(NC(=O)CC(=O)O)c3)C(=O)N2C)cc1

>  <Name>  (893) 
nan

>  <Pocket>  (893) 
nan

>  <ATP_Site>  (893) 
nan

>  <Peripheral>  (893) 
nan

>  <Num_H_Atoms_ProtBoundConf>  (893) 
nan

>  <Num_Resolved_Atoms>  (893) 
nan

>  <Num_Not_Resolved_Atoms>  (893) 
nan

$$$$
CHEMBL3932340
     RDKit          3D

  0  0  0  0  0  0  0  0  0  0999 V3000
M  V30 BEGIN CTAB
M  V30 COUNTS 71 75 0 0 0
M  V30 BEGIN ATOM
M  V30 1 C 4.015626 0.923579 0.895528 0
M  V30 2 C 3.278874 -0.284542 0.367262 0 CFG=1
M  V30 3 C 2.879209 -1.085146 1.612708 0
M  V30 4 N 2.309833 -2.355595 1.309011 0
M  V30 5 C 1.249017 -2.804511 2.136540 0
M  V30 6 C 1.632317 -3.139735 3.541910 0
M  V30 7 O 2.158340 -1.996232 4.138880 0
M  V30 8 C 2.592317 -4.300750 3.643188 0
M  V30 9 C 1.792938 -5.520283 4.041077 0
M  V30 10 O 0.682824 -5.592330 3.178983 0
M  V30 11 C -0.305651 -4.707370 3.658721 0
M  V30 12 C 0.329544 -3.459479 4.276211 0
M  V30 13 C 1.991944 -2.408328 -0.097257 0
M  V30 14 C 1.271719 -1.145015 -0.498863 0
M  V30 15 N 2.119695 0.024220 -0.399918 0
M  V30 16 C 1.818283 1.281597 -0.976353 0
M  V30 17 O 2.711491 2.149976 -0.779962 0
M  V30 18 N 0.650767 1.588501 -1.707157 0
M  V30 19 C -0.621112 1.071192 -2.216700 0
M  V30 20 C -1.615292 2.091377 -1.771938 0
M  V30 21 C -2.936809 2.237191 -1.337969 0
M  V30 22 N -3.847450 1.159842 -1.192125 0
M  V30 23 C -4.793895 0.527798 -2.041315 0
M  V30 24 O -4.994524 0.893131 -3.243204 0
M  V30 25 C -5.522985 -0.584103 -1.415923 0
M  V30 26 C -6.453323 -1.220461 -2.200803 0
M  V30 27 C -7.170712 -2.273994 -1.665786 0
M  V30 28 C -6.996254 -2.721495 -0.370398 0
M  V30 29 C -6.039582 -2.035476 0.372739 0
M  V30 30 N -5.339178 -1.009255 -0.144826 0
M  V30 31 N -3.051506 3.581747 -1.127221 0
M  V30 32 N -1.914972 4.164848 -1.408339 0
M  V30 33 C -0.971304 3.305674 -1.816203 0
M  V30 34 C 0.386383 2.903581 -2.293978 0
M  V30 35 C 1.334232 3.964009 -1.774556 0
M  V30 36 C 0.361843 2.894673 -3.786808 0
M  V30 37 H 3.388668 1.662333 1.400351 0
M  V30 38 H 4.695006 1.398560 0.185811 0
M  V30 39 H 4.688679 0.517345 1.708156 0
M  V30 40 H 4.003631 -0.823447 -0.267291 0
M  V30 41 H 2.307463 -0.474278 2.311267 0
M  V30 42 H 3.853156 -1.297120 2.139744 0
M  V30 43 H 0.838369 -3.743322 1.663979 0
M  V30 44 H 0.384642 -2.110692 2.201960 0
M  V30 45 H 1.504109 -1.516633 4.703307 0
M  V30 46 H 3.220743 -4.435408 2.764506 0
M  V30 47 H 3.253632 -4.073682 4.520002 0
M  V30 48 H 1.395735 -5.323224 5.069211 0
M  V30 49 H 2.398141 -6.434508 4.022669 0
M  V30 50 H -0.933172 -5.204381 4.416158 0
M  V30 51 H -0.992823 -4.416707 2.825477 0
M  V30 52 H 0.444594 -3.531537 5.357336 0
M  V30 53 H -0.358506 -2.607847 4.022777 0
M  V30 54 H 1.366167 -3.311774 -0.283531 0
M  V30 55 H 2.959136 -2.499778 -0.652327 0
M  V30 56 H 0.328135 -1.065261 0.038841 0
M  V30 57 H 1.069198 -1.262418 -1.601846 0
M  V30 58 H -0.871196 0.071760 -1.827595 0
M  V30 59 H -0.589250 1.053152 -3.316664 0
M  V30 60 H -3.680449 0.860637 -0.200793 0
M  V30 61 H -6.650699 -0.938660 -3.211272 0
M  V30 62 H -7.912613 -2.792585 -2.268620 0
M  V30 63 H -7.535115 -3.539355 0.084704 0
M  V30 64 H -5.804828 -2.292134 1.416026 0
M  V30 65 H -1.675698 5.200346 -1.349036 0
M  V30 66 H 2.324409 3.942181 -2.226889 0
M  V30 67 H 0.857269 4.937554 -2.090288 0
M  V30 68 H 1.296815 3.989491 -0.675048 0
M  V30 69 H -0.677644 2.869879 -4.222354 0
M  V30 70 H 0.963363 2.057281 -4.165805 0
M  V30 71 H 0.785558 3.885966 -4.128473 0
M  V30 END ATOM
M  V30 BEGIN BOND
M  V30 1 1 1 2
M  V30 2 1 2 3
M  V30 3 1 3 4
M  V30 4 1 4 5
M  V30 5 1 5 6
M  V30 6 1 6 7
M  V30 7 1 6 8
M  V30 8 1 8 9
M  V30 9 1 9 10
M  V30 10 1 10 11
M  V30 11 1 11 12
M  V30 12 1 4 13
M  V30 13 1 13 14
M  V30 14 1 14 15
M  V30 15 1 15 16
M  V30 16 2 16 17
M  V30 17 1 16 18
M  V30 18 1 18 19
M  V30 19 1 19 20
M  V30 20 1 20 21
M  V30 21 1 21 22
M  V30 22 1 22 23
M  V30 23 2 23 24
M  V30 24 1 23 25
M  V30 25 2 25 26
M  V30 26 1 26 27
M  V30 27 2 27 28
M  V30 28 1 28 29
M  V30 29 2 29 30
M  V30 30 2 21 31
M  V30 31 1 31 32
M  V30 32 1 32 33
M  V30 33 1 33 34
M  V30 34 1 34 35
M  V30 35 1 34 36
M  V30 36 1 15 2
M  V30 37 1 34 18
M  V30 38 1 12 6
M  V30 39 2 33 20
M  V30 40 1 30 25
M  V30 41 1 1 37
M  V30 42 1 1 38
M  V30 43 1 1 39
M  V30 44 1 2 40 CFG=3
M  V30 45 1 3 41
M  V30 46 1 3 42
M  V30 47 1 5 43
M  V30 48 1 5 44
M  V30 49 1 7 45
M  V30 50 1 8 46
M  V30 51 1 8 47
M  V30 52 1 9 48
M  V30 53 1 9 49
M  V30 54 1 11 50
M  V30 55 1 11 51
M  V30 56 1 12 52
M  V30 57 1 12 53
M  V30 58 1 13 54
M  V30 59 1 13 55
M  V30 60 1 14 56
M  V30 61 1 14 57
M  V30 62 1 19 58
M  V30 63 1 19 59
M  V30 64 1 22 60
M  V30 65 1 26 61
M  V30 66 1 27 62
M  V30 67 1 28 63
M  V30 68 1 29 64
M  V30 69 1 32 65
M  V30 70 1 35 66
M  V30 71 1 35 67
M  V30 72 1 35 68
M  V30 73 1 36 69
M  V30 74 1 36 70
M  V30 75 1 36 71
M  V30 END BOND
M  V30 END CTAB
M  END
>  <Dataset>  (894) 
ChEMBL_Kinases

>  <Ligand_Instance>  (894) 
nan

>  <PDB_ID>  (894) 
nan

>  <Standardized_SMILES>  (894) 
C[C@H]1CN(CC2(O)CCOCC2)CCN1C(=O)N1Cc2c(NC(=O)c3ccccn3)n[nH]c2C1(C)C

>  <Name>  (894) 
nan

>  <Pocket>  (894) 
nan

>  <ATP_Site>  (894) 
nan

>  <Peripheral>  (894) 
nan

>  <Num_H_Atoms_ProtBoundConf>  (894) 
nan

>  <Num_Resolved_Atoms>  (894) 
nan

>  <Num_Not_Resolved_Atoms>  (894) 
nan

$$$$
CHEMBL3932142
     RDKit          3D

  0  0  0  0  0  0  0  0  0  0999 V3000
M  V30 BEGIN CTAB
M  V30 COUNTS 57 61 0 0 0
M  V30 BEGIN ATOM
M  V30 1 C 5.850850 -5.774006 4.673164 0
M  V30 2 O 5.128991 -6.276851 3.584377 0
M  V30 3 C 4.787250 -5.441780 2.545401 0
M  V30 4 C 5.135297 -4.124330 2.544657 0
M  V30 5 C 4.791697 -3.298005 1.507280 0
M  V30 6 C 4.083410 -3.715063 0.404011 0
M  V30 7 N 3.725438 -2.863009 -0.673439 0
M  V30 8 C 2.947558 -3.249229 -1.834325 0
M  V30 9 C 1.570148 -2.616492 -1.650409 0
M  V30 10 N 1.660454 -1.261817 -1.142918 0
M  V30 11 C 0.424037 -0.587717 -0.937659 0
M  V30 12 C -0.779237 -1.204592 -1.234382 0
M  V30 13 C -2.031578 -0.600450 -1.056117 0
M  V30 14 C -2.019774 0.692715 -0.549997 0
M  V30 15 C -3.298948 1.367890 -0.346184 0
M  V30 16 N -3.504477 2.607755 0.133720 0
M  V30 17 C -4.844186 2.868370 0.171607 0
M  V30 18 C -5.538381 4.009880 0.589055 0
M  V30 19 C -6.913480 3.943790 0.496066 0
M  V30 20 C -7.759513 5.084376 0.906336 0
M  V30 21 N -7.303277 6.311555 1.414505 0
M  V30 22 O -9.035366 5.079001 0.841720 0
M  V30 23 C -7.605706 2.841037 0.026553 0
M  V30 24 C -6.856783 1.738866 -0.372653 0
M  V30 25 C -5.467873 1.751596 -0.300048 0
M  V30 26 N -4.513704 0.845003 -0.611794 0
M  V30 27 C -0.842782 1.343030 -0.241297 0
M  V30 28 C 0.382005 0.706882 -0.433401 0
M  V30 29 C 2.895266 -0.559505 -0.836866 0
M  V30 30 C 4.080200 -1.485837 -0.776521 0
M  V30 31 C 3.750960 -5.043126 0.438651 0
M  V30 32 C 4.066283 -5.908533 1.442703 0
M  V30 33 H 6.864365 -5.417901 4.403039 0
M  V30 34 H 5.287054 -4.872923 5.051407 0
M  V30 35 H 5.871107 -6.468831 5.540765 0
M  V30 36 H 5.691813 -3.761179 3.393794 0
M  V30 37 H 5.113320 -2.275885 1.603687 0
M  V30 38 H 2.758847 -4.332799 -1.909899 0
M  V30 39 H 3.376519 -2.849130 -2.787135 0
M  V30 40 H 1.107565 -2.644784 -2.666773 0
M  V30 41 H 0.929689 -3.248570 -1.021295 0
M  V30 42 H -0.789718 -2.228023 -1.634638 0
M  V30 43 H -2.932046 -1.140550 -1.308772 0
M  V30 44 H -5.047851 4.897209 0.963900 0
M  V30 45 H -6.528903 6.104322 2.075027 0
M  V30 46 H -6.522572 6.227120 2.091384 0
M  V30 47 H -8.686332 2.800313 -0.042015 0
M  V30 48 H -7.348409 0.846260 -0.749299 0
M  V30 49 H -4.751692 -0.091918 -0.993707 0
M  V30 50 H -0.818791 2.356720 0.156353 0
M  V30 51 H 1.280369 1.241044 -0.183001 0
M  V30 52 H 2.757592 -0.141726 0.183230 0
M  V30 53 H 3.042112 0.280289 -1.546321 0
M  V30 54 H 4.633656 -1.354451 -1.754652 0
M  V30 55 H 4.808774 -1.133159 -0.020394 0
M  V30 56 H 3.195566 -5.524901 -0.350203 0
M  V30 57 H 3.805201 -6.961705 1.474817 0
M  V30 END ATOM
M  V30 BEGIN BOND
M  V30 1 1 1 2
M  V30 2 1 2 3
M  V30 3 2 3 4
M  V30 4 1 4 5
M  V30 5 2 5 6
M  V30 6 1 6 7
M  V30 7 1 7 8
M  V30 8 1 8 9
M  V30 9 1 9 10
M  V30 10 1 10 11
M  V30 11 2 11 12
M  V30 12 1 12 13
M  V30 13 2 13 14
M  V30 14 1 14 15
M  V30 15 2 15 16
M  V30 16 1 16 17
M  V30 17 2 17 18
M  V30 18 1 18 19
M  V30 19 1 19 20
M  V30 20 1 20 21
M  V30 21 2 20 22
M  V30 22 2 19 23
M  V30 23 1 23 24
M  V30 24 2 24 25
M  V30 25 1 25 26
M  V30 26 1 14 27
M  V30 27 2 27 28
M  V30 28 1 10 29
M  V30 29 1 29 30
M  V30 30 1 6 31
M  V30 31 2 31 32
M  V30 32 1 32 3
M  V30 33 1 30 7
M  V30 34 1 28 11
M  V30 35 1 26 15
M  V30 36 1 25 17
M  V30 37 1 1 33
M  V30 38 1 1 34
M  V30 39 1 1 35
M  V30 40 1 4 36
M  V30 41 1 5 37
M  V30 42 1 8 38
M  V30 43 1 8 39
M  V30 44 1 9 40
M  V30 45 1 9 41
M  V30 46 1 12 42
M  V30 47 1 13 43
M  V30 48 1 18 44
M  V30 49 1 21 45
M  V30 50 1 21 46
M  V30 51 1 23 47
M  V30 52 1 24 48
M  V30 53 1 26 49
M  V30 54 1 27 50
M  V30 55 1 28 51
M  V30 56 1 29 52
M  V30 57 1 29 53
M  V30 58 1 30 54
M  V30 59 1 30 55
M  V30 60 1 31 56
M  V30 61 1 32 57
M  V30 END BOND
M  V30 END CTAB
M  END
>  <Dataset>  (895) 
ChEMBL_Kinases

>  <Ligand_Instance>  (895) 
nan

>  <PDB_ID>  (895) 
nan

>  <Standardized_SMILES>  (895) 
COc1ccc(N2CCN(c3ccc(-c4nc5cc(C(N)=O)ccc5[nH]4)cc3)CC2)cc1

>  <Name>  (895) 
nan

>  <Pocket>  (895) 
nan

>  <ATP_Site>  (895) 
nan

>  <Peripheral>  (895) 
nan

>  <Num_H_Atoms_ProtBoundConf>  (895) 
nan

>  <Num_Resolved_Atoms>  (895) 
nan

>  <Num_Not_Resolved_Atoms>  (895) 
nan

$$$$
CHEMBL3702169
     RDKit          3D

  0  0  0  0  0  0  0  0  0  0999 V3000
M  V30 BEGIN CTAB
M  V30 COUNTS 51 56 0 0 0
M  V30 BEGIN ATOM
M  V30 1 C 3.486010 -5.453604 3.886464 0
M  V30 2 C 4.486491 -6.327636 3.461542 0
M  V30 3 N 5.206626 -6.026582 2.366472 0
M  V30 4 C 4.984644 -4.891177 1.662428 0
M  V30 5 C 4.033759 -3.987931 2.005359 0
M  V30 6 C 3.773763 -2.778074 1.274855 0
M  V30 7 C 4.463153 -2.419952 0.135799 0
M  V30 8 C 4.155302 -1.241835 -0.532129 0
M  V30 9 C 3.141947 -0.413679 -0.048238 0
M  V30 10 N 2.758734 0.806321 -0.696538 0
M  V30 11 C 1.716052 1.579793 -0.115796 0
M  V30 12 N 1.751901 2.721239 0.594852 0
M  V30 13 C 0.609554 3.281877 1.076060 0
M  V30 14 C -0.584225 2.647670 0.816076 0
M  V30 15 C -1.885529 2.947268 1.158954 0
M  V30 16 C -2.442178 3.987648 1.875554 0
M  V30 17 C -3.829545 4.000316 2.049587 0
M  V30 18 N -4.596504 3.008746 1.522418 0
M  V30 19 C -4.004096 2.001258 0.822359 0
M  V30 20 C -2.645199 1.929591 0.614202 0
M  V30 21 N -1.930362 1.022922 -0.039229 0
M  V30 22 C -2.266193 -0.167932 -0.741501 0
M  V30 23 C -3.339966 0.106181 -1.741976 0
M  V30 24 C -4.421395 -0.936982 -1.559364 0
M  V30 25 C -3.876495 -1.963263 -0.590906 0
M  V30 26 C -2.722708 -1.299165 0.143691 0
M  V30 27 C -0.647871 1.478978 0.092034 0
M  V30 28 N 0.538982 0.972627 -0.361218 0
M  V30 29 N 2.524458 -0.835739 1.062645 0
M  V30 30 N 2.784885 -1.942983 1.723774 0
M  V30 31 C 3.319943 -4.320076 3.119168 0
M  V30 32 H 2.870472 -5.651900 4.772063 0
M  V30 33 H 4.624323 -7.223969 4.060587 0
M  V30 34 H 5.622608 -4.738380 0.788054 0
M  V30 35 H 5.253387 -3.040344 -0.263902 0
M  V30 36 H 4.669715 -0.921785 -1.430296 0
M  V30 37 H 3.299517 1.041541 -1.579659 0
M  V30 38 H 0.686050 4.196417 1.639058 0
M  V30 39 H -1.754276 4.724654 2.253333 0
M  V30 40 H -4.153993 4.854949 2.620094 0
M  V30 41 H -4.661017 1.237781 0.432821 0
M  V30 42 H -1.375775 -0.568145 -1.308149 0
M  V30 43 H -3.724835 1.145219 -1.739665 0
M  V30 44 H -2.965440 -0.044939 -2.799967 0
M  V30 45 H -5.316719 -0.417729 -1.167203 0
M  V30 46 H -4.736765 -1.396845 -2.515893 0
M  V30 47 H -4.631360 -2.224957 0.170300 0
M  V30 48 H -3.569029 -2.861049 -1.160069 0
M  V30 49 H -3.018993 -0.984821 1.163451 0
M  V30 50 H -1.939731 -2.079251 0.267758 0
M  V30 51 H 2.525626 -3.658980 3.484549 0
M  V30 END ATOM
M  V30 BEGIN BOND
M  V30 1 2 1 2
M  V30 2 1 2 3
M  V30 3 2 3 4
M  V30 4 1 4 5
M  V30 5 1 5 6
M  V30 6 2 6 7
M  V30 7 1 7 8
M  V30 8 2 8 9
M  V30 9 1 9 10
M  V30 10 1 10 11
M  V30 11 2 11 12
M  V30 12 1 12 13
M  V30 13 2 13 14
M  V30 14 1 14 15
M  V30 15 2 15 16
M  V30 16 1 16 17
M  V30 17 2 17 18
M  V30 18 1 18 19
M  V30 19 2 19 20
M  V30 20 1 20 21
M  V30 21 1 21 22
M  V30 22 1 22 23
M  V30 23 1 23 24
M  V30 24 1 24 25
M  V30 25 1 25 26
M  V30 26 1 21 27
M  V30 27 2 27 28
M  V30 28 1 9 29
M  V30 29 2 29 30
M  V30 30 2 5 31
M  V30 31 1 31 1
M  V30 32 1 30 6
M  V30 33 1 28 11
M  V30 34 1 27 14
M  V30 35 1 20 15
M  V30 36 1 26 22
M  V30 37 1 1 32
M  V30 38 1 2 33
M  V30 39 1 4 34
M  V30 40 1 7 35
M  V30 41 1 8 36
M  V30 42 1 10 37
M  V30 43 1 13 38
M  V30 44 1 16 39
M  V30 45 1 17 40
M  V30 46 1 19 41
M  V30 47 1 22 42
M  V30 48 1 23 43
M  V30 49 1 23 44
M  V30 50 1 24 45
M  V30 51 1 24 46
M  V30 52 1 25 47
M  V30 53 1 25 48
M  V30 54 1 26 49
M  V30 55 1 26 50
M  V30 56 1 31 51
M  V30 END BOND
M  V30 END CTAB
M  END
>  <Dataset>  (896) 
ChEMBL_Kinases

>  <Ligand_Instance>  (896) 
nan

>  <PDB_ID>  (896) 
nan

>  <Standardized_SMILES>  (896) 
c1cncc(-c2ccc(Nc3ncc4c5ccncc5n(C5CCCC5)c4n3)nn2)c1

>  <Name>  (896) 
nan

>  <Pocket>  (896) 
nan

>  <ATP_Site>  (896) 
nan

>  <Peripheral>  (896) 
nan

>  <Num_H_Atoms_ProtBoundConf>  (896) 
nan

>  <Num_Resolved_Atoms>  (896) 
nan

>  <Num_Not_Resolved_Atoms>  (896) 
nan

$$$$
CHEMBL3702170
     RDKit          3D

  0  0  0  0  0  0  0  0  0  0999 V3000
M  V30 BEGIN CTAB
M  V30 COUNTS 58 63 0 0 0
M  V30 BEGIN ATOM
M  V30 1 C 2.834716 -7.274091 2.502043 0
M  V30 2 C 3.181194 -5.942421 2.530361 0
M  V30 3 C 2.644261 -5.111184 1.570278 0
M  V30 4 C 2.764918 -3.764362 1.301085 0
M  V30 5 C 3.470704 -2.734136 1.892195 0
M  V30 6 N 3.402670 -1.481869 1.408437 0
M  V30 7 C 2.641631 -1.206012 0.333159 0
M  V30 8 N 2.475228 0.067209 -0.282217 0
M  V30 9 C 1.418276 0.945278 0.121039 0
M  V30 10 C 1.288893 2.184675 -0.501602 0
M  V30 11 C 0.220964 2.947433 -0.023992 0
M  V30 12 C -0.618589 2.485702 0.981247 0
M  V30 13 O -1.670868 3.191369 1.479102 0
M  V30 14 C -2.144357 4.446727 1.149270 0
M  V30 15 C -2.137328 5.429077 2.298311 0
M  V30 16 C -3.140096 5.037284 3.368902 0
M  V30 17 N -3.901706 3.941814 2.859379 0
M  V30 18 C -4.581502 4.296249 1.653821 0
M  V30 19 C -3.545608 4.411941 0.546438 0
M  V30 20 N -0.430933 1.270840 1.538695 0
M  V30 21 N 0.578412 0.545433 1.089946 0
M  V30 22 N 1.965603 -2.213534 -0.226503 0
M  V30 23 C 1.982447 -3.489230 0.198253 0
M  V30 24 N 1.363742 -4.621370 -0.246797 0
M  V30 25 C 0.473772 -4.746224 -1.361320 0
M  V30 26 C -0.751880 -3.859030 -1.253680 0
M  V30 27 C -1.030569 -3.426486 -2.699867 0
M  V30 28 C 0.391380 -3.249422 -3.190160 0
M  V30 29 C 1.067169 -4.490357 -2.697882 0
M  V30 30 C 1.784200 -5.589444 0.605157 0
M  V30 31 C 1.461161 -6.945330 0.614970 0
M  V30 32 N 1.997418 -7.757453 1.568151 0
M  V30 33 H 3.241017 -7.953139 3.244332 0
M  V30 34 H 3.850564 -5.506854 3.261441 0
M  V30 35 H 4.092656 -2.936775 2.763705 0
M  V30 36 H 3.140974 0.351929 -1.037563 0
M  V30 37 H 1.947746 2.521889 -1.275569 0
M  V30 38 H 0.068647 3.905841 -0.460085 0
M  V30 39 H -1.509704 4.879798 0.351502 0
M  V30 40 H -1.126804 5.598560 2.676424 0
M  V30 41 H -2.502614 6.401756 1.886217 0
M  V30 42 H -2.623210 4.786607 4.313647 0
M  V30 43 H -3.838522 5.866667 3.620925 0
M  V30 44 H -4.434785 3.390915 3.541802 0
M  V30 45 H -5.122953 5.248185 1.812611 0
M  V30 46 H -5.346029 3.552770 1.347835 0
M  V30 47 H -3.750386 5.370175 0.023108 0
M  V30 48 H -3.657764 3.569804 -0.162661 0
M  V30 49 H 0.072928 -5.802382 -1.350090 0
M  V30 50 H -0.459307 -2.938974 -0.695418 0
M  V30 51 H -1.632112 -4.371427 -0.835050 0
M  V30 52 H -1.522641 -4.222757 -3.276098 0
M  V30 53 H -1.544918 -2.448092 -2.721180 0
M  V30 54 H 0.436498 -3.156213 -4.295376 0
M  V30 55 H 0.750585 -2.308524 -2.743938 0
M  V30 56 H 0.796930 -5.301641 -3.421543 0
M  V30 57 H 2.171520 -4.420962 -2.701262 0
M  V30 58 H 0.790965 -7.414083 -0.106670 0
M  V30 END ATOM
M  V30 BEGIN BOND
M  V30 1 2 1 2
M  V30 2 1 2 3
M  V30 3 1 3 4
M  V30 4 2 4 5
M  V30 5 1 5 6
M  V30 6 2 6 7
M  V30 7 1 7 8
M  V30 8 1 8 9
M  V30 9 2 9 10
M  V30 10 1 10 11
M  V30 11 2 11 12
M  V30 12 1 12 13
M  V30 13 1 13 14
M  V30 14 1 14 15
M  V30 15 1 15 16
M  V30 16 1 16 17
M  V30 17 1 17 18
M  V30 18 1 18 19
M  V30 19 1 12 20
M  V30 20 2 20 21
M  V30 21 1 7 22
M  V30 22 2 22 23
M  V30 23 1 23 24
M  V30 24 1 24 25
M  V30 25 1 25 26
M  V30 26 1 26 27
M  V30 27 1 27 28
M  V30 28 1 28 29
M  V30 29 1 24 30
M  V30 30 1 30 31
M  V30 31 2 31 32
M  V30 32 1 32 1
M  V30 33 2 30 3
M  V30 34 1 23 4
M  V30 35 1 29 25
M  V30 36 1 21 9
M  V30 37 1 19 14
M  V30 38 1 1 33
M  V30 39 1 2 34
M  V30 40 1 5 35
M  V30 41 1 8 36
M  V30 42 1 10 37
M  V30 43 1 11 38
M  V30 44 1 14 39
M  V30 45 1 15 40
M  V30 46 1 15 41
M  V30 47 1 16 42
M  V30 48 1 16 43
M  V30 49 1 17 44
M  V30 50 1 18 45
M  V30 51 1 18 46
M  V30 52 1 19 47
M  V30 53 1 19 48
M  V30 54 1 25 49
M  V30 55 1 26 50
M  V30 56 1 26 51
M  V30 57 1 27 52
M  V30 58 1 27 53
M  V30 59 1 28 54
M  V30 60 1 28 55
M  V30 61 1 29 56
M  V30 62 1 29 57
M  V30 63 1 31 58
M  V30 END BOND
M  V30 END CTAB
M  END
>  <Dataset>  (897) 
ChEMBL_Kinases

>  <Ligand_Instance>  (897) 
nan

>  <PDB_ID>  (897) 
nan

>  <Standardized_SMILES>  (897) 
c1cc2c3cnc(Nc4ccc(OC5CCNCC5)nn4)nc3n(C3CCCC3)c2cn1

>  <Name>  (897) 
nan

>  <Pocket>  (897) 
nan

>  <ATP_Site>  (897) 
nan

>  <Peripheral>  (897) 
nan

>  <Num_H_Atoms_ProtBoundConf>  (897) 
nan

>  <Num_Resolved_Atoms>  (897) 
nan

>  <Num_Not_Resolved_Atoms>  (897) 
nan

$$$$
CHEMBL3702171
     RDKit          3D

  0  0  0  0  0  0  0  0  0  0999 V3000
M  V30 BEGIN CTAB
M  V30 COUNTS 58 63 0 0 0
M  V30 BEGIN ATOM
M  V30 1 F 0.218035 -4.869093 -4.666377 0
M  V30 2 C 1.090876 -4.948251 -3.678612 0
M  V30 3 N 1.661196 -6.153192 -3.511794 0
M  V30 4 C 2.570653 -6.385016 -2.529558 0
M  V30 5 C 2.895956 -5.332983 -1.696971 0
M  V30 6 C 2.292977 -4.106530 -1.893621 0
M  V30 7 C 2.394330 -2.890092 -1.249483 0
M  V30 8 C 3.185167 -2.551036 -0.155095 0
M  V30 9 N 3.147629 -1.287337 0.351152 0
M  V30 10 C 2.330225 -0.372554 -0.228155 0
M  V30 11 N 2.339245 0.925227 0.346661 0
M  V30 12 C 1.546667 1.436290 1.411093 0
M  V30 13 C 1.596614 2.711753 1.934145 0
M  V30 14 C 0.749682 3.030667 2.975493 0
M  V30 15 C -0.140986 2.115796 3.505970 0
M  V30 16 O -0.957340 2.505512 4.547898 0
M  V30 17 C -1.864811 1.572850 5.083604 0
M  V30 18 C -1.546715 1.240828 6.548382 0
M  V30 19 C -2.370799 -0.003148 6.854346 0
M  V30 20 N -3.769326 0.297855 6.756409 0
M  V30 21 C -4.177415 0.920026 5.535191 0
M  V30 22 C -3.289687 2.032747 5.065013 0
M  V30 23 N -0.141507 0.876000 2.946341 0
M  V30 24 N 0.666715 0.553998 1.944639 0
M  V30 25 N 1.598030 -0.741609 -1.265648 0
M  V30 26 C 1.564999 -1.958241 -1.835916 0
M  V30 27 N 0.936974 -2.586405 -2.855218 0
M  V30 28 C 0.031373 -1.912045 -3.652051 0
M  V30 29 C -0.632362 -2.293086 -4.847817 0
M  V30 30 C -1.264171 -0.935984 -5.300712 0
M  V30 31 C -0.351439 0.118163 -4.774129 0
M  V30 32 C 0.781026 -0.673197 -4.217161 0
M  V30 33 C 1.363173 -3.849269 -2.889738 0
M  V30 34 H 3.075227 -7.319849 -2.326278 0
M  V30 35 H 3.627444 -5.469544 -0.885836 0
M  V30 36 H 3.815140 -3.292498 0.275090 0
M  V30 37 H 3.072522 1.499733 -0.165439 0
M  V30 38 H 2.311890 3.381241 1.478500 0
M  V30 39 H 0.822821 4.039002 3.353398 0
M  V30 40 H -1.817180 0.594240 4.545566 0
M  V30 41 H -1.955001 2.096378 7.129759 0
M  V30 42 H -0.486033 1.060272 6.714823 0
M  V30 43 H -2.128355 -0.762249 6.059847 0
M  V30 44 H -2.191263 -0.398672 7.872402 0
M  V30 45 H -4.283961 -0.631183 6.794402 0
M  V30 46 H -5.195694 1.343786 5.719378 0
M  V30 47 H -4.266024 0.116269 4.750142 0
M  V30 48 H -3.468595 2.912061 5.725099 0
M  V30 49 H -3.633396 2.316532 4.047744 0
M  V30 50 H -0.723790 -1.414687 -2.959782 0
M  V30 51 H 0.027459 -2.498092 -5.735836 0
M  V30 52 H -1.556889 -2.903632 -4.827244 0
M  V30 53 H -2.244314 -0.766759 -4.848707 0
M  V30 54 H -1.387767 -0.883799 -6.378818 0
M  V30 55 H -0.796835 0.688026 -3.924092 0
M  V30 56 H -0.039728 0.860746 -5.536459 0
M  V30 57 H 1.416575 -0.997004 -5.075540 0
M  V30 58 H 1.295369 -0.096808 -3.473133 0
M  V30 END ATOM
M  V30 BEGIN BOND
M  V30 1 1 1 2
M  V30 2 2 2 3
M  V30 3 1 3 4
M  V30 4 2 4 5
M  V30 5 1 5 6
M  V30 6 1 6 7
M  V30 7 2 7 8
M  V30 8 1 8 9
M  V30 9 2 9 10
M  V30 10 1 10 11
M  V30 11 1 11 12
M  V30 12 2 12 13
M  V30 13 1 13 14
M  V30 14 2 14 15
M  V30 15 1 15 16
M  V30 16 1 16 17
M  V30 17 1 17 18
M  V30 18 1 18 19
M  V30 19 1 19 20
M  V30 20 1 20 21
M  V30 21 1 21 22
M  V30 22 1 15 23
M  V30 23 2 23 24
M  V30 24 1 10 25
M  V30 25 2 25 26
M  V30 26 1 26 27
M  V30 27 1 27 28
M  V30 28 1 28 29
M  V30 29 1 29 30
M  V30 30 1 30 31
M  V30 31 1 31 32
M  V30 32 1 27 33
M  V30 33 1 33 2
M  V30 34 2 33 6
M  V30 35 1 26 7
M  V30 36 1 32 28
M  V30 37 1 24 12
M  V30 38 1 22 17
M  V30 39 1 4 34
M  V30 40 1 5 35
M  V30 41 1 8 36
M  V30 42 1 11 37
M  V30 43 1 13 38
M  V30 44 1 14 39
M  V30 45 1 17 40
M  V30 46 1 18 41
M  V30 47 1 18 42
M  V30 48 1 19 43
M  V30 49 1 19 44
M  V30 50 1 20 45
M  V30 51 1 21 46
M  V30 52 1 21 47
M  V30 53 1 22 48
M  V30 54 1 22 49
M  V30 55 1 28 50
M  V30 56 1 29 51
M  V30 57 1 29 52
M  V30 58 1 30 53
M  V30 59 1 30 54
M  V30 60 1 31 55
M  V30 61 1 31 56
M  V30 62 1 32 57
M  V30 63 1 32 58
M  V30 END BOND
M  V30 END CTAB
M  END
>  <Dataset>  (898) 
ChEMBL_Kinases

>  <Ligand_Instance>  (898) 
nan

>  <PDB_ID>  (898) 
nan

>  <Standardized_SMILES>  (898) 
Fc1nccc2c3cnc(Nc4ccc(OC5CCNCC5)nn4)nc3n(C3CCCC3)c12

>  <Name>  (898) 
nan

>  <Pocket>  (898) 
nan

>  <ATP_Site>  (898) 
nan

>  <Peripheral>  (898) 
nan

>  <Num_H_Atoms_ProtBoundConf>  (898) 
nan

>  <Num_Resolved_Atoms>  (898) 
nan

>  <Num_Not_Resolved_Atoms>  (898) 
nan

$$$$
CHEMBL393193
     RDKit          3D

  0  0  0  0  0  0  0  0  0  0999 V3000
M  V30 BEGIN CTAB
M  V30 COUNTS 70 74 0 0 0
M  V30 BEGIN ATOM
M  V30 1 C 3.520025 -0.982474 4.763580 0
M  V30 2 C 2.832536 0.358689 4.896350 0 CFG=2
M  V30 3 N 1.692633 0.452149 3.991989 0
M  V30 4 C 1.874679 0.345934 2.593842 0
M  V30 5 N 3.108374 0.164511 2.088756 0
M  V30 6 C 3.241904 0.068749 0.747489 0
M  V30 7 C 2.166061 0.150194 -0.111572 0
M  V30 8 C 0.906382 0.337381 0.438036 0
M  V30 9 C -0.225697 0.422130 -0.484237 0
M  V30 10 C -0.469677 1.367729 -1.460603 0
M  V30 11 C 0.391783 2.505439 -1.766376 0
M  V30 12 C 0.477483 3.357679 -0.659039 0
M  V30 13 C 1.258707 4.514123 -0.744288 0
M  V30 14 C 1.924645 4.777722 -1.928948 0
M  V30 15 F 2.693058 5.908688 -2.023496 0
M  V30 16 C 1.837846 3.934749 -3.019155 0
M  V30 17 C 1.064667 2.797606 -2.923172 0
M  V30 18 N -1.634328 0.973372 -2.006326 0
M  V30 19 C -2.073932 -0.145901 -1.398660 0
M  V30 20 C -3.226635 -0.847962 -1.677586 0
M  V30 21 C -3.548549 -1.984703 -0.968106 0
M  V30 22 C -4.670763 -2.932599 -1.051089 0
M  V30 23 N -4.340828 -4.104112 -1.797946 0
M  V30 24 C -3.970126 -3.776162 -3.143949 0
M  V30 25 C -5.366922 -5.092828 -1.798636 0
M  V30 26 C -4.924583 -6.321120 -2.540484 0
M  V30 27 O -4.626065 -6.103058 -3.863225 0
M  V30 28 C -5.759491 -5.538891 -0.405088 0
M  V30 29 O -4.676588 -6.088919 0.276410 0
M  V30 30 C -2.628916 -2.343860 0.025718 0
M  V30 31 C -1.487071 -1.613211 0.272932 0
M  V30 32 N -1.200750 -0.504904 -0.440749 0
M  V30 33 N 0.802571 0.429614 1.782169 0
M  V30 34 C 3.795303 1.402939 4.392079 0
M  V30 35 C 5.137651 1.110877 4.267296 0
M  V30 36 C 6.107250 1.981298 3.818025 0
M  V30 37 C 5.687640 3.254370 3.464463 0
M  V30 38 C 4.355518 3.585592 3.574606 0
M  V30 39 C 3.400849 2.689002 4.030129 0
M  V30 40 H 4.076159 -1.123138 3.838454 0
M  V30 41 H 4.246318 -1.038178 5.606178 0
M  V30 42 H 2.738437 -1.785078 4.849670 0
M  V30 43 H 2.533991 0.510631 5.931538 0
M  V30 44 H 0.755031 0.597167 4.404847 0
M  V30 45 H 4.251895 -0.077452 0.365063 0
M  V30 46 H 2.286700 0.070745 -1.201621 0
M  V30 47 H -0.005660 3.233005 0.302576 0
M  V30 48 H 1.359109 5.207631 0.083651 0
M  V30 49 H 2.345016 4.110433 -3.960326 0
M  V30 50 H 0.912295 2.057140 -3.697255 0
M  V30 51 H -3.963552 -0.591716 -2.425849 0
M  V30 52 H -5.548614 -2.390098 -1.480299 0
M  V30 53 H -5.023404 -3.198177 -0.012349 0
M  V30 54 H -4.824041 -3.806096 -3.859749 0
M  V30 55 H -3.556283 -2.741268 -3.177830 0
M  V30 56 H -3.121501 -4.444659 -3.496626 0
M  V30 57 H -6.324677 -4.694955 -2.248005 0
M  V30 58 H -5.735789 -7.109696 -2.529497 0
M  V30 59 H -4.078615 -6.839416 -1.998930 0
M  V30 60 H -3.861612 -6.722266 -4.081445 0
M  V30 61 H -6.487101 -6.377348 -0.561663 0
M  V30 62 H -6.301550 -4.776893 0.153026 0
M  V30 63 H -3.915674 -5.475195 0.117146 0
M  V30 64 H -2.715575 -3.200903 0.678664 0
M  V30 65 H -0.758783 -1.859187 1.027842 0
M  V30 66 H 5.532449 0.124828 4.529833 0
M  V30 67 H 7.150907 1.708795 3.736455 0
M  V30 68 H 6.443563 3.956643 3.106441 0
M  V30 69 H 4.064870 4.589719 3.288986 0
M  V30 70 H 2.360820 2.940826 4.118442 0
M  V30 END ATOM
M  V30 BEGIN BOND
M  V30 1 1 1 2
M  V30 2 1 2 3
M  V30 3 1 3 4
M  V30 4 2 4 5
M  V30 5 1 5 6
M  V30 6 2 6 7
M  V30 7 1 7 8
M  V30 8 1 8 9
M  V30 9 2 9 10
M  V30 10 1 10 11
M  V30 11 2 11 12
M  V30 12 1 12 13
M  V30 13 2 13 14
M  V30 14 1 14 15
M  V30 15 1 14 16
M  V30 16 2 16 17
M  V30 17 1 10 18
M  V30 18 2 18 19
M  V30 19 1 19 20
M  V30 20 2 20 21
M  V30 21 1 21 22
M  V30 22 1 22 23
M  V30 23 1 23 24
M  V30 24 1 23 25
M  V30 25 1 25 26
M  V30 26 1 26 27
M  V30 27 1 25 28
M  V30 28 1 28 29
M  V30 29 1 21 30
M  V30 30 2 30 31
M  V30 31 1 31 32
M  V30 32 2 8 33
M  V30 33 1 2 34
M  V30 34 2 34 35
M  V30 35 1 35 36
M  V30 36 2 36 37
M  V30 37 1 37 38
M  V30 38 2 38 39
M  V30 39 1 33 4
M  V30 40 1 39 34
M  V30 41 1 32 9
M  V30 42 1 17 11
M  V30 43 1 32 19
M  V30 44 1 1 40
M  V30 45 1 1 41
M  V30 46 1 1 42
M  V30 47 1 2 43 CFG=1
M  V30 48 1 3 44
M  V30 49 1 6 45
M  V30 50 1 7 46
M  V30 51 1 12 47
M  V30 52 1 13 48
M  V30 53 1 16 49
M  V30 54 1 17 50
M  V30 55 1 20 51
M  V30 56 1 22 52
M  V30 57 1 22 53
M  V30 58 1 24 54
M  V30 59 1 24 55
M  V30 60 1 24 56
M  V30 61 1 25 57
M  V30 62 1 26 58
M  V30 63 1 26 59
M  V30 64 1 27 60
M  V30 65 1 28 61
M  V30 66 1 28 62
M  V30 67 1 29 63
M  V30 68 1 30 64
M  V30 69 1 31 65
M  V30 70 1 35 66
M  V30 71 1 36 67
M  V30 72 1 37 68
M  V30 73 1 38 69
M  V30 74 1 39 70
M  V30 END BOND
M  V30 END CTAB
M  END
>  <Dataset>  (899) 
ChEMBL_Kinases

>  <Ligand_Instance>  (899) 
nan

>  <PDB_ID>  (899) 
nan

>  <Standardized_SMILES>  (899) 
C[C@H](Nc1nccc(-c2c(-c3ccc(F)cc3)nc3cc(CN(C)C(CO)CO)ccn23)n1)c1ccccc1

>  <Name>  (899) 
nan

>  <Pocket>  (899) 
nan

>  <ATP_Site>  (899) 
nan

>  <Peripheral>  (899) 
nan

>  <Num_H_Atoms_ProtBoundConf>  (899) 
nan

>  <Num_Resolved_Atoms>  (899) 
nan

>  <Num_Not_Resolved_Atoms>  (899) 
nan

$$$$
CHEMBL611494
     RDKit          3D

  0  0  0  0  0  0  0  0  0  0999 V3000
M  V30 BEGIN CTAB
M  V30 COUNTS 31 32 0 0 0
M  V30 BEGIN ATOM
M  V30 1 C -1.805714 -1.533707 2.456175 0
M  V30 2 C -0.877610 -2.677115 2.120819 0
M  V30 3 C 0.515400 -2.195062 2.073522 0 CFG=1
M  V30 4 C 1.426330 -3.339532 1.740776 0
M  V30 5 O 1.123531 -4.572760 1.768729 0
M  V30 6 O 2.581614 -2.641980 1.428851 0
M  V30 7 C 2.267097 -1.463237 0.709375 0
M  V30 8 C 0.854676 -1.086361 1.151475 0 CFG=1
M  V30 9 C 0.005237 -0.896418 -0.051085 0
M  V30 10 C 0.460371 0.249877 -0.881001 0
M  V30 11 C 1.340532 0.389566 -1.931119 0
M  V30 12 N 1.388544 1.672026 -2.331288 0
M  V30 13 C 0.542420 2.365531 -1.544482 0
M  V30 14 N -0.013182 1.515928 -0.676812 0
M  V30 15 C -0.979075 1.930617 0.322740 0
M  V30 16 H -2.665175 -1.435411 1.782955 0
M  V30 17 H -1.259180 -0.564548 2.511729 0
M  V30 18 H -2.252173 -1.641491 3.488815 0
M  V30 19 H -0.947147 -3.401379 2.961001 0
M  V30 20 H -1.212489 -3.248927 1.235051 0
M  V30 21 H 0.806760 -1.884632 3.108644 0
M  V30 22 H 2.281642 -1.760670 -0.360962 0
M  V30 23 H 3.015758 -0.707213 0.949077 0
M  V30 24 H 0.951960 -0.112011 1.678016 0
M  V30 25 H -1.056521 -0.774878 0.131070 0
M  V30 26 H 0.124663 -1.793329 -0.724612 0
M  V30 27 H 1.874662 -0.449058 -2.320952 0
M  V30 28 H 0.358228 3.426301 -1.617925 0
M  V30 29 H -0.434744 2.166156 1.269484 0
M  V30 30 H -1.537792 2.821207 -0.032121 0
M  V30 31 H -1.723985 1.118200 0.499519 0
M  V30 END ATOM
M  V30 BEGIN BOND
M  V30 1 1 1 2
M  V30 2 1 2 3
M  V30 3 1 3 4
M  V30 4 2 4 5
M  V30 5 1 4 6
M  V30 6 1 6 7
M  V30 7 1 7 8
M  V30 8 1 8 9
M  V30 9 1 9 10
M  V30 10 2 10 11
M  V30 11 1 11 12
M  V30 12 2 12 13
M  V30 13 1 13 14
M  V30 14 1 14 15
M  V30 15 1 8 3
M  V30 16 1 14 10
M  V30 17 1 1 16
M  V30 18 1 1 17
M  V30 19 1 1 18
M  V30 20 1 2 19
M  V30 21 1 2 20
M  V30 22 1 3 21 CFG=1
M  V30 23 1 7 22
M  V30 24 1 7 23
M  V30 25 1 8 24 CFG=1
M  V30 26 1 9 25
M  V30 27 1 9 26
M  V30 28 1 11 27
M  V30 29 1 13 28
M  V30 30 1 15 29
M  V30 31 1 15 30
M  V30 32 1 15 31
M  V30 END BOND
M  V30 END CTAB
M  END
>  <Dataset>  (900) 
ChEMBL_Kinases

>  <Ligand_Instance>  (900) 
nan

>  <PDB_ID>  (900) 
nan

>  <Standardized_SMILES>  (900) 
CC[C@H]1C(=O)OC[C@H]1Cc1cncn1C

>  <Name>  (900) 
SALAGEN

>  <Pocket>  (900) 
nan

>  <ATP_Site>  (900) 
nan

>  <Peripheral>  (900) 
nan

>  <Num_H_Atoms_ProtBoundConf>  (900) 
nan

>  <Num_Resolved_Atoms>  (900) 
nan

>  <Num_Not_Resolved_Atoms>  (900) 
nan

$$$$
CHEMBL3931700
     RDKit          3D

  0  0  0  0  0  0  0  0  0  0999 V3000
M  V30 BEGIN CTAB
M  V30 COUNTS 59 60 0 0 0
M  V30 BEGIN ATOM
M  V30 1 C -5.315953 -2.979888 1.946931 0
M  V30 2 O -4.435818 -3.928020 1.394554 0
M  V30 3 C -3.205117 -3.698104 2.009188 0
M  V30 4 C -2.147179 -4.646849 1.515454 0
M  V30 5 N -1.893082 -4.571500 0.102195 0
M  V30 6 C -1.331845 -3.574511 -0.726030 0
M  V30 7 C -1.209699 -3.693012 -2.092675 0
M  V30 8 C -0.631782 -2.655036 -2.781852 0
M  V30 9 O -0.432302 -2.612284 -4.134948 0
M  V30 10 C -0.175606 -1.514862 -2.170211 0
M  V30 11 C -0.289987 -1.381802 -0.785392 0
M  V30 12 C -0.873218 -2.431118 -0.106481 0
M  V30 13 C 0.262058 -0.152830 -0.168017 0
M  V30 14 C 1.458352 0.194170 0.236874 0
M  V30 15 C 2.563382 0.973785 0.793088 0
M  V30 16 C 2.339828 2.415228 1.093625 0 CFG=2
M  V30 17 O 1.304223 2.767787 1.909686 0
M  V30 18 C 2.748120 3.389418 0.044325 0 CFG=2
M  V30 19 O 3.279845 4.542264 0.679884 0
M  V30 20 C 1.726979 3.796118 -0.917474 0
M  V30 21 O 2.428725 4.823487 -0.564543 0
M  V30 22 C 0.991718 4.715058 -1.759933 0
M  V30 23 C -0.016826 4.151655 -2.403568 0
M  V30 24 C -0.314009 2.755093 -2.234130 0 CFG=1
M  V30 25 C -1.697788 2.538280 -1.604311 0
M  V30 26 C -0.269664 1.844379 -3.439118 0 CFG=2
M  V30 27 C -1.253049 2.183019 -4.507930 0
M  V30 28 O -0.574846 0.571703 -2.805828 0
M  V30 29 C 0.409833 -0.386330 -2.946929 0
M  V30 30 O 1.483608 -0.912593 -3.307438 0
M  V30 31 H -6.329935 -3.066584 1.532102 0
M  V30 32 H -4.924071 -1.969663 1.690507 0
M  V30 33 H -5.334916 -3.038790 3.047683 0
M  V30 34 H -3.329880 -3.826336 3.111604 0
M  V30 35 H -2.971302 -2.632370 1.870005 0
M  V30 36 H -2.371517 -5.677180 1.846882 0
M  V30 37 H -1.216276 -4.377626 2.108509 0
M  V30 38 H -2.185264 -5.438284 -0.432972 0
M  V30 39 H -1.555406 -4.572069 -2.612962 0
M  V30 40 H -0.366706 -3.470431 -4.667806 0
M  V30 41 H -0.878385 -2.148114 0.934990 0
M  V30 42 H -0.727254 0.275473 -0.183425 0
M  V30 43 H 1.976424 -0.764856 -0.015749 0
M  V30 44 H 2.885223 0.447332 1.754753 0
M  V30 45 H 3.516676 0.846151 0.176721 0
M  V30 46 H 3.238382 2.595746 1.887007 0
M  V30 47 H 1.456763 3.462624 2.567264 0
M  V30 48 H 3.659399 2.946487 -0.500038 0
M  V30 49 H 2.933371 4.566126 1.587563 0
M  V30 50 H 0.879419 5.713681 -2.127352 0
M  V30 51 H -0.775644 4.406706 -3.088171 0
M  V30 52 H 0.424926 2.301155 -1.532751 0
M  V30 53 H -1.974875 1.489686 -1.816517 0
M  V30 54 H -1.615131 2.770595 -0.533165 0
M  V30 55 H -2.385721 3.204824 -2.145071 0
M  V30 56 H 0.744344 1.798653 -3.915015 0
M  V30 57 H -1.198671 1.370516 -5.268823 0
M  V30 58 H -2.280162 2.269375 -4.128510 0
M  V30 59 H -0.936785 3.128571 -4.968493 0
M  V30 END ATOM
M  V30 BEGIN BOND
M  V30 1 1 1 2
M  V30 2 1 2 3
M  V30 3 1 3 4
M  V30 4 1 4 5
M  V30 5 1 5 6
M  V30 6 2 6 7
M  V30 7 1 7 8
M  V30 8 1 8 9
M  V30 9 2 8 10
M  V30 10 1 10 11
M  V30 11 2 11 12
M  V30 12 1 11 13
M  V30 13 2 13 14
M  V30 14 1 14 15
M  V30 15 1 15 16
M  V30 16 1 16 17
M  V30 17 1 16 18
M  V30 18 1 18 19
M  V30 19 1 18 20
M  V30 20 2 20 21
M  V30 21 1 20 22
M  V30 22 2 22 23
M  V30 23 1 23 24
M  V30 24 1 24 25
M  V30 25 1 24 26
M  V30 26 1 26 27
M  V30 27 1 26 28
M  V30 28 1 28 29
M  V30 29 2 29 30
M  V30 30 1 12 6
M  V30 31 1 29 10
M  V30 32 1 1 31
M  V30 33 1 1 32
M  V30 34 1 1 33
M  V30 35 1 3 34
M  V30 36 1 3 35
M  V30 37 1 4 36
M  V30 38 1 4 37
M  V30 39 1 5 38
M  V30 40 1 7 39
M  V30 41 1 9 40
M  V30 42 1 12 41
M  V30 43 1 13 42
M  V30 44 1 14 43
M  V30 45 1 15 44
M  V30 46 1 15 45
M  V30 47 1 16 46 CFG=1
M  V30 48 1 17 47
M  V30 49 1 18 48 CFG=3
M  V30 50 1 19 49
M  V30 51 1 22 50
M  V30 52 1 23 51
M  V30 53 1 24 52 CFG=1
M  V30 54 1 25 53
M  V30 55 1 25 54
M  V30 56 1 25 55
M  V30 57 1 26 56 CFG=3
M  V30 58 1 27 57
M  V30 59 1 27 58
M  V30 60 1 27 59
M  V30 END BOND
M  V30 END CTAB
M  END
>  <Dataset>  (901) 
ChEMBL_Kinases

>  <Ligand_Instance>  (901) 
nan

>  <PDB_ID>  (901) 
nan

>  <Standardized_SMILES>  (901) 
COCCNc1cc(O)c2c(c1)/C=C/C[C@H](O)[C@H](O)C(=O)/C=C\[C@@H](C)[C@H](C)OC2=O

>  <Name>  (901) 
nan

>  <Pocket>  (901) 
nan

>  <ATP_Site>  (901) 
nan

>  <Peripheral>  (901) 
nan

>  <Num_H_Atoms_ProtBoundConf>  (901) 
nan

>  <Num_Resolved_Atoms>  (901) 
nan

>  <Num_Not_Resolved_Atoms>  (901) 
nan

$$$$
CHEMBL3931665
     RDKit          3D

  0  0  0  0  0  0  0  0  0  0999 V3000
M  V30 BEGIN CTAB
M  V30 COUNTS 47 51 0 0 0
M  V30 BEGIN ATOM
M  V30 1 N 3.218780 -1.901042 -1.895306 0
M  V30 2 C 4.490725 -1.270826 -1.902175 0
M  V30 3 C 5.721252 -1.873410 -2.052519 0
M  V30 4 C 6.892777 -1.171645 -2.044652 0
M  V30 5 C 6.830140 0.189602 -1.879473 0
M  V30 6 C 5.600537 0.817480 -1.726190 0
M  V30 7 C 4.400776 0.094950 -1.734698 0
M  V30 8 O 3.333948 0.939278 -1.566241 0
M  V30 9 C 2.405251 0.917195 -0.556175 0
M  V30 10 C 2.718514 1.656018 0.588374 0
M  V30 11 C 1.847891 1.705174 1.676585 0
M  V30 12 C 0.646544 1.036881 1.683474 0
M  V30 13 C -0.272151 1.077882 2.809845 0
M  V30 14 C 0.041170 1.806139 3.933048 0
M  V30 15 C -0.851207 1.823502 4.981562 0
M  V30 16 N -1.983971 1.127231 4.853750 0
M  V30 17 C -2.340151 0.401442 3.784210 0
M  V30 18 N -3.579106 -0.280314 3.806563 0
M  V30 19 C -4.137244 -1.092232 2.791124 0
M  V30 20 C -3.587906 -1.388586 1.563470 0
M  V30 21 C -4.136227 -2.179702 0.579320 0
M  V30 22 C -5.387917 -2.753990 0.836463 0
M  V30 23 N -6.030060 -3.540444 -0.031428 0
M  V30 24 C -7.123900 -4.031410 0.215441 0
M  V30 25 S -7.493204 -3.368259 1.983820 0
M  V30 26 C -5.963684 -2.476352 2.056144 0
M  V30 27 C -5.359784 -1.686729 2.974005 0
M  V30 28 N -1.440460 0.423399 2.807250 0
M  V30 29 C 0.381874 0.323884 0.536072 0
M  V30 30 C 1.204381 0.240322 -0.567483 0
M  V30 31 H 2.435612 -2.011559 -2.599389 0
M  V30 32 H 2.641590 -2.451019 -1.218400 0
M  V30 33 H 5.655593 -2.948835 -2.175625 0
M  V30 34 H 7.825031 -1.708826 -2.168096 0
M  V30 35 H 7.776434 0.712446 -1.878329 0
M  V30 36 H 5.711398 1.900337 -1.605110 0
M  V30 37 H 3.668811 2.210652 0.635707 0
M  V30 38 H 2.170655 2.292756 2.503119 0
M  V30 39 H 0.934297 2.375356 4.074932 0
M  V30 40 H -0.701127 2.366030 5.912938 0
M  V30 41 H -4.158511 -0.177822 4.672894 0
M  V30 42 H -2.609634 -0.949235 1.343149 0
M  V30 43 H -3.577557 -2.319606 -0.340950 0
M  V30 44 H -7.724147 -4.674012 -0.407708 0
M  V30 45 H -5.934531 -1.556292 3.893237 0
M  V30 46 H -0.530361 -0.240160 0.426409 0
M  V30 47 H 0.958945 -0.329922 -1.451360 0
M  V30 END ATOM
M  V30 BEGIN BOND
M  V30 1 1 1 2
M  V30 2 2 2 3
M  V30 3 1 3 4
M  V30 4 2 4 5
M  V30 5 1 5 6
M  V30 6 2 6 7
M  V30 7 1 7 8
M  V30 8 1 8 9
M  V30 9 2 9 10
M  V30 10 1 10 11
M  V30 11 2 11 12
M  V30 12 1 12 13
M  V30 13 2 13 14
M  V30 14 1 14 15
M  V30 15 2 15 16
M  V30 16 1 16 17
M  V30 17 1 17 18
M  V30 18 1 18 19
M  V30 19 2 19 20
M  V30 20 1 20 21
M  V30 21 2 21 22
M  V30 22 1 22 23
M  V30 23 2 23 24
M  V30 24 1 24 25
M  V30 25 1 25 26
M  V30 26 2 26 27
M  V30 27 2 17 28
M  V30 28 1 12 29
M  V30 29 2 29 30
M  V30 30 1 7 2
M  V30 31 1 30 9
M  V30 32 1 28 13
M  V30 33 1 27 19
M  V30 34 1 26 22
M  V30 35 1 1 31
M  V30 36 1 1 32
M  V30 37 1 3 33
M  V30 38 1 4 34
M  V30 39 1 5 35
M  V30 40 1 6 36
M  V30 41 1 10 37
M  V30 42 1 11 38
M  V30 43 1 14 39
M  V30 44 1 15 40
M  V30 45 1 18 41
M  V30 46 1 20 42
M  V30 47 1 21 43
M  V30 48 1 24 44
M  V30 49 1 27 45
M  V30 50 1 29 46
M  V30 51 1 30 47
M  V30 END BOND
M  V30 END CTAB
M  END
>  <Dataset>  (902) 
ChEMBL_Kinases

>  <Ligand_Instance>  (902) 
nan

>  <PDB_ID>  (902) 
nan

>  <Standardized_SMILES>  (902) 
Nc1ccccc1Oc1ccc(-c2ccnc(Nc3ccc4ncsc4c3)n2)cc1

>  <Name>  (902) 
nan

>  <Pocket>  (902) 
nan

>  <ATP_Site>  (902) 
nan

>  <Peripheral>  (902) 
nan

>  <Num_H_Atoms_ProtBoundConf>  (902) 
nan

>  <Num_Resolved_Atoms>  (902) 
nan

>  <Num_Not_Resolved_Atoms>  (902) 
nan

$$$$
CHEMBL63388
     RDKit          3D

  0  0  0  0  0  0  0  0  0  0999 V3000
M  V30 BEGIN CTAB
M  V30 COUNTS 33 35 0 0 0
M  V30 BEGIN ATOM
M  V30 1 N 4.896840 -1.286993 2.017317 0
M  V30 2 C 3.594612 -1.855650 1.892794 0
M  V30 3 N 3.391163 -3.088785 2.424592 0
M  V30 4 C 2.154143 -3.652920 2.317812 0
M  V30 5 N 1.178199 -2.967996 1.689201 0
M  V30 6 C 1.387151 -1.754439 1.168520 0
M  V30 7 C 2.609030 -1.136480 1.244732 0
M  V30 8 C 2.549368 0.099558 0.631005 0
M  V30 9 I 4.147313 1.465141 0.462153 0
M  V30 10 C 1.228068 0.199948 0.178298 0
M  V30 11 N 0.556381 -0.921888 0.513204 0
M  V30 12 C -0.862366 -1.099204 0.164483 0
M  V30 13 O -1.598470 -0.337752 1.033960 0
M  V30 14 C -2.160141 0.713169 0.332198 0
M  V30 15 C -3.503141 1.011387 0.981065 0
M  V30 16 O -3.267050 1.349558 2.295485 0
M  V30 17 C -2.299909 0.259034 -1.100456 0
M  V30 18 O -3.512270 -0.374030 -1.338822 0
M  V30 19 C -1.128142 -0.690465 -1.237751 0
M  V30 20 O -1.462907 -1.815892 -1.986369 0
M  V30 21 H 5.724844 -1.713275 1.526886 0
M  V30 22 H 5.406436 -0.497970 2.475618 0
M  V30 23 H 2.015695 -4.633872 2.748002 0
M  V30 24 H 0.858040 1.072208 -0.355145 0
M  V30 25 H -1.107054 -2.172489 0.335722 0
M  V30 26 H -1.543450 1.632264 0.318336 0
M  V30 27 H -4.120958 0.089887 0.959368 0
M  V30 28 H -4.049415 1.800762 0.421877 0
M  V30 29 H -2.459558 1.917342 2.413145 0
M  V30 30 H -2.108439 1.088988 -1.819688 0
M  V30 31 H -4.148549 0.178243 -1.853562 0
M  V30 32 H -0.268821 -0.214116 -1.749333 0
M  V30 33 H -2.155664 -1.645346 -2.669541 0
M  V30 END ATOM
M  V30 BEGIN BOND
M  V30 1 1 1 2
M  V30 2 2 2 3
M  V30 3 1 3 4
M  V30 4 2 4 5
M  V30 5 1 5 6
M  V30 6 2 6 7
M  V30 7 1 7 8
M  V30 8 1 8 9
M  V30 9 2 8 10
M  V30 10 1 10 11
M  V30 11 1 11 12
M  V30 12 1 12 13
M  V30 13 1 13 14
M  V30 14 1 14 15
M  V30 15 1 15 16
M  V30 16 1 14 17
M  V30 17 1 17 18
M  V30 18 1 17 19
M  V30 19 1 19 20
M  V30 20 1 7 2
M  V30 21 1 19 12
M  V30 22 1 11 6
M  V30 23 1 1 21
M  V30 24 1 1 22
M  V30 25 1 4 23
M  V30 26 1 10 24
M  V30 27 1 12 25
M  V30 28 1 14 26
M  V30 29 1 15 27
M  V30 30 1 15 28
M  V30 31 1 16 29
M  V30 32 1 17 30
M  V30 33 1 18 31
M  V30 34 1 19 32
M  V30 35 1 20 33
M  V30 END BOND
M  V30 END CTAB
M  END
>  <Dataset>  (903) 
ChEMBL_Kinases

>  <Ligand_Instance>  (903) 
nan

>  <PDB_ID>  (903) 
nan

>  <Standardized_SMILES>  (903) 
Nc1ncnc2c1c(I)cn2C1OC(CO)C(O)C1O

>  <Name>  (903) 
nan

>  <Pocket>  (903) 
nan

>  <ATP_Site>  (903) 
nan

>  <Peripheral>  (903) 
nan

>  <Num_H_Atoms_ProtBoundConf>  (903) 
nan

>  <Num_Resolved_Atoms>  (903) 
nan

>  <Num_Not_Resolved_Atoms>  (903) 
nan

$$$$
CHEMBL4876223
     RDKit          3D

  0  0  0  0  0  0  0  0  0  0999 V3000
M  V30 BEGIN CTAB
M  V30 COUNTS 54 56 0 0 0
M  V30 BEGIN ATOM
M  V30 1 C -0.531350 -1.082265 -1.212036 0
M  V30 2 C -0.283758 -0.836443 0.211750 0
M  V30 3 C 0.767989 -0.077562 0.667271 0
M  V30 4 C 1.042784 0.183040 1.986594 0
M  V30 5 N 2.111998 0.956328 2.496702 0
M  V30 6 C 3.132915 1.634416 1.827400 0
M  V30 7 O 3.176310 1.599410 0.572792 0
M  V30 8 C 4.209835 2.417772 2.430282 0 CFG=2
M  V30 9 O 4.172778 2.464914 3.823526 0
M  V30 10 C 4.137447 3.839331 1.960168 0
M  V30 11 C 3.235220 4.746553 2.499443 0
M  V30 12 C 3.162935 6.056944 2.071823 0
M  V30 13 F 2.249315 6.887028 2.651772 0
M  V30 14 C 4.029970 6.483402 1.059742 0
M  V30 15 C 4.941511 5.617560 0.495610 0
M  V30 16 F 5.756760 6.077081 -0.478153 0
M  V30 17 C 4.962913 4.322157 0.967385 0
M  V30 18 C 0.162701 -0.385974 2.875599 0
M  V30 19 C -0.901896 -1.151847 2.458732 0
M  V30 20 C -1.150000 -1.394619 1.125191 0
M  V30 21 C -2.306147 -2.221728 0.803491 0
M  V30 22 C -3.501797 -1.974861 1.444529 0
M  V30 23 N -4.616256 -2.689438 1.209323 0
M  V30 24 C -4.656925 -3.719809 0.315456 0
M  V30 25 N -5.854092 -4.451584 0.094492 0
M  V30 26 C -3.462111 -3.966096 -0.324727 0
M  V30 27 C -3.519019 -5.065086 -1.272831 0
M  V30 28 O -4.578073 -5.712545 -1.467737 0
M  V30 29 N -2.673184 -5.746478 -2.173109 0
M  V30 30 C -3.471239 -6.790889 -2.810872 0
M  V30 31 C -1.282124 -5.479163 -2.430330 0
M  V30 32 C -2.302005 -3.256029 -0.109659 0
M  V30 33 H 0.075240 -1.883210 -1.660852 0
M  V30 34 H -1.615086 -1.229724 -1.433914 0
M  V30 35 H -0.269434 -0.119114 -1.739776 0
M  V30 36 H 1.412089 0.333146 -0.092842 0
M  V30 37 H 2.210524 1.078964 3.528677 0
M  V30 38 H 5.227274 2.060705 2.170640 0
M  V30 39 H 3.268111 2.720487 4.120891 0
M  V30 40 H 2.557193 4.436900 3.281976 0
M  V30 41 H 3.929097 7.524065 0.762784 0
M  V30 42 H 5.691649 3.664873 0.502960 0
M  V30 43 H 0.312040 -0.225421 3.954619 0
M  V30 44 H -1.541231 -1.558753 3.225798 0
M  V30 45 H -3.638768 -1.198886 2.176959 0
M  V30 46 H -6.652862 -4.155385 -0.513814 0
M  V30 47 H -6.173559 -5.375573 0.463694 0
M  V30 48 H -4.370432 -6.361110 -3.272654 0
M  V30 49 H -3.769463 -7.583710 -2.092952 0
M  V30 50 H -2.867521 -7.286315 -3.595543 0
M  V30 51 H -1.156163 -4.443140 -2.807883 0
M  V30 52 H -0.875566 -6.160246 -3.194422 0
M  V30 53 H -0.636941 -5.569124 -1.518533 0
M  V30 54 H -1.388636 -3.476403 -0.626734 0
M  V30 END ATOM
M  V30 BEGIN BOND
M  V30 1 1 1 2
M  V30 2 2 2 3
M  V30 3 1 3 4
M  V30 4 1 4 5
M  V30 5 1 5 6
M  V30 6 2 6 7
M  V30 7 1 6 8
M  V30 8 1 8 9
M  V30 9 1 8 10
M  V30 10 2 10 11
M  V30 11 1 11 12
M  V30 12 1 12 13
M  V30 13 2 12 14
M  V30 14 1 14 15
M  V30 15 1 15 16
M  V30 16 2 15 17
M  V30 17 2 4 18
M  V30 18 1 18 19
M  V30 19 2 19 20
M  V30 20 1 20 21
M  V30 21 2 21 22
M  V30 22 1 22 23
M  V30 23 2 23 24
M  V30 24 1 24 25
M  V30 25 1 24 26
M  V30 26 1 26 27
M  V30 27 2 27 28
M  V30 28 1 27 29
M  V30 29 1 29 30
M  V30 30 1 29 31
M  V30 31 2 26 32
M  V30 32 1 20 2
M  V30 33 1 32 21
M  V30 34 1 17 10
M  V30 35 1 1 33
M  V30 36 1 1 34
M  V30 37 1 1 35
M  V30 38 1 3 36
M  V30 39 1 5 37
M  V30 40 1 8 38 CFG=1
M  V30 41 1 9 39
M  V30 42 1 11 40
M  V30 43 1 14 41
M  V30 44 1 17 42
M  V30 45 1 18 43
M  V30 46 1 19 44
M  V30 47 1 22 45
M  V30 48 1 25 46
M  V30 49 1 25 47
M  V30 50 1 30 48
M  V30 51 1 30 49
M  V30 52 1 30 50
M  V30 53 1 31 51
M  V30 54 1 31 52
M  V30 55 1 31 53
M  V30 56 1 32 54
M  V30 END BOND
M  V30 END CTAB
M  END
>  <Dataset>  (904) 
ChEMBL_Kinases

>  <Ligand_Instance>  (904) 
nan

>  <PDB_ID>  (904) 
nan

>  <Standardized_SMILES>  (904) 
Cc1cc(NC(=O)[C@H](O)c2cc(F)cc(F)c2)ccc1-c1cnc(N)c(C(=O)N(C)C)c1

>  <Name>  (904) 
nan

>  <Pocket>  (904) 
nan

>  <ATP_Site>  (904) 
nan

>  <Peripheral>  (904) 
nan

>  <Num_H_Atoms_ProtBoundConf>  (904) 
nan

>  <Num_Resolved_Atoms>  (904) 
nan

>  <Num_Not_Resolved_Atoms>  (904) 
nan

$$$$
CHEMBL3931377
     RDKit          3D

  0  0  0  0  0  0  0  0  0  0999 V3000
M  V30 BEGIN CTAB
M  V30 COUNTS 43 46 0 0 0
M  V30 BEGIN ATOM
M  V30 1 N -1.908432 -8.169864 1.022670 0
M  V30 2 C -1.076394 -7.795791 -0.067627 0
M  V30 3 O -0.832016 -8.647374 -0.975544 0
M  V30 4 C -0.470104 -6.470347 -0.218193 0
M  V30 5 C 0.310381 -6.258428 -1.335388 0
M  V30 6 C 0.895396 -4.995675 -1.490059 0
M  V30 7 C 0.677479 -4.020415 -0.538527 0
M  V30 8 N 1.160835 -2.747321 -0.524784 0
M  V30 9 C 0.679516 -2.173225 0.599307 0
M  V30 10 C 0.948118 -0.800322 1.019297 0
M  V30 11 C 1.749363 0.019427 0.251592 0
M  V30 12 C 1.959732 1.315471 0.715175 0
M  V30 13 C 1.414375 1.809974 1.885392 0
M  V30 14 C 1.677253 3.200369 2.322594 0
M  V30 15 O 3.029393 3.502958 2.184293 0
M  V30 16 C 0.845269 4.210543 1.669650 0
M  V30 17 C -0.533201 4.018851 1.803559 0
M  V30 18 C -1.453870 4.885071 1.245352 0
M  V30 19 C -1.017688 5.974401 0.533083 0
M  V30 20 Cl -2.178688 7.093622 -0.187185 0
M  V30 21 C 0.342278 6.194485 0.380802 0
M  V30 22 C 1.263339 5.319908 0.944334 0
M  V30 23 Cl 2.987599 5.519395 0.803546 0
M  V30 24 C 0.610368 0.972182 2.646434 0
M  V30 25 C 0.397199 -0.317056 2.191452 0
M  V30 26 N -0.078746 -3.065489 1.260372 0
M  V30 27 C -0.114881 -4.236995 0.594568 0
M  V30 28 C -0.687271 -5.488168 0.736367 0
M  V30 29 H -2.030226 -7.562957 1.843205 0
M  V30 30 H -2.024748 -7.548673 1.847832 0
M  V30 31 H 0.505646 -6.996694 -2.104071 0
M  V30 32 H 1.512214 -4.825824 -2.370971 0
M  V30 33 H 1.780159 -2.272790 -1.222042 0
M  V30 34 H 2.194846 -0.328820 -0.670004 0
M  V30 35 H 2.584208 1.937317 0.105870 0
M  V30 36 H 1.469340 3.290719 3.428780 0
M  V30 37 H 3.547966 3.379988 3.022500 0
M  V30 38 H -0.984716 3.180979 2.352595 0
M  V30 39 H -2.522434 4.731139 1.352167 0
M  V30 40 H 0.720476 7.048446 -0.177836 0
M  V30 41 H 0.172504 1.321488 3.556716 0
M  V30 42 H -0.248322 -0.930586 2.838639 0
M  V30 43 H -1.298550 -5.653305 1.612880 0
M  V30 END ATOM
M  V30 BEGIN BOND
M  V30 1 1 1 2
M  V30 2 2 2 3
M  V30 3 1 2 4
M  V30 4 2 4 5
M  V30 5 1 5 6
M  V30 6 2 6 7
M  V30 7 1 7 8
M  V30 8 1 8 9
M  V30 9 1 9 10
M  V30 10 2 10 11
M  V30 11 1 11 12
M  V30 12 2 12 13
M  V30 13 1 13 14
M  V30 14 1 14 15
M  V30 15 1 14 16
M  V30 16 2 16 17
M  V30 17 1 17 18
M  V30 18 2 18 19
M  V30 19 1 19 20
M  V30 20 1 19 21
M  V30 21 2 21 22
M  V30 22 1 22 23
M  V30 23 1 13 24
M  V30 24 2 24 25
M  V30 25 2 9 26
M  V30 26 1 26 27
M  V30 27 2 27 28
M  V30 28 1 28 4
M  V30 29 1 27 7
M  V30 30 1 25 10
M  V30 31 1 22 16
M  V30 32 1 1 29
M  V30 33 1 1 30
M  V30 34 1 5 31
M  V30 35 1 6 32
M  V30 36 1 8 33
M  V30 37 1 11 34
M  V30 38 1 12 35
M  V30 39 1 14 36
M  V30 40 1 15 37
M  V30 41 1 17 38
M  V30 42 1 18 39
M  V30 43 1 21 40
M  V30 44 1 24 41
M  V30 45 1 25 42
M  V30 46 1 28 43
M  V30 END BOND
M  V30 END CTAB
M  END
>  <Dataset>  (905) 
ChEMBL_Kinases

>  <Ligand_Instance>  (905) 
nan

>  <PDB_ID>  (905) 
nan

>  <Standardized_SMILES>  (905) 
NC(=O)c1ccc2[nH]c(-c3ccc(C(O)c4ccc(Cl)cc4Cl)cc3)nc2c1

>  <Name>  (905) 
nan

>  <Pocket>  (905) 
nan

>  <ATP_Site>  (905) 
nan

>  <Peripheral>  (905) 
nan

>  <Num_H_Atoms_ProtBoundConf>  (905) 
nan

>  <Num_Resolved_Atoms>  (905) 
nan

>  <Num_Not_Resolved_Atoms>  (905) 
nan

$$$$
CHEMBL3931376
     RDKit          3D

  0  0  0  0  0  0  0  0  0  0999 V3000
M  V30 BEGIN CTAB
M  V30 COUNTS 40 43 0 0 0
M  V30 BEGIN ATOM
M  V30 1 N 0.411670 -8.516893 -0.724071 0
M  V30 2 C -0.481032 -7.394390 -0.628613 0
M  V30 3 O -1.729998 -7.544040 -0.642188 0
M  V30 4 C 0.128379 -6.063980 -0.514427 0
M  V30 5 C 1.508676 -5.884889 -0.498670 0
M  V30 6 C 2.105832 -4.646553 -0.392334 0
M  V30 7 C 1.251843 -3.566005 -0.299944 0
M  V30 8 N 1.454218 -2.240926 -0.186265 0
M  V30 9 C 0.287376 -1.572489 -0.129292 0
M  V30 10 C 0.147331 -0.124968 -0.005234 0
M  V30 11 C -1.094833 0.482868 0.046551 0
M  V30 12 C -1.192796 1.854314 0.164052 0
M  V30 13 C -0.056895 2.663275 0.233653 0
M  V30 14 O -0.081344 4.046576 0.352190 0
M  V30 15 C -0.095028 4.705945 1.564421 0
M  V30 16 C -0.119589 6.099133 1.676814 0
M  V30 17 C -0.132680 6.723066 2.903486 0
M  V30 18 C -0.122213 6.004896 4.079583 0
M  V30 19 I -0.140597 6.859024 6.001891 0
M  V30 20 C -0.098212 4.639167 4.013230 0
M  V30 21 C -0.085140 4.016908 2.780478 0
M  V30 22 C 1.189280 2.066041 0.182779 0
M  V30 23 C 1.261125 0.688353 0.064736 0
M  V30 24 N -0.680462 -2.474150 -0.206890 0
M  V30 25 C -0.121986 -3.715649 -0.313176 0
M  V30 26 C -0.705856 -4.962666 -0.420253 0
M  V30 27 H 1.009209 -8.817810 -1.518499 0
M  V30 28 H 0.680793 -9.286513 -0.053483 0
M  V30 29 H 2.105516 -6.774446 -0.574750 0
M  V30 30 H 3.175672 -4.528499 -0.381900 0
M  V30 31 H 2.436885 -1.848626 -0.152352 0
M  V30 32 H -1.993043 -0.126022 -0.005834 0
M  V30 33 H -2.146749 2.348467 0.206155 0
M  V30 34 H -0.127651 6.654127 0.756623 0
M  V30 35 H -0.151666 7.799854 2.999887 0
M  V30 36 H -0.087296 3.930800 4.843310 0
M  V30 37 H -0.065844 2.925308 2.661767 0
M  V30 38 H 2.122329 2.621291 0.230602 0
M  V30 39 H 2.212719 0.183403 0.021709 0
M  V30 40 H -1.774463 -5.071748 -0.429916 0
M  V30 END ATOM
M  V30 BEGIN BOND
M  V30 1 1 1 2
M  V30 2 2 2 3
M  V30 3 1 2 4
M  V30 4 2 4 5
M  V30 5 1 5 6
M  V30 6 2 6 7
M  V30 7 1 7 8
M  V30 8 1 8 9
M  V30 9 1 9 10
M  V30 10 2 10 11
M  V30 11 1 11 12
M  V30 12 2 12 13
M  V30 13 1 13 14
M  V30 14 1 14 15
M  V30 15 2 15 16
M  V30 16 1 16 17
M  V30 17 2 17 18
M  V30 18 1 18 19
M  V30 19 1 18 20
M  V30 20 2 20 21
M  V30 21 1 13 22
M  V30 22 2 22 23
M  V30 23 2 9 24
M  V30 24 1 24 25
M  V30 25 2 25 26
M  V30 26 1 26 4
M  V30 27 1 25 7
M  V30 28 1 23 10
M  V30 29 1 21 15
M  V30 30 1 1 27
M  V30 31 1 1 28
M  V30 32 1 5 29
M  V30 33 1 6 30
M  V30 34 1 8 31
M  V30 35 1 11 32
M  V30 36 1 12 33
M  V30 37 1 16 34
M  V30 38 1 17 35
M  V30 39 1 20 36
M  V30 40 1 21 37
M  V30 41 1 22 38
M  V30 42 1 23 39
M  V30 43 1 26 40
M  V30 END BOND
M  V30 END CTAB
M  END
>  <Dataset>  (906) 
ChEMBL_Kinases

>  <Ligand_Instance>  (906) 
nan

>  <PDB_ID>  (906) 
nan

>  <Standardized_SMILES>  (906) 
NC(=O)c1ccc2[nH]c(-c3ccc(Oc4ccc(I)cc4)cc3)nc2c1

>  <Name>  (906) 
nan

>  <Pocket>  (906) 
nan

>  <ATP_Site>  (906) 
nan

>  <Peripheral>  (906) 
nan

>  <Num_H_Atoms_ProtBoundConf>  (906) 
nan

>  <Num_Resolved_Atoms>  (906) 
nan

>  <Num_Not_Resolved_Atoms>  (906) 
nan

$$$$
CHEMBL3931196
     RDKit          3D

  0  0  0  0  0  0  0  0  0  0999 V3000
M  V30 BEGIN CTAB
M  V30 COUNTS 66 69 0 0 0
M  V30 BEGIN ATOM
M  V30 1 C 4.757245 -1.430137 3.222979 0
M  V30 2 O 3.682326 -1.319201 2.361936 0
M  V30 3 C 2.516250 -0.878840 2.938200 0
M  V30 4 C 2.635596 0.500233 3.570968 0
M  V30 5 C 3.021041 1.543170 2.592437 0
M  V30 6 N 2.159379 1.766472 1.500172 0
M  V30 7 C 0.889478 2.342224 1.729353 0
M  V30 8 C 0.254392 2.609632 0.347881 0
M  V30 9 N 0.781679 1.599979 -0.553132 0
M  V30 10 C -0.142536 0.600882 -0.935128 0
M  V30 11 O -1.254171 0.897081 -0.395469 0
M  V30 12 N -0.377692 -0.592724 -1.657789 0
M  V30 13 C -1.712943 -1.135037 -1.663818 0
M  V30 14 C -1.554885 -2.584705 -1.352579 0
M  V30 15 C -2.122726 -3.729644 -0.774481 0
M  V30 16 N -3.425038 -3.572914 -0.191906 0
M  V30 17 C -3.635264 -3.205380 1.164313 0
M  V30 18 O -2.579552 -3.028356 1.822719 0
M  V30 19 C -4.958591 -3.043677 1.752318 0
M  V30 20 C -5.042588 -2.701833 3.083406 0
M  V30 21 C -6.221836 -2.514084 3.782100 0
M  V30 22 C -7.354492 -2.702725 3.012950 0
M  V30 23 C -7.335020 -3.045358 1.677651 0
M  V30 24 N -6.121948 -3.201439 1.104234 0
M  V30 25 N -1.198981 -4.699295 -0.961200 0
M  V30 26 N -0.158696 -4.195107 -1.596768 0
M  V30 27 C -0.303787 -2.879659 -1.877267 0
M  V30 28 C 0.232168 -1.622782 -2.471880 0
M  V30 29 C -0.059592 -1.532874 -3.926632 0
M  V30 30 C 1.746487 -1.663937 -2.238253 0
M  V30 31 C 2.188202 1.861909 -0.875984 0 CFG=1
M  V30 32 C 2.172212 3.001796 -1.878167 0
M  V30 33 C 2.841167 2.391346 0.392722 0
M  V30 34 H 4.618701 -2.122386 4.059092 0
M  V30 35 H 5.086915 -0.418332 3.525359 0
M  V30 36 H 5.626486 -1.839215 2.636077 0
M  V30 37 H 1.748170 -0.808679 2.137131 0
M  V30 38 H 2.089234 -1.614772 3.669508 0
M  V30 39 H 3.453883 0.486948 4.353155 0
M  V30 40 H 1.720341 0.666877 4.133680 0
M  V30 41 H 3.251177 2.525310 3.080143 0
M  V30 42 H 4.008699 1.227705 2.161808 0
M  V30 43 H 0.921780 3.329886 2.249938 0
M  V30 44 H 0.152573 1.737439 2.272162 0
M  V30 45 H 0.566736 3.613512 0.012032 0
M  V30 46 H -0.847835 2.591162 0.430486 0
M  V30 47 H -2.402891 -0.727291 -0.933494 0
M  V30 48 H -2.124058 -1.006290 -2.705941 0
M  V30 49 H -4.283166 -3.738493 -0.783571 0
M  V30 50 H -4.111992 -2.566465 3.640608 0
M  V30 51 H -6.255874 -2.248641 4.812138 0
M  V30 52 H -8.329732 -2.578788 3.458847 0
M  V30 53 H -8.237542 -3.182689 1.102351 0
M  V30 54 H 0.683723 -4.750483 -1.853880 0
M  V30 55 H -0.697907 -0.627951 -4.107311 0
M  V30 56 H -0.538590 -2.427478 -4.376455 0
M  V30 57 H 0.905870 -1.354130 -4.478734 0
M  V30 58 H 2.091229 -2.640568 -2.577723 0
M  V30 59 H 1.927464 -1.576413 -1.148682 0
M  V30 60 H 2.252843 -0.887322 -2.829538 0
M  V30 61 H 2.666547 0.951654 -1.263185 0
M  V30 62 H 1.180395 3.153972 -2.336371 0
M  V30 63 H 2.951237 2.853046 -2.647946 0
M  V30 64 H 2.405459 3.985754 -1.377825 0
M  V30 65 H 2.849033 3.501170 0.431518 0
M  V30 66 H 3.910591 2.082636 0.465974 0
M  V30 END ATOM
M  V30 BEGIN BOND
M  V30 1 1 1 2
M  V30 2 1 2 3
M  V30 3 1 3 4
M  V30 4 1 4 5
M  V30 5 1 5 6
M  V30 6 1 6 7
M  V30 7 1 7 8
M  V30 8 1 8 9
M  V30 9 1 9 10
M  V30 10 2 10 11
M  V30 11 1 10 12
M  V30 12 1 12 13
M  V30 13 1 13 14
M  V30 14 1 14 15
M  V30 15 1 15 16
M  V30 16 1 16 17
M  V30 17 2 17 18
M  V30 18 1 17 19
M  V30 19 2 19 20
M  V30 20 1 20 21
M  V30 21 2 21 22
M  V30 22 1 22 23
M  V30 23 2 23 24
M  V30 24 2 15 25
M  V30 25 1 25 26
M  V30 26 1 26 27
M  V30 27 1 27 28
M  V30 28 1 28 29
M  V30 29 1 28 30
M  V30 30 1 9 31
M  V30 31 1 31 32
M  V30 32 1 31 33
M  V30 33 1 33 6
M  V30 34 1 28 12
M  V30 35 2 27 14
M  V30 36 1 24 19
M  V30 37 1 1 34
M  V30 38 1 1 35
M  V30 39 1 1 36
M  V30 40 1 3 37
M  V30 41 1 3 38
M  V30 42 1 4 39
M  V30 43 1 4 40
M  V30 44 1 5 41
M  V30 45 1 5 42
M  V30 46 1 7 43
M  V30 47 1 7 44
M  V30 48 1 8 45
M  V30 49 1 8 46
M  V30 50 1 13 47
M  V30 51 1 13 48
M  V30 52 1 16 49
M  V30 53 1 20 50
M  V30 54 1 21 51
M  V30 55 1 22 52
M  V30 56 1 23 53
M  V30 57 1 26 54
M  V30 58 1 29 55
M  V30 59 1 29 56
M  V30 60 1 29 57
M  V30 61 1 30 58
M  V30 62 1 30 59
M  V30 63 1 30 60
M  V30 64 1 31 61 CFG=3
M  V30 65 1 32 62
M  V30 66 1 32 63
M  V30 67 1 32 64
M  V30 68 1 33 65
M  V30 69 1 33 66
M  V30 END BOND
M  V30 END CTAB
M  END
>  <Dataset>  (907) 
ChEMBL_Kinases

>  <Ligand_Instance>  (907) 
nan

>  <PDB_ID>  (907) 
nan

>  <Standardized_SMILES>  (907) 
COCCCN1CCN(C(=O)N2Cc3c(NC(=O)c4ccccn4)n[nH]c3C2(C)C)[C@@H](C)C1

>  <Name>  (907) 
nan

>  <Pocket>  (907) 
nan

>  <ATP_Site>  (907) 
nan

>  <Peripheral>  (907) 
nan

>  <Num_H_Atoms_ProtBoundConf>  (907) 
nan

>  <Num_Resolved_Atoms>  (907) 
nan

>  <Num_Not_Resolved_Atoms>  (907) 
nan

$$$$
CHEMBL3931050
     RDKit          3D

  0  0  0  0  0  0  0  0  0  0999 V3000
M  V30 BEGIN CTAB
M  V30 COUNTS 43 46 0 0 0
M  V30 BEGIN ATOM
M  V30 1 N 1.020706 -8.087727 2.431866 0
M  V30 2 C 0.118858 -7.908358 1.353199 0
M  V30 3 O -0.415294 -8.981685 0.976797 0
M  V30 4 C -0.119968 -6.588866 0.784865 0
M  V30 5 C -1.046305 -6.527655 -0.229415 0
M  V30 6 C -1.266501 -5.269148 -0.764579 0
M  V30 7 C -0.589111 -4.160397 -0.295650 0
M  V30 8 N -0.621312 -2.849345 -0.640446 0
M  V30 9 C 0.236693 -2.133812 0.116144 0
M  V30 10 C 0.506810 -0.701155 0.072431 0
M  V30 11 C -0.161737 0.136808 -0.811864 0
M  V30 12 C 0.128226 1.486205 -0.826463 0
M  V30 13 C 1.063903 2.070417 0.002780 0
M  V30 14 C 1.444951 3.497754 0.038750 0
M  V30 15 O 2.832996 3.575157 0.236029 0
M  V30 16 C 0.798644 4.289391 1.100555 0
M  V30 17 C 0.649868 3.887084 2.405472 0
M  V30 18 C 0.031473 4.674970 3.353469 0
M  V30 19 C -0.479931 5.918517 3.059987 0
M  V30 20 C -0.328596 6.325858 1.734169 0
M  V30 21 C 0.285659 5.547337 0.784916 0
M  V30 22 Cl 0.419863 6.168054 -0.860493 0
M  V30 23 C 1.732130 1.226106 0.887850 0
M  V30 24 C 1.446053 -0.141227 0.910812 0
M  V30 25 N 0.817282 -3.011921 0.950067 0
M  V30 26 C 0.344932 -4.252652 0.734092 0
M  V30 27 C 0.581674 -5.517746 1.288786 0
M  V30 28 H 1.431905 -7.730722 3.322051 0
M  V30 29 H 1.663503 -8.191350 3.222577 0
M  V30 30 H -1.527213 -7.447398 -0.529959 0
M  V30 31 H -1.993707 -5.196022 -1.566600 0
M  V30 32 H -1.222009 -2.414548 -1.392188 0
M  V30 33 H -0.903123 -0.250036 -1.486714 0
M  V30 34 H -0.382641 2.153751 -1.508578 0
M  V30 35 H 1.188630 3.973925 -0.954346 0
M  V30 36 H 3.303506 3.819338 -0.588821 0
M  V30 37 H 1.014990 2.929019 2.730887 0
M  V30 38 H -0.093154 4.370145 4.389589 0
M  V30 39 H -0.973951 6.599678 3.724431 0
M  V30 40 H -0.713943 7.299800 1.446887 0
M  V30 41 H 2.500263 1.486989 1.607276 0
M  V30 42 H 1.951885 -0.842338 1.593653 0
M  V30 43 H 1.298060 -5.611578 2.084521 0
M  V30 END ATOM
M  V30 BEGIN BOND
M  V30 1 1 1 2
M  V30 2 2 2 3
M  V30 3 1 2 4
M  V30 4 2 4 5
M  V30 5 1 5 6
M  V30 6 2 6 7
M  V30 7 1 7 8
M  V30 8 1 8 9
M  V30 9 1 9 10
M  V30 10 2 10 11
M  V30 11 1 11 12
M  V30 12 2 12 13
M  V30 13 1 13 14
M  V30 14 1 14 15
M  V30 15 1 14 16
M  V30 16 2 16 17
M  V30 17 1 17 18
M  V30 18 2 18 19
M  V30 19 1 19 20
M  V30 20 2 20 21
M  V30 21 1 21 22
M  V30 22 1 13 23
M  V30 23 2 23 24
M  V30 24 2 9 25
M  V30 25 1 25 26
M  V30 26 2 26 27
M  V30 27 1 27 4
M  V30 28 1 26 7
M  V30 29 1 24 10
M  V30 30 1 21 16
M  V30 31 1 1 28
M  V30 32 1 1 29
M  V30 33 1 5 30
M  V30 34 1 6 31
M  V30 35 1 8 32
M  V30 36 1 11 33
M  V30 37 1 12 34
M  V30 38 1 14 35
M  V30 39 1 15 36
M  V30 40 1 17 37
M  V30 41 1 18 38
M  V30 42 1 19 39
M  V30 43 1 20 40
M  V30 44 1 23 41
M  V30 45 1 24 42
M  V30 46 1 27 43
M  V30 END BOND
M  V30 END CTAB
M  END
>  <Dataset>  (908) 
ChEMBL_Kinases

>  <Ligand_Instance>  (908) 
nan

>  <PDB_ID>  (908) 
nan

>  <Standardized_SMILES>  (908) 
NC(=O)c1ccc2[nH]c(-c3ccc(C(O)c4ccccc4Cl)cc3)nc2c1

>  <Name>  (908) 
nan

>  <Pocket>  (908) 
nan

>  <ATP_Site>  (908) 
nan

>  <Peripheral>  (908) 
nan

>  <Num_H_Atoms_ProtBoundConf>  (908) 
nan

>  <Num_Resolved_Atoms>  (908) 
nan

>  <Num_Not_Resolved_Atoms>  (908) 
nan

$$$$
CHEMBL3931030
     RDKit          3D

  0  0  0  0  0  0  0  0  0  0999 V3000
M  V30 BEGIN CTAB
M  V30 COUNTS 55 59 0 0 0
M  V30 BEGIN ATOM
M  V30 1 C 6.137749 -2.610607 5.384212 0
M  V30 2 O 6.108674 -2.011100 4.078946 0
M  V30 3 C 4.955487 -1.587125 3.485401 0
M  V30 4 O 3.846489 -1.719855 4.099971 0
M  V30 5 N 4.943869 -0.996463 2.193307 0
M  V30 6 C 3.697475 -0.579606 1.642112 0
M  V30 7 N 2.493664 -0.682066 2.233298 0
M  V30 8 C 1.529927 -0.193597 1.430776 0
M  V30 9 C 0.167839 -0.102022 1.634605 0
M  V30 10 C -0.564901 0.454982 0.607662 0
M  V30 11 C -2.043736 0.656863 0.607699 0
M  V30 12 O -2.633160 0.245687 1.809264 0
M  V30 13 C -2.302767 2.131763 0.516112 0
M  V30 14 C -1.948459 3.209703 1.259628 0
M  V30 15 C -2.393779 4.468270 0.840679 0
M  V30 16 C -3.167185 4.673828 -0.277604 0
M  V30 17 C -3.533042 3.587490 -1.040017 0
M  V30 18 C -3.080963 2.339537 -0.608809 0
M  V30 19 C -3.364028 1.066774 -1.280777 0
M  V30 20 O -4.028211 0.826841 -2.322666 0
M  V30 21 N -2.715961 0.064386 -0.505086 0
M  V30 22 C -2.679381 -1.342782 -0.715058 0
M  V30 23 C -3.724024 -2.031730 -0.088356 0
M  V30 24 C -3.885632 -3.408991 -0.158592 0
M  V30 25 C -2.951660 -4.140972 -0.896219 0
M  V30 26 C -1.922235 -3.461217 -1.513672 0
M  V30 27 S -0.739308 -4.352685 -2.443956 0
M  V30 28 C 0.588459 -4.837411 -1.383857 0
M  V30 29 O -1.418916 -5.515408 -3.082953 0
M  V30 30 O -0.253308 -3.471355 -3.570169 0
M  V30 31 C -1.777126 -2.090984 -1.433031 0
M  V30 32 C 0.024361 0.902664 -0.571333 0
M  V30 33 C 1.400824 0.783388 -0.717140 0
M  V30 34 C 2.177390 0.230153 0.288235 0
M  V30 35 N 3.512916 -0.011498 0.427110 0
M  V30 36 H 5.526740 -3.549443 5.386435 0
M  V30 37 H 7.154486 -2.722858 5.754514 0
M  V30 38 H 5.586526 -1.896636 6.029747 0
M  V30 39 H 5.821805 -0.864252 1.647574 0
M  V30 40 H -0.364418 -0.417125 2.498970 0
M  V30 41 H -2.151394 0.567385 2.593480 0
M  V30 42 H -1.341322 3.093750 2.146910 0
M  V30 43 H -2.119610 5.354645 1.426159 0
M  V30 44 H -3.480440 5.682229 -0.548231 0
M  V30 45 H -4.133111 3.724498 -1.912242 0
M  V30 46 H -4.487204 -1.529288 0.501854 0
M  V30 47 H -4.693406 -3.914372 0.329629 0
M  V30 48 H -3.012344 -5.224038 -0.997092 0
M  V30 49 H 0.892105 -5.884393 -1.667163 0
M  V30 50 H 1.472358 -4.171058 -1.466128 0
M  V30 51 H 0.222838 -4.866945 -0.336837 0
M  V30 52 H -0.995447 -1.502362 -1.892313 0
M  V30 53 H -0.502593 1.344496 -1.402821 0
M  V30 54 H 1.877960 1.123538 -1.621573 0
M  V30 55 H 4.214212 0.216438 -0.293351 0
M  V30 END ATOM
M  V30 BEGIN BOND
M  V30 1 1 1 2
M  V30 2 1 2 3
M  V30 3 2 3 4
M  V30 4 1 3 5
M  V30 5 1 5 6
M  V30 6 2 6 7
M  V30 7 1 7 8
M  V30 8 2 8 9
M  V30 9 1 9 10
M  V30 10 1 10 11
M  V30 11 1 11 12
M  V30 12 1 11 13
M  V30 13 2 13 14
M  V30 14 1 14 15
M  V30 15 2 15 16
M  V30 16 1 16 17
M  V30 17 2 17 18
M  V30 18 1 18 19
M  V30 19 2 19 20
M  V30 20 1 19 21
M  V30 21 1 21 22
M  V30 22 2 22 23
M  V30 23 1 23 24
M  V30 24 2 24 25
M  V30 25 1 25 26
M  V30 26 1 26 27
M  V30 27 1 27 28
M  V30 28 2 27 29
M  V30 29 2 27 30
M  V30 30 2 26 31
M  V30 31 2 10 32
M  V30 32 1 32 33
M  V30 33 2 33 34
M  V30 34 1 34 35
M  V30 35 1 35 6
M  V30 36 1 34 8
M  V30 37 1 21 11
M  V30 38 1 31 22
M  V30 39 1 18 13
M  V30 40 1 1 36
M  V30 41 1 1 37
M  V30 42 1 1 38
M  V30 43 1 5 39
M  V30 44 1 9 40
M  V30 45 1 12 41
M  V30 46 1 14 42
M  V30 47 1 15 43
M  V30 48 1 16 44
M  V30 49 1 17 45
M  V30 50 1 23 46
M  V30 51 1 24 47
M  V30 52 1 25 48
M  V30 53 1 28 49
M  V30 54 1 28 50
M  V30 55 1 28 51
M  V30 56 1 31 52
M  V30 57 1 32 53
M  V30 58 1 33 54
M  V30 59 1 35 55
M  V30 END BOND
M  V30 END CTAB
M  END
>  <Dataset>  (909) 
ChEMBL_Kinases

>  <Ligand_Instance>  (909) 
nan

>  <PDB_ID>  (909) 
nan

>  <Standardized_SMILES>  (909) 
COC(=O)Nc1nc2cc(C3(O)c4ccccc4C(=O)N3c3cccc(S(C)(=O)=O)c3)ccc2[nH]1

>  <Name>  (909) 
nan

>  <Pocket>  (909) 
nan

>  <ATP_Site>  (909) 
nan

>  <Peripheral>  (909) 
nan

>  <Num_H_Atoms_ProtBoundConf>  (909) 
nan

>  <Num_Resolved_Atoms>  (909) 
nan

>  <Num_Not_Resolved_Atoms>  (909) 
nan

$$$$
CHEMBL3931019
     RDKit          3D

  0  0  0  0  0  0  0  0  0  0999 V3000
M  V30 BEGIN CTAB
M  V30 COUNTS 47 51 0 0 0
M  V30 BEGIN ATOM
M  V30 1 C 5.524016 -3.513181 5.484862 0
M  V30 2 O 6.372591 -2.415378 5.116826 0
M  V30 3 C 5.937530 -1.439557 4.230751 0
M  V30 4 C 6.814602 -0.411506 3.924752 0
M  V30 5 C 6.429501 0.597985 3.038628 0
M  V30 6 C 5.187183 0.596223 2.456106 0
M  V30 7 N 4.548842 1.423797 1.578062 0
M  V30 8 C 3.333813 0.936081 1.347819 0
M  V30 9 C 2.318215 1.510011 0.469619 0
M  V30 10 N 2.421505 2.631749 -0.265520 0
M  V30 11 N 1.297635 2.858964 -0.952372 0
M  V30 12 C 0.428732 1.866674 -0.667422 0
M  V30 13 C -0.863034 1.565583 -1.064079 0
M  V30 14 C -1.573643 0.465443 -0.629402 0
M  V30 15 C -2.931153 0.250452 -1.117130 0
M  V30 16 O -3.374489 1.107793 -1.925005 0
M  V30 17 N -3.707927 -0.846410 -0.715229 0
M  V30 18 C -5.036426 -1.160894 -1.119776 0
M  V30 19 C -6.129912 -0.671350 -0.397677 0
M  V30 20 C -7.455859 -0.944051 -0.743288 0
M  V30 21 C -7.652921 -1.745548 -1.867363 0
M  V30 22 O -8.970736 -2.046240 -2.252684 0
M  V30 23 C -6.615372 -2.256495 -2.617985 0
M  V30 24 C -5.318823 -1.945933 -2.218146 0
M  V30 25 C -0.931058 -0.372933 0.258270 0
M  V30 26 C 0.356402 -0.089306 0.665095 0
M  V30 27 C 1.054475 1.014960 0.221649 0
M  V30 28 N 3.177762 -0.193069 2.063249 0
M  V30 29 C 4.309291 -0.446657 2.772085 0
M  V30 30 C 4.678383 -1.466242 3.657733 0
M  V30 31 H 4.964459 -3.907475 4.597049 0
M  V30 32 H 6.130629 -4.373452 5.832347 0
M  V30 33 H 4.752887 -3.210742 6.224426 0
M  V30 34 H 7.823996 -0.337070 4.347032 0
M  V30 35 H 7.134823 1.393623 2.814279 0
M  V30 36 H 4.983542 2.289304 1.177739 0
M  V30 37 H 1.107526 3.661312 -1.602250 0
M  V30 38 H -1.290000 2.281651 -1.764980 0
M  V30 39 H -3.349067 -1.562035 -0.046151 0
M  V30 40 H -5.872593 -0.050702 0.469681 0
M  V30 41 H -8.261604 -0.538471 -0.147942 0
M  V30 42 H -9.340779 -3.002292 -2.142548 0
M  V30 43 H -6.776694 -2.877797 -3.489098 0
M  V30 44 H -4.441031 -2.310476 -2.757696 0
M  V30 45 H -1.448989 -1.242112 0.622152 0
M  V30 46 H 0.857345 -0.755397 1.365836 0
M  V30 47 H 3.986510 -2.263102 3.889289 0
M  V30 END ATOM
M  V30 BEGIN BOND
M  V30 1 1 1 2
M  V30 2 1 2 3
M  V30 3 2 3 4
M  V30 4 1 4 5
M  V30 5 2 5 6
M  V30 6 1 6 7
M  V30 7 1 7 8
M  V30 8 1 8 9
M  V30 9 2 9 10
M  V30 10 1 10 11
M  V30 11 1 11 12
M  V30 12 2 12 13
M  V30 13 1 13 14
M  V30 14 1 14 15
M  V30 15 2 15 16
M  V30 16 1 15 17
M  V30 17 1 17 18
M  V30 18 2 18 19
M  V30 19 1 19 20
M  V30 20 2 20 21
M  V30 21 1 21 22
M  V30 22 1 21 23
M  V30 23 2 23 24
M  V30 24 2 14 25
M  V30 25 1 25 26
M  V30 26 2 26 27
M  V30 27 2 8 28
M  V30 28 1 28 29
M  V30 29 2 29 30
M  V30 30 1 30 3
M  V30 31 1 29 6
M  V30 32 1 27 9
M  V30 33 1 27 12
M  V30 34 1 24 18
M  V30 35 1 1 31
M  V30 36 1 1 32
M  V30 37 1 1 33
M  V30 38 1 4 34
M  V30 39 1 5 35
M  V30 40 1 7 36
M  V30 41 1 11 37
M  V30 42 1 13 38
M  V30 43 1 17 39
M  V30 44 1 19 40
M  V30 45 1 20 41
M  V30 46 1 22 42
M  V30 47 1 23 43
M  V30 48 1 24 44
M  V30 49 1 25 45
M  V30 50 1 26 46
M  V30 51 1 30 47
M  V30 END BOND
M  V30 END CTAB
M  END
>  <Dataset>  (910) 
ChEMBL_Kinases

>  <Ligand_Instance>  (910) 
nan

>  <PDB_ID>  (910) 
nan

>  <Standardized_SMILES>  (910) 
COc1ccc2[nH]c(-c3n[nH]c4cc(C(=O)Nc5ccc(O)cc5)ccc34)nc2c1

>  <Name>  (910) 
nan

>  <Pocket>  (910) 
nan

>  <ATP_Site>  (910) 
nan

>  <Peripheral>  (910) 
nan

>  <Num_H_Atoms_ProtBoundConf>  (910) 
nan

>  <Num_Resolved_Atoms>  (910) 
nan

>  <Num_Not_Resolved_Atoms>  (910) 
nan

$$$$
CHEMBL611121
     RDKit          3D

  0  0  0  0  0  0  0  0  0  0999 V3000
M  V30 BEGIN CTAB
M  V30 COUNTS 203 205 0 0 0
M  V30 BEGIN ATOM
M  V30 1 N 4.620335 7.866892 2.820119 0
M  V30 2 C 4.671096 6.840813 2.028395 0
M  V30 3 N 5.648389 5.830901 2.357021 0
M  V30 4 N 3.780891 6.779503 0.928028 0
M  V30 5 C 2.505689 7.411471 1.125263 0
M  V30 6 C 1.691260 7.240012 -0.148503 0
M  V30 7 C 1.515729 5.776464 -0.486218 0
M  V30 8 C 0.701266 5.626112 -1.723067 0 CFG=1
M  V30 9 N 0.522206 4.242144 -2.117122 0
M  V30 10 C 0.459484 3.690516 -3.455170 0
M  V30 11 O 0.582146 4.761595 -4.138852 0
M  V30 12 C 0.297722 2.289483 -3.759596 0 CFG=1
M  V30 13 C 1.282170 1.779433 -4.816373 0
M  V30 14 C 1.027016 2.564129 -6.077338 0
M  V30 15 C 1.914721 2.126383 -7.228556 0
M  V30 16 N 1.662274 0.762747 -7.555199 0
M  V30 17 C 0.351253 0.669224 -8.147434 0
M  V30 18 N -0.467339 1.524470 -8.694916 0
M  V30 19 N -0.493534 -0.479755 -8.331064 0
M  V30 20 N 0.268402 1.393246 -2.619759 0
M  V30 21 C -0.347936 0.147351 -2.911171 0
M  V30 22 O -0.827894 -0.250528 -3.979378 0
M  V30 23 C -0.500510 -0.916929 -1.891364 0 CFG=1
M  V30 24 C -1.600883 -0.409893 -0.964768 0
M  V30 25 C -1.950107 -1.340945 0.146026 0
M  V30 26 C -0.851214 -1.650961 1.108202 0
M  V30 27 N -0.457164 -0.380417 1.733201 0
M  V30 28 C -1.341590 0.286885 2.631455 0
M  V30 29 N -2.047660 -0.460768 3.430572 0
M  V30 30 N -1.444554 1.725426 2.647668 0
M  V30 31 N -0.873043 -2.202896 -2.446342 0
M  V30 32 C -0.004376 -3.286269 -2.035837 0
M  V30 33 O 1.000501 -3.638767 -1.369642 0
M  V30 34 C -0.300991 -4.661190 -2.544325 0 CFG=1
M  V30 35 C -0.462984 -4.610193 -4.027900 0
M  V30 36 C 0.708837 -4.082692 -4.783748 0
M  V30 37 C 2.007435 -4.813083 -4.601476 0
M  V30 38 N 2.979437 -4.087696 -5.448323 0
M  V30 39 C 4.336852 -4.494616 -5.484336 0
M  V30 40 N 4.687003 -5.661575 -5.099327 0
M  V30 41 N 5.309727 -3.572199 -5.960702 0
M  V30 42 N 0.458397 -5.725240 -2.050578 0
M  V30 43 C 0.071332 -6.157706 -0.759675 0
M  V30 44 O -0.841606 -5.646347 -0.051937 0
M  V30 45 C 0.387450 -7.201391 0.316674 0 CFG=1
M  V30 46 C 1.737048 -7.746063 0.236171 0
M  V30 47 C 2.860515 -6.755001 0.367003 0
M  V30 48 C 4.148746 -7.524789 0.239932 0
M  V30 49 N 5.333410 -6.700881 0.315119 0
M  V30 50 C 5.680271 -5.783676 -0.704710 0
M  V30 51 N 4.755992 -5.225449 -1.431539 0
M  V30 52 N 7.009350 -5.381344 -1.044732 0
M  V30 53 N -0.180316 -6.811363 1.547729 0
M  V30 54 C -1.378341 -6.822009 2.309718 0
M  V30 55 O -2.292998 -7.392699 1.624408 0
M  V30 56 C -1.312189 -6.194373 3.651921 0 CFG=1
M  V30 57 C -2.278988 -6.729017 4.655277 0
M  V30 58 C -3.713763 -6.513611 4.207663 0
M  V30 59 C -4.593727 -7.053517 5.316757 0
M  V30 60 N -5.997629 -6.883107 5.071370 0
M  V30 61 C -6.815140 -7.502704 4.111122 0
M  V30 62 N -6.383613 -8.693372 3.771791 0
M  V30 63 N -7.947250 -6.744242 3.684678 0
M  V30 64 N 0.013084 -6.012878 4.132570 0
M  V30 65 C 0.853886 -4.886812 4.038101 0
M  V30 66 O 0.262957 -3.970016 3.397380 0
M  V30 67 C 2.227503 -4.752823 4.594158 0
M  V30 68 C 2.889787 -3.488335 4.122705 0
M  V30 69 C 3.116794 -3.519707 2.631431 0
M  V30 70 C 3.726668 -2.147481 2.208789 0
M  V30 71 C 4.032105 -2.101831 0.779021 0
M  V30 72 C 4.662107 -0.865342 0.222716 0
M  V30 73 C 3.906906 0.384097 0.420349 0
M  V30 74 C 3.811433 0.978607 1.783992 0
M  V30 75 C 2.821776 2.152498 1.753388 0
M  V30 76 C 2.694519 2.705291 3.136602 0
M  V30 77 N 1.664705 3.729455 3.194771 0
M  V30 78 C 1.290516 4.433420 4.334576 0
M  V30 79 O 1.882135 4.228283 5.451246 0
M  V30 80 C 0.198045 5.465994 4.425836 0 CFG=1
M  V30 81 O -0.459719 5.621488 3.254128 0
M  V30 82 C -1.771448 5.852118 3.488885 0
M  V30 83 N -2.244018 7.133783 2.978465 0
M  V30 84 C -1.629761 8.171183 2.389692 0
M  V30 85 N -2.506017 9.142652 2.096168 0
M  V30 86 C -3.698763 8.679677 2.521423 0
M  V30 87 C -4.913443 9.323544 2.437761 0
M  V30 88 N -5.090111 10.623830 1.868531 0
M  V30 89 N -5.978681 8.680313 2.924180 0
M  V30 90 C -5.861876 7.468264 3.463364 0
M  V30 91 N -4.688276 6.826886 3.552217 0
M  V30 92 C -3.564373 7.408017 3.085731 0
M  V30 93 C -2.084984 5.699075 4.953199 0 CFG=2
M  V30 94 O -2.167089 6.933929 5.571457 0
M  V30 95 C -0.824753 5.022603 5.437756 0 CFG=2
M  V30 96 O -0.458171 5.420890 6.734078 0
M  V30 97 C -0.691345 6.198992 -1.507363 0
M  V30 98 O -1.833357 5.690083 -1.615060 0
M  V30 99 O -1.699463 7.093420 -1.211332 0
M  V30 100 H 5.219405 8.005400 3.654159 0
M  V30 101 H 6.677387 6.090815 2.298915 0
M  V30 102 H 5.755238 4.841441 2.658768 0
M  V30 103 H 4.173812 6.268753 0.091856 0
M  V30 104 H 1.970612 7.089025 2.034423 0
M  V30 105 H 2.736433 8.508366 1.272042 0
M  V30 106 H 0.728092 7.732019 0.016629 0
M  V30 107 H 2.186566 7.753519 -0.983759 0
M  V30 108 H 0.865380 5.371060 0.355583 0
M  V30 109 H 2.426696 5.186259 -0.452459 0
M  V30 110 H 1.073846 6.189736 -2.586993 0
M  V30 111 H 0.428272 3.589154 -1.281670 0
M  V30 112 H -0.690720 2.133323 -4.300072 0
M  V30 113 H 1.051060 0.722683 -5.041533 0
M  V30 114 H 2.339792 1.951573 -4.524230 0
M  V30 115 H -0.041027 2.335241 -6.381386 0
M  V30 116 H 1.067920 3.644797 -5.983842 0
M  V30 117 H 1.792848 2.793533 -8.106876 0
M  V30 118 H 2.967662 2.284656 -6.889784 0
M  V30 119 H 2.044191 -0.206584 -7.540651 0
M  V30 120 H -0.127803 2.524074 -8.729799 0
M  V30 121 H -0.844767 -0.834809 -7.407827 0
M  V30 122 H -0.797212 -0.996262 -9.163757 0
M  V30 123 H 0.607815 1.478577 -1.619593 0
M  V30 124 H 0.415092 -1.008189 -1.316785 0
M  V30 125 H -1.343381 0.577030 -0.526538 0
M  V30 126 H -2.530453 -0.254218 -1.551469 0
M  V30 127 H -2.455831 -2.278780 -0.233040 0
M  V30 128 H -2.752339 -0.832336 0.735223 0
M  V30 129 H -1.285936 -2.356268 1.865407 0
M  V30 130 H 0.076843 -2.051472 0.672366 0
M  V30 131 H 0.462680 0.070120 1.544624 0
M  V30 132 H -2.696995 0.059603 4.088330 0
M  V30 133 H -1.393235 2.198539 3.579273 0
M  V30 134 H -1.436396 2.414900 3.412681 0
M  V30 135 H -1.649290 -2.455961 -3.082202 0
M  V30 136 H -1.363784 -4.817669 -2.123576 0
M  V30 137 H -1.365139 -4.029144 -4.323975 0
M  V30 138 H -0.666240 -5.638233 -4.464104 0
M  V30 139 H 0.835280 -2.974383 -4.691604 0
M  V30 140 H 0.443199 -4.207278 -5.881273 0
M  V30 141 H 1.995084 -5.862593 -4.950708 0
M  V30 142 H 2.369040 -4.821608 -3.551652 0
M  V30 143 H 2.734569 -3.253687 -6.063142 0
M  V30 144 H 5.702951 -5.922532 -5.141829 0
M  V30 145 H 5.949599 -2.860262 -6.324624 0
M  V30 146 H 6.351035 -3.723125 -5.922916 0
M  V30 147 H 1.260196 -6.415276 -2.217246 0
M  V30 148 H -0.306371 -8.051203 -0.055041 0
M  V30 149 H 1.925271 -8.542252 0.986936 0
M  V30 150 H 1.867508 -8.252997 -0.750462 0
M  V30 151 H 2.895702 -6.290598 1.372717 0
M  V30 152 H 2.830626 -5.961718 -0.377684 0
M  V30 153 H 4.194746 -8.171182 1.166627 0
M  V30 154 H 4.152093 -8.201042 -0.639756 0
M  V30 155 H 6.025772 -6.714232 1.123482 0
M  V30 156 H 4.916761 -4.553128 -2.187380 0
M  V30 157 H 7.842965 -5.735639 -1.597455 0
M  V30 158 H 7.554504 -4.513932 -0.785756 0
M  V30 159 H 0.666916 -6.359871 1.968152 0
M  V30 160 H -1.740478 -5.138026 3.410897 0
M  V30 161 H -2.133016 -7.807723 4.896448 0
M  V30 162 H -2.133397 -6.152878 5.595581 0
M  V30 163 H -3.944482 -5.447450 4.060242 0
M  V30 164 H -3.937057 -7.144447 3.298719 0
M  V30 165 H -4.431396 -8.165672 5.446760 0
M  V30 166 H -4.299674 -6.630084 6.293547 0
M  V30 167 H -6.460862 -6.176290 5.720065 0
M  V30 168 H -6.986623 -9.180190 3.048987 0
M  V30 169 H -7.761195 -6.229798 2.784270 0
M  V30 170 H -7.951517 -6.166849 2.809593 0
M  V30 171 H 0.414388 -6.861320 4.637004 0
M  V30 172 H 2.108712 -4.630854 5.714267 0
M  V30 173 H 2.811825 -5.665193 4.371995 0
M  V30 174 H 3.829803 -3.334357 4.684270 0
M  V30 175 H 2.157565 -2.657372 4.297228 0
M  V30 176 H 2.135715 -3.553810 2.137897 0
M  V30 177 H 3.801831 -4.321316 2.336202 0
M  V30 178 H 4.542006 -1.942270 2.849968 0
M  V30 179 H 2.878535 -1.409917 2.424257 0
M  V30 180 H 4.558160 -3.024311 0.400013 0
M  V30 181 H 3.033035 -2.181295 0.213073 0
M  V30 182 H 5.649170 -0.738085 0.751461 0
M  V30 183 H 4.911796 -1.041285 -0.873021 0
M  V30 184 H 4.378785 1.144884 -0.297216 0
M  V30 185 H 2.854175 0.313370 -0.035905 0
M  V30 186 H 3.766717 0.375215 2.664618 0
M  V30 187 H 4.874947 1.470645 1.910848 0
M  V30 188 H 3.363188 2.932885 1.151751 0
M  V30 189 H 1.900999 1.919064 1.232998 0
M  V30 190 H 2.465550 1.950179 3.900721 0
M  V30 191 H 3.692849 3.135392 3.402055 0
M  V30 192 H 1.146595 3.979606 2.327346 0
M  V30 193 H 0.653208 6.419078 4.743136 0
M  V30 194 H -2.344975 5.069294 2.900068 0
M  V30 195 H -0.575331 8.030891 2.268445 0
M  V30 196 H -4.472912 11.351109 2.324792 0
M  V30 197 H -5.790254 10.734784 1.078620 0
M  V30 198 H -6.774139 6.996172 3.843874 0
M  V30 199 H -2.991979 5.077844 5.131196 0
M  V30 200 H -1.390977 7.461765 5.206692 0
M  V30 201 H -0.905500 3.911011 5.465101 0
M  V30 202 H -0.994813 4.894282 7.389598 0
M  V30 203 H -1.595075 8.065721 -0.988689 0
M  V30 END ATOM
M  V30 BEGIN BOND
M  V30 1 2 1 2 CFG=2
M  V30 2 1 2 3
M  V30 3 1 2 4
M  V30 4 1 4 5
M  V30 5 1 5 6
M  V30 6 1 6 7
M  V30 7 1 7 8
M  V30 8 1 8 9
M  V30 9 1 9 10
M  V30 10 2 10 11
M  V30 11 1 10 12
M  V30 12 1 12 13
M  V30 13 1 13 14
M  V30 14 1 14 15
M  V30 15 1 15 16
M  V30 16 1 16 17
M  V30 17 2 17 18 CFG=2
M  V30 18 1 17 19
M  V30 19 1 12 20
M  V30 20 1 20 21
M  V30 21 2 21 22
M  V30 22 1 21 23
M  V30 23 1 23 24
M  V30 24 1 24 25
M  V30 25 1 25 26
M  V30 26 1 26 27
M  V30 27 1 27 28
M  V30 28 2 28 29 CFG=2
M  V30 29 1 28 30
M  V30 30 1 23 31
M  V30 31 1 31 32
M  V30 32 2 32 33
M  V30 33 1 32 34
M  V30 34 1 34 35
M  V30 35 1 35 36
M  V30 36 1 36 37
M  V30 37 1 37 38
M  V30 38 1 38 39
M  V30 39 2 39 40 CFG=2
M  V30 40 1 39 41
M  V30 41 1 34 42
M  V30 42 1 42 43
M  V30 43 2 43 44
M  V30 44 1 43 45
M  V30 45 1 45 46
M  V30 46 1 46 47
M  V30 47 1 47 48
M  V30 48 1 48 49
M  V30 49 1 49 50
M  V30 50 2 50 51 CFG=2
M  V30 51 1 50 52
M  V30 52 1 45 53
M  V30 53 1 53 54
M  V30 54 2 54 55
M  V30 55 1 54 56
M  V30 56 1 56 57
M  V30 57 1 57 58
M  V30 58 1 58 59
M  V30 59 1 59 60
M  V30 60 1 60 61
M  V30 61 2 61 62 CFG=2
M  V30 62 1 61 63
M  V30 63 1 56 64
M  V30 64 1 64 65
M  V30 65 2 65 66
M  V30 66 1 65 67
M  V30 67 1 67 68
M  V30 68 1 68 69
M  V30 69 1 69 70
M  V30 70 1 70 71
M  V30 71 1 71 72
M  V30 72 1 72 73
M  V30 73 1 73 74
M  V30 74 1 74 75
M  V30 75 1 75 76
M  V30 76 1 76 77
M  V30 77 1 77 78
M  V30 78 2 78 79
M  V30 79 1 78 80
M  V30 80 1 80 81
M  V30 81 1 81 82
M  V30 82 1 82 83
M  V30 83 1 83 84
M  V30 84 2 84 85
M  V30 85 1 85 86
M  V30 86 2 86 87
M  V30 87 1 87 88
M  V30 88 1 87 89
M  V30 89 2 89 90
M  V30 90 1 90 91
M  V30 91 2 91 92
M  V30 92 1 82 93
M  V30 93 1 93 94
M  V30 94 1 93 95
M  V30 95 1 95 96
M  V30 96 1 8 97
M  V30 97 2 97 98
M  V30 98 1 97 99
M  V30 99 1 95 80
M  V30 100 1 92 83
M  V30 101 1 92 86
M  V30 102 1 1 100
M  V30 103 1 3 101
M  V30 104 1 3 102
M  V30 105 1 4 103
M  V30 106 1 5 104
M  V30 107 1 5 105
M  V30 108 1 6 106
M  V30 109 1 6 107
M  V30 110 1 7 108
M  V30 111 1 7 109
M  V30 112 1 8 110 CFG=3
M  V30 113 1 9 111
M  V30 114 1 12 112 CFG=3
M  V30 115 1 13 113
M  V30 116 1 13 114
M  V30 117 1 14 115
M  V30 118 1 14 116
M  V30 119 1 15 117
M  V30 120 1 15 118
M  V30 121 1 16 119
M  V30 122 1 18 120
M  V30 123 1 19 121
M  V30 124 1 19 122
M  V30 125 1 20 123
M  V30 126 1 23 124 CFG=1
M  V30 127 1 24 125
M  V30 128 1 24 126
M  V30 129 1 25 127
M  V30 130 1 25 128
M  V30 131 1 26 129
M  V30 132 1 26 130
M  V30 133 1 27 131
M  V30 134 1 29 132
M  V30 135 1 30 133
M  V30 136 1 30 134
M  V30 137 1 31 135
M  V30 138 1 34 136 CFG=1
M  V30 139 1 35 137
M  V30 140 1 35 138
M  V30 141 1 36 139
M  V30 142 1 36 140
M  V30 143 1 37 141
M  V30 144 1 37 142
M  V30 145 1 38 143
M  V30 146 1 40 144
M  V30 147 1 41 145
M  V30 148 1 41 146
M  V30 149 1 42 147
M  V30 150 1 45 148 CFG=3
M  V30 151 1 46 149
M  V30 152 1 46 150
M  V30 153 1 47 151
M  V30 154 1 47 152
M  V30 155 1 48 153
M  V30 156 1 48 154
M  V30 157 1 49 155
M  V30 158 1 51 156
M  V30 159 1 52 157
M  V30 160 1 52 158
M  V30 161 1 53 159
M  V30 162 1 56 160 CFG=3
M  V30 163 1 57 161
M  V30 164 1 57 162
M  V30 165 1 58 163
M  V30 166 1 58 164
M  V30 167 1 59 165
M  V30 168 1 59 166
M  V30 169 1 60 167
M  V30 170 1 62 168
M  V30 171 1 63 169
M  V30 172 1 63 170
M  V30 173 1 64 171
M  V30 174 1 67 172
M  V30 175 1 67 173
M  V30 176 1 68 174
M  V30 177 1 68 175
M  V30 178 1 69 176
M  V30 179 1 69 177
M  V30 180 1 70 178
M  V30 181 1 70 179
M  V30 182 1 71 180
M  V30 183 1 71 181
M  V30 184 1 72 182
M  V30 185 1 72 183
M  V30 186 1 73 184
M  V30 187 1 73 185
M  V30 188 1 74 186
M  V30 189 1 74 187
M  V30 190 1 75 188
M  V30 191 1 75 189
M  V30 192 1 76 190
M  V30 193 1 76 191
M  V30 194 1 77 192
M  V30 195 1 80 193 CFG=1
M  V30 196 1 82 194
M  V30 197 1 84 195
M  V30 198 1 88 196
M  V30 199 1 88 197
M  V30 200 1 90 198
M  V30 201 1 93 199 CFG=3
M  V30 202 1 94 200
M  V30 203 1 95 201 CFG=1
M  V30 204 1 96 202
M  V30 205 1 99 203
M  V30 END BOND
M  V30 END CTAB
M  END
>  <Dataset>  (911) 
ChEMBL_Kinases

>  <Ligand_Instance>  (911) 
nan

>  <PDB_ID>  (911) 
nan

>  <Standardized_SMILES>  (911) 
N=C(N)NCCC[C@@H](NC(=O)[C@@H](CCCNC(=N)N)NC(=O)[C@@H](CCCNC(=N)N)NC(=O)[C@@H](CCCNC(=N)N)NC(=O)[C@@H](CCCNC(=N)N)NC(=O)[C@@H](CCCNC(=N)N)NC(=O)CCCCCCCCCCNC(=O)[C@H]1OC(n2cnc3c(N)ncnc32)[C@H](O)[C@@H]1O)C(=O)O

>  <Name>  (911) 
nan

>  <Pocket>  (911) 
nan

>  <ATP_Site>  (911) 
nan

>  <Peripheral>  (911) 
nan

>  <Num_H_Atoms_ProtBoundConf>  (911) 
nan

>  <Num_Resolved_Atoms>  (911) 
nan

>  <Num_Not_Resolved_Atoms>  (911) 
nan

$$$$
CHEMBL3930861
     RDKit          3D

  0  0  0  0  0  0  0  0  0  0999 V3000
M  V30 BEGIN CTAB
M  V30 COUNTS 29 32 0 0 0
M  V30 BEGIN ATOM
M  V30 1 O -0.281205 -0.329491 4.085552 0
M  V30 2 C 0.660984 -0.300445 3.255022 0
M  V30 3 N 1.901905 -0.111597 3.770901 0
M  V30 4 C 2.811129 -0.101421 2.778567 0
M  V30 5 C 4.179834 0.043955 2.674967 0
M  V30 6 C 4.868778 0.010221 1.479997 0
M  V30 7 C 4.093629 -0.185081 0.331087 0
M  V30 8 Cl 4.854429 -0.245951 -1.240968 0
M  V30 9 C 2.704948 -0.339076 0.366738 0
M  V30 10 C 2.103301 -0.292607 1.592112 0
M  V30 11 N 0.801890 -0.409624 1.917314 0
M  V30 12 C -0.357248 -0.615819 1.116846 0
M  V30 13 N -1.572312 -0.019302 1.260716 0
M  V30 14 C -2.422256 -0.461891 0.321311 0
M  V30 15 C -3.756279 -0.180556 0.027391 0
M  V30 16 C -4.378113 -0.802222 -1.020186 0
M  V30 17 C -3.651633 -1.708127 -1.770550 0
M  V30 18 C -2.331819 -2.031340 -1.534035 0
M  V30 19 C -1.743973 -1.373502 -0.458869 0
M  V30 20 N -0.506164 -1.434869 0.055367 0
M  V30 21 H 2.249540 0.020798 4.765135 0
M  V30 22 H 4.743447 0.194910 3.606067 0
M  V30 23 H 5.940200 0.124564 1.404685 0
M  V30 24 H 2.134033 -0.486838 -0.521407 0
M  V30 25 H -4.228288 0.545880 0.681655 0
M  V30 26 H -5.412494 -0.558917 -1.217656 0
M  V30 27 H -4.141376 -2.203224 -2.602237 0
M  V30 28 H -1.794402 -2.745860 -2.142785 0
M  V30 29 H 0.252412 -2.054968 -0.334044 0
M  V30 END ATOM
M  V30 BEGIN BOND
M  V30 1 2 1 2
M  V30 2 1 2 3
M  V30 3 1 3 4
M  V30 4 2 4 5
M  V30 5 1 5 6
M  V30 6 2 6 7
M  V30 7 1 7 8
M  V30 8 1 7 9
M  V30 9 2 9 10
M  V30 10 1 10 11
M  V30 11 1 11 12
M  V30 12 2 12 13
M  V30 13 1 13 14
M  V30 14 2 14 15
M  V30 15 1 15 16
M  V30 16 2 16 17
M  V30 17 1 17 18
M  V30 18 2 18 19
M  V30 19 1 19 20
M  V30 20 1 11 2
M  V30 21 1 20 12
M  V30 22 1 10 4
M  V30 23 1 19 14
M  V30 24 1 3 21
M  V30 25 1 5 22
M  V30 26 1 6 23
M  V30 27 1 9 24
M  V30 28 1 15 25
M  V30 29 1 16 26
M  V30 30 1 17 27
M  V30 31 1 18 28
M  V30 32 1 20 29
M  V30 END BOND
M  V30 END CTAB
M  END
>  <Dataset>  (912) 
ChEMBL_Kinases

>  <Ligand_Instance>  (912) 
nan

>  <PDB_ID>  (912) 
nan

>  <Standardized_SMILES>  (912) 
O=c1[nH]c2ccc(Cl)cc2n1-c1nc2ccccc2[nH]1

>  <Name>  (912) 
nan

>  <Pocket>  (912) 
nan

>  <ATP_Site>  (912) 
nan

>  <Peripheral>  (912) 
nan

>  <Num_H_Atoms_ProtBoundConf>  (912) 
nan

>  <Num_Resolved_Atoms>  (912) 
nan

>  <Num_Not_Resolved_Atoms>  (912) 
nan

$$$$
CHEMBL3930812
     RDKit          3D

  0  0  0  0  0  0  0  0  0  0999 V3000
M  V30 BEGIN CTAB
M  V30 COUNTS 46 49 0 0 0
M  V30 BEGIN ATOM
M  V30 1 C 5.517891 -2.077907 0.861225 0
M  V30 2 O 4.845547 -0.957916 0.335641 0
M  V30 3 C 4.642042 -0.900700 -1.035123 0
M  V30 4 C 5.089032 -1.920968 -1.874518 0
M  V30 5 C 4.865330 -1.827064 -3.250834 0
M  V30 6 C 4.203792 -0.725266 -3.769853 0
M  V30 7 C 3.779616 0.258723 -2.904010 0
M  V30 8 C 3.985337 0.198274 -1.524767 0
M  V30 9 C 3.462704 1.340606 -0.751189 0
M  V30 10 C 2.202469 0.976218 -0.061872 0
M  V30 11 C 2.020124 0.484774 1.212453 0
M  V30 12 C 0.758772 0.195619 1.691722 0
M  V30 13 C -0.360843 0.396855 0.890469 0
M  V30 14 C -1.709358 0.102539 1.369719 0
M  V30 15 N -1.961431 -0.381188 2.616030 0
M  V30 16 C -3.303649 -0.544792 2.751616 0
M  V30 17 C -4.041173 -1.003293 3.821390 0
M  V30 18 C -5.394553 -1.018388 3.557971 0
M  V30 19 C -6.274580 -1.481016 4.615510 0
M  V30 20 N -5.795192 -1.915303 5.881594 0
M  V30 21 O -7.350523 -1.757638 5.135214 0
M  V30 22 C -6.010944 -0.634724 2.384982 0
M  V30 23 C -5.227816 -0.184699 1.347249 0
M  V30 24 C -3.866644 -0.149359 1.558049 0
M  V30 25 N -2.878857 0.239655 0.734292 0
M  V30 26 C -0.202856 0.892691 -0.401560 0
M  V30 27 C 1.078747 1.179799 -0.870506 0
M  V30 28 H 6.580050 -2.035717 0.503577 0
M  V30 29 H 5.498773 -2.023689 1.976423 0
M  V30 30 H 5.107714 -3.043012 0.496131 0
M  V30 31 H 5.600353 -2.769352 -1.465910 0
M  V30 32 H 5.221961 -2.630907 -3.880841 0
M  V30 33 H 4.021530 -0.636403 -4.839992 0
M  V30 34 H 3.268487 1.096268 -3.358095 0
M  V30 35 H 3.338928 2.251885 -1.371557 0
M  V30 36 H 4.271325 1.600005 -0.016605 0
M  V30 37 H 2.930062 0.357936 1.770669 0
M  V30 38 H 0.660263 -0.187504 2.696468 0
M  V30 39 H -3.648709 -1.318055 4.757490 0
M  V30 40 H -5.242191 -2.481803 6.528123 0
M  V30 41 H -5.117731 -2.645898 6.202074 0
M  V30 42 H -7.079731 -0.692519 2.298522 0
M  V30 43 H -5.644369 0.123235 0.422744 0
M  V30 44 H -2.959681 0.601202 -0.258119 0
M  V30 45 H -1.088434 1.039507 -1.003003 0
M  V30 46 H 1.096714 1.562817 -1.891092 0
M  V30 END ATOM
M  V30 BEGIN BOND
M  V30 1 1 1 2
M  V30 2 1 2 3
M  V30 3 2 3 4
M  V30 4 1 4 5
M  V30 5 2 5 6
M  V30 6 1 6 7
M  V30 7 2 7 8
M  V30 8 1 8 9
M  V30 9 1 9 10
M  V30 10 2 10 11
M  V30 11 1 11 12
M  V30 12 2 12 13
M  V30 13 1 13 14
M  V30 14 2 14 15
M  V30 15 1 15 16
M  V30 16 2 16 17
M  V30 17 1 17 18
M  V30 18 1 18 19
M  V30 19 1 19 20
M  V30 20 2 19 21
M  V30 21 2 18 22
M  V30 22 1 22 23
M  V30 23 2 23 24
M  V30 24 1 24 25
M  V30 25 1 13 26
M  V30 26 2 26 27
M  V30 27 1 8 3
M  V30 28 1 27 10
M  V30 29 1 25 14
M  V30 30 1 24 16
M  V30 31 1 1 28
M  V30 32 1 1 29
M  V30 33 1 1 30
M  V30 34 1 4 31
M  V30 35 1 5 32
M  V30 36 1 6 33
M  V30 37 1 7 34
M  V30 38 1 9 35
M  V30 39 1 9 36
M  V30 40 1 11 37
M  V30 41 1 12 38
M  V30 42 1 17 39
M  V30 43 1 20 40
M  V30 44 1 20 41
M  V30 45 1 22 42
M  V30 46 1 23 43
M  V30 47 1 25 44
M  V30 48 1 26 45
M  V30 49 1 27 46
M  V30 END BOND
M  V30 END CTAB
M  END
>  <Dataset>  (913) 
ChEMBL_Kinases

>  <Ligand_Instance>  (913) 
nan

>  <PDB_ID>  (913) 
nan

>  <Standardized_SMILES>  (913) 
COc1ccccc1Cc1ccc(-c2nc3cc(C(N)=O)ccc3[nH]2)cc1

>  <Name>  (913) 
nan

>  <Pocket>  (913) 
nan

>  <ATP_Site>  (913) 
nan

>  <Peripheral>  (913) 
nan

>  <Num_H_Atoms_ProtBoundConf>  (913) 
nan

>  <Num_Resolved_Atoms>  (913) 
nan

>  <Num_Not_Resolved_Atoms>  (913) 
nan

$$$$
CHEMBL3930674
     RDKit          3D

  0  0  0  0  0  0  0  0  0  0999 V3000
M  V30 BEGIN CTAB
M  V30 COUNTS 68 74 0 0 0
M  V30 BEGIN ATOM
M  V30 1 C 2.983935 0.496865 4.051565 0
M  V30 2 O 2.969906 1.195309 2.796192 0
M  V30 3 C 4.038946 1.095970 1.950792 0
M  V30 4 C 5.221493 0.372490 2.140000 0
M  V30 5 C 6.239424 0.348745 1.205336 0
M  V30 6 C 6.091718 1.071026 0.023307 0
M  V30 7 F 7.111921 1.036122 -0.887064 0
M  V30 8 C 4.927555 1.783408 -0.163315 0
M  V30 9 C 3.902353 1.806207 0.780652 0
M  V30 10 C 2.804094 2.647900 0.321855 0
M  V30 11 C 2.763570 4.023197 0.519530 0
M  V30 12 C 1.723736 4.792797 0.053326 0
M  V30 13 N 0.724676 4.206912 -0.607143 0
M  V30 14 C 0.696537 2.865014 -0.837829 0
M  V30 15 N -0.208537 2.079755 -1.471585 0
M  V30 16 C 0.215583 0.799649 -1.431362 0
M  V30 17 C -0.467495 -0.355263 -2.004997 0
M  V30 18 C -1.594346 -0.234971 -2.683009 0
M  V30 19 C -2.517377 -1.383269 -2.884384 0
M  V30 20 C -2.121098 -2.049896 -4.175958 0
M  V30 21 C -0.883966 -2.818791 -3.788903 0
M  V30 22 C -0.877486 -2.790369 -2.252410 0
M  V30 23 C 0.063967 -1.715778 -1.841927 0
M  V30 24 N -2.240269 -2.426034 -1.916177 0
M  V30 25 C -3.268384 -2.795759 -0.969084 0
M  V30 26 O -4.440452 -2.284016 -0.917890 0
M  V30 27 C -3.208780 -3.801885 0.106206 0
M  V30 28 N -3.117683 -3.179086 1.428532 0
M  V30 29 C -4.243597 -2.899532 2.122816 0
M  V30 30 O -5.562175 -3.138522 1.742022 0
M  V30 31 C -6.632460 -2.782997 2.592469 0
M  V30 32 C -3.951933 -2.308326 3.343019 0
M  V30 33 C -2.578156 -2.236671 3.365736 0
M  V30 34 C -1.642136 -1.761316 4.276228 0
M  V30 35 C -0.305475 -1.837385 3.986840 0
M  V30 36 C 0.137873 -2.386213 2.788561 0
M  V30 37 N -0.773127 -2.846433 1.908094 0
M  V30 38 C -2.083985 -2.775142 2.184232 0
M  V30 39 C 1.418960 0.762472 -0.758011 0
M  V30 40 C 1.738491 2.062832 -0.375227 0
M  V30 41 H 3.395093 -0.529391 3.909787 0
M  V30 42 H 3.567588 0.994926 4.823647 0
M  V30 43 H 1.932538 0.344988 4.384594 0
M  V30 44 H 5.274010 -0.169711 3.082096 0
M  V30 45 H 7.129995 -0.227307 1.404822 0
M  V30 46 H 4.927904 2.312132 -1.130785 0
M  V30 47 H 3.620128 4.387287 1.064086 0
M  V30 48 H 1.819163 5.844208 0.276104 0
M  V30 49 H -1.099970 2.358383 -1.931622 0
M  V30 50 H -1.861774 0.739575 -3.111824 0
M  V30 51 H -3.579554 -1.053667 -2.893798 0
M  V30 52 H -2.876226 -2.791946 -4.499502 0
M  V30 53 H -1.918276 -1.284272 -4.953226 0
M  V30 54 H -0.865919 -3.863068 -4.155418 0
M  V30 55 H 0.007815 -2.266960 -4.201756 0
M  V30 56 H -0.577967 -3.761499 -1.818365 0
M  V30 57 H 1.019225 -1.750158 -2.422452 0
M  V30 58 H 0.370318 -1.836660 -0.761621 0
M  V30 59 H -4.038110 -4.498910 0.090946 0
M  V30 60 H -2.283419 -4.422029 -0.020761 0
M  V30 61 H -6.942723 -3.699332 3.149506 0
M  V30 62 H -6.383543 -1.978608 3.284724 0
M  V30 63 H -7.507820 -2.455464 1.981669 0
M  V30 64 H -4.548150 -1.944985 4.165342 0
M  V30 65 H -2.028841 -1.336639 5.208503 0
M  V30 66 H 0.339554 -1.433717 4.774418 0
M  V30 67 H 1.205972 -2.395388 2.662567 0
M  V30 68 H 2.029951 -0.101666 -0.547953 0
M  V30 END ATOM
M  V30 BEGIN BOND
M  V30 1 1 1 2
M  V30 2 1 2 3
M  V30 3 2 3 4
M  V30 4 1 4 5
M  V30 5 2 5 6
M  V30 6 1 6 7
M  V30 7 1 6 8
M  V30 8 2 8 9
M  V30 9 1 9 10
M  V30 10 2 10 11
M  V30 11 1 11 12
M  V30 12 2 12 13
M  V30 13 1 13 14
M  V30 14 1 14 15
M  V30 15 1 15 16
M  V30 16 1 16 17
M  V30 17 2 17 18
M  V30 18 1 18 19
M  V30 19 1 19 20
M  V30 20 1 20 21
M  V30 21 1 21 22
M  V30 22 1 22 23
M  V30 23 1 22 24
M  V30 24 1 24 25
M  V30 25 2 25 26
M  V30 26 1 25 27
M  V30 27 1 27 28
M  V30 28 1 28 29
M  V30 29 1 29 30
M  V30 30 1 30 31
M  V30 31 2 29 32
M  V30 32 1 32 33
M  V30 33 2 33 34
M  V30 34 1 34 35
M  V30 35 2 35 36
M  V30 36 1 36 37
M  V30 37 2 37 38
M  V30 38 2 16 39
M  V30 39 1 39 40
M  V30 40 1 9 3
M  V30 41 1 40 10
M  V30 42 2 40 14
M  V30 43 1 23 17
M  V30 44 1 38 28
M  V30 45 1 24 19
M  V30 46 1 38 33
M  V30 47 1 1 41
M  V30 48 1 1 42
M  V30 49 1 1 43
M  V30 50 1 4 44
M  V30 51 1 5 45
M  V30 52 1 8 46
M  V30 53 1 11 47
M  V30 54 1 12 48
M  V30 55 1 15 49
M  V30 56 1 18 50
M  V30 57 1 19 51
M  V30 58 1 20 52
M  V30 59 1 20 53
M  V30 60 1 21 54
M  V30 61 1 21 55
M  V30 62 1 22 56
M  V30 63 1 23 57
M  V30 64 1 23 58
M  V30 65 1 27 59
M  V30 66 1 27 60
M  V30 67 1 31 61
M  V30 68 1 31 62
M  V30 69 1 31 63
M  V30 70 1 32 64
M  V30 71 1 34 65
M  V30 72 1 35 66
M  V30 73 1 36 67
M  V30 74 1 39 68
M  V30 END BOND
M  V30 END CTAB
M  END
>  <Dataset>  (914) 
ChEMBL_Kinases

>  <Ligand_Instance>  (914) 
nan

>  <PDB_ID>  (914) 
nan

>  <Standardized_SMILES>  (914) 
COc1ccc(F)cc1-c1ccnc2[nH]c(C3=CC4CCC(C3)N4C(=O)Cn3c(OC)cc4cccnc43)cc12

>  <Name>  (914) 
nan

>  <Pocket>  (914) 
nan

>  <ATP_Site>  (914) 
nan

>  <Peripheral>  (914) 
nan

>  <Num_H_Atoms_ProtBoundConf>  (914) 
nan

>  <Num_Resolved_Atoms>  (914) 
nan

>  <Num_Not_Resolved_Atoms>  (914) 
nan

$$$$
CHEMBL393157
     RDKit          3D

  0  0  0  0  0  0  0  0  0  0999 V3000
M  V30 BEGIN CTAB
M  V30 COUNTS 47 50 0 0 0
M  V30 BEGIN ATOM
M  V30 1 O 0.869834 -1.409460 3.606462 0
M  V30 2 C 0.527242 -1.259638 2.380724 0
M  V30 3 N 1.248786 -0.398078 1.577101 0
M  V30 4 C 0.896047 -0.259982 0.365121 0
M  V30 5 N 1.571915 0.604958 -0.558371 0
M  V30 6 C 2.235931 1.801036 -0.135386 0 CFG=1
M  V30 7 C 1.167407 2.688262 0.483766 0
M  V30 8 O 0.181715 2.955709 -0.498804 0
M  V30 9 C 3.395982 1.656887 0.759309 0
M  V30 10 C 3.959447 2.992085 1.087454 0
M  V30 11 C 4.931733 3.492674 0.213240 0
M  V30 12 C 5.502339 4.725656 0.460255 0
M  V30 13 C 5.152700 5.485598 1.535205 0
M  V30 14 C 4.187618 5.000813 2.412661 0
M  V30 15 C 3.607143 3.754854 2.168270 0
M  V30 16 S -0.552245 -1.297380 0.034262 0
M  V30 17 C -0.581208 -1.921637 1.713908 0
M  V30 18 C -1.405211 -2.798209 2.262187 0
M  V30 19 C -2.484684 -3.393093 1.478108 0
M  V30 20 C -3.226653 -2.679196 0.563061 0
M  V30 21 C -4.240193 -3.234388 -0.181687 0
M  V30 22 C -4.567699 -4.574989 -0.038793 0
M  V30 23 N -5.552333 -5.107244 -0.765091 0
M  V30 24 C -5.914206 -6.398534 -0.670620 0
M  V30 25 C -5.194122 -7.172878 0.244277 0
M  V30 26 C -4.172555 -6.620783 0.997700 0
M  V30 27 C -3.830096 -5.279307 0.868869 0
M  V30 28 C -2.810360 -4.746877 1.626983 0
M  V30 29 H 1.549645 0.302791 -1.582809 0
M  V30 30 H 2.561216 2.341560 -1.046598 0
M  V30 31 H 0.633525 2.183103 1.325707 0
M  V30 32 H 1.550715 3.651231 0.854593 0
M  V30 33 H -0.485015 2.232400 -0.492535 0
M  V30 34 H 4.227629 1.066415 0.325834 0
M  V30 35 H 3.209099 1.169637 1.730368 0
M  V30 36 H 5.264759 2.944558 -0.667617 0
M  V30 37 H 6.261018 5.175850 -0.171532 0
M  V30 38 H 5.498959 6.449710 1.859366 0
M  V30 39 H 3.816099 5.507173 3.310734 0
M  V30 40 H 2.843940 3.354527 2.849078 0
M  V30 41 H -1.265354 -3.069994 3.309766 0
M  V30 42 H -3.039044 -1.629328 0.391070 0
M  V30 43 H -4.809215 -2.655261 -0.893960 0
M  V30 44 H -6.718701 -6.709067 -1.304713 0
M  V30 45 H -5.490330 -8.206035 0.313328 0
M  V30 46 H -3.656771 -7.286280 1.689344 0
M  V30 47 H -2.266364 -5.374122 2.331998 0
M  V30 END ATOM
M  V30 BEGIN BOND
M  V30 1 2 1 2
M  V30 2 1 2 3
M  V30 3 2 3 4
M  V30 4 1 4 5
M  V30 5 1 5 6
M  V30 6 1 6 7
M  V30 7 1 7 8
M  V30 8 1 6 9
M  V30 9 1 9 10
M  V30 10 2 10 11
M  V30 11 1 11 12
M  V30 12 2 12 13
M  V30 13 1 13 14
M  V30 14 2 14 15
M  V30 15 1 4 16
M  V30 16 1 16 17
M  V30 17 2 17 18
M  V30 18 1 18 19
M  V30 19 2 19 20
M  V30 20 1 20 21
M  V30 21 2 21 22
M  V30 22 1 22 23
M  V30 23 2 23 24
M  V30 24 1 24 25
M  V30 25 2 25 26
M  V30 26 1 26 27
M  V30 27 2 27 28
M  V30 28 1 17 2
M  V30 29 1 28 19
M  V30 30 1 15 10
M  V30 31 1 27 22
M  V30 32 1 5 29
M  V30 33 1 6 30 CFG=3
M  V30 34 1 7 31
M  V30 35 1 7 32
M  V30 36 1 8 33
M  V30 37 1 9 34
M  V30 38 1 9 35
M  V30 39 1 11 36
M  V30 40 1 12 37
M  V30 41 1 13 38
M  V30 42 1 14 39
M  V30 43 1 15 40
M  V30 44 1 18 41
M  V30 45 1 20 42
M  V30 46 1 21 43
M  V30 47 1 24 44
M  V30 48 1 25 45
M  V30 49 1 26 46
M  V30 50 1 28 47
M  V30 END BOND
M  V30 END CTAB
M  END
>  <Dataset>  (915) 
ChEMBL_Kinases

>  <Ligand_Instance>  (915) 
nan

>  <PDB_ID>  (915) 
nan

>  <Standardized_SMILES>  (915) 
O=C1N=C(N[C@@H](CO)Cc2ccccc2)S/C1=C\c1ccc2ncccc2c1

>  <Name>  (915) 
nan

>  <Pocket>  (915) 
nan

>  <ATP_Site>  (915) 
nan

>  <Peripheral>  (915) 
nan

>  <Num_H_Atoms_ProtBoundConf>  (915) 
nan

>  <Num_Resolved_Atoms>  (915) 
nan

>  <Num_Not_Resolved_Atoms>  (915) 
nan

$$$$
CHEMBL4875968
     RDKit          3D

  0  0  0  0  0  0  0  0  0  0999 V3000
M  V30 BEGIN CTAB
M  V30 COUNTS 53 57 0 0 0
M  V30 BEGIN ATOM
M  V30 1 C 4.943850 -7.064230 2.607949 0
M  V30 2 S 4.171720 -6.981398 0.977611 0
M  V30 3 C 2.671989 -6.026002 0.974581 0
M  V30 4 N 2.790934 -4.722547 0.734803 0
M  V30 5 C 1.541641 -4.162316 0.773259 0
M  V30 6 C 1.183128 -2.795202 0.575566 0
M  V30 7 O 0.511273 -1.746123 0.467024 0
M  V30 8 N 2.351083 -1.965434 0.304865 0
M  V30 9 C 2.118074 -0.551499 0.085455 0
M  V30 10 C 2.146745 0.281193 1.189117 0
M  V30 11 C 1.926784 1.635626 1.000293 0
M  V30 12 C 1.686918 2.090252 -0.298477 0
M  V30 13 O 1.469087 3.469672 -0.444619 0
M  V30 14 C 0.203027 4.020294 -0.360651 0
M  V30 15 C -0.856582 3.163020 -0.124468 0
M  V30 16 C -2.102773 3.763908 -0.049208 0
M  V30 17 C -3.311742 3.138748 0.175844 0
M  V30 18 N -4.225076 4.128327 0.161801 0
M  V30 19 N -3.635116 5.301285 -0.057253 0
M  V30 20 C -4.289551 6.607832 -0.142501 0
M  V30 21 C -2.309225 5.131208 -0.196295 0
M  V30 22 C -1.192567 5.933844 -0.432535 0
M  V30 23 C 0.088489 5.385488 -0.518617 0
M  V30 24 Br 1.587218 6.517229 -0.842626 0
M  V30 25 C 1.659359 1.252577 -1.399164 0
M  V30 26 C 1.880176 -0.095366 -1.197222 0
M  V30 27 C 0.671742 -5.183474 1.045637 0
M  V30 28 C -0.752999 -5.299893 1.221021 0
M  V30 29 C -1.695304 -4.312187 1.144991 0
M  V30 30 C -3.038758 -4.432337 1.313788 0
M  V30 31 C -3.573031 -5.669089 1.596498 0
M  V30 32 F -4.885505 -5.899333 1.782010 0
M  V30 33 C -2.687301 -6.715678 1.689375 0
M  V30 34 C -1.342291 -6.513622 1.505562 0
M  V30 35 O 1.427162 -6.239331 1.147173 0
M  V30 36 H 5.717258 -7.877898 2.544940 0
M  V30 37 H 4.213093 -7.411065 3.376827 0
M  V30 38 H 5.456863 -6.139620 2.909954 0
M  V30 39 H 3.393077 -2.197593 0.231614 0
M  V30 40 H 2.332445 -0.068008 2.198569 0
M  V30 41 H 1.946512 2.291797 1.848900 0
M  V30 42 H -0.707974 2.114513 -0.010460 0
M  V30 43 H -3.523744 2.074341 0.335536 0
M  V30 44 H -4.149422 7.082018 -1.133994 0
M  V30 45 H -3.863069 7.326773 0.592097 0
M  V30 46 H -5.381101 6.500148 0.052442 0
M  V30 47 H -1.376823 7.009512 -0.545633 0
M  V30 48 H 1.466447 1.663658 -2.395333 0
M  V30 49 H 1.869037 -0.797260 -2.031274 0
M  V30 50 H -1.398626 -3.308615 0.929893 0
M  V30 51 H -3.731776 -3.609197 1.240399 0
M  V30 52 H -3.074429 -7.685982 1.907913 0
M  V30 53 H -0.734281 -7.426948 1.604626 0
M  V30 END ATOM
M  V30 BEGIN BOND
M  V30 1 1 1 2
M  V30 2 1 2 3
M  V30 3 2 3 4
M  V30 4 1 4 5
M  V30 5 1 5 6
M  V30 6 2 6 7
M  V30 7 1 6 8
M  V30 8 1 8 9
M  V30 9 2 9 10
M  V30 10 1 10 11
M  V30 11 2 11 12
M  V30 12 1 12 13
M  V30 13 1 13 14
M  V30 14 2 14 15
M  V30 15 1 15 16
M  V30 16 1 16 17
M  V30 17 2 17 18
M  V30 18 1 18 19
M  V30 19 1 19 20
M  V30 20 1 19 21
M  V30 21 1 21 22
M  V30 22 2 22 23
M  V30 23 1 23 24
M  V30 24 1 12 25
M  V30 25 2 25 26
M  V30 26 2 5 27
M  V30 27 1 27 28
M  V30 28 2 28 29
M  V30 29 1 29 30
M  V30 30 2 30 31
M  V30 31 1 31 32
M  V30 32 1 31 33
M  V30 33 2 33 34
M  V30 34 1 27 35
M  V30 35 1 35 3
M  V30 36 1 26 9
M  V30 37 1 34 28
M  V30 38 1 23 14
M  V30 39 2 21 16
M  V30 40 1 1 36
M  V30 41 1 1 37
M  V30 42 1 1 38
M  V30 43 1 8 39
M  V30 44 1 10 40
M  V30 45 1 11 41
M  V30 46 1 15 42
M  V30 47 1 17 43
M  V30 48 1 20 44
M  V30 49 1 20 45
M  V30 50 1 20 46
M  V30 51 1 22 47
M  V30 52 1 25 48
M  V30 53 1 26 49
M  V30 54 1 29 50
M  V30 55 1 30 51
M  V30 56 1 33 52
M  V30 57 1 34 53
M  V30 END BOND
M  V30 END CTAB
M  END
>  <Dataset>  (916) 
ChEMBL_Kinases

>  <Ligand_Instance>  (916) 
nan

>  <PDB_ID>  (916) 
nan

>  <Standardized_SMILES>  (916) 
CSc1nc(C(=O)Nc2ccc(Oc3cc4cnn(C)c4cc3Br)cc2)c(-c2ccc(F)cc2)o1

>  <Name>  (916) 
nan

>  <Pocket>  (916) 
nan

>  <ATP_Site>  (916) 
nan

>  <Peripheral>  (916) 
nan

>  <Num_H_Atoms_ProtBoundConf>  (916) 
nan

>  <Num_Resolved_Atoms>  (916) 
nan

>  <Num_Not_Resolved_Atoms>  (916) 
nan

$$$$
CHEMBL633
     RDKit          3D

  0  0  0  0  0  0  0  0  0  0999 V3000
M  V30 BEGIN CTAB
M  V30 COUNTS 60 62 0 0 0
M  V30 BEGIN ATOM
M  V30 1 C 2.410968 1.510689 5.081896 0
M  V30 2 C 1.903039 2.912004 5.180539 0
M  V30 3 C 1.109800 3.409093 4.021735 0
M  V30 4 C 1.797076 3.453740 2.706084 0
M  V30 5 C 2.286258 2.193159 2.163651 0
M  V30 6 O 3.558800 1.850410 2.193948 0
M  V30 7 C 3.779828 0.689389 1.657467 0
M  V30 8 C 4.979379 0.030806 1.518316 0
M  V30 9 C 4.962952 -1.210971 0.900005 0
M  V30 10 C 3.739488 -1.717102 0.457256 0
M  V30 11 C 2.578290 -1.001995 0.631009 0
M  V30 12 C 2.557289 0.224504 1.238106 0
M  V30 13 C 1.591929 1.153459 1.545068 0
M  V30 14 C 0.189533 1.147161 1.293260 0
M  V30 15 O -0.296891 2.333305 1.271666 0
M  V30 16 C -0.827286 0.165822 1.058765 0
M  V30 17 C -0.758097 -1.145083 1.542719 0
M  V30 18 C -1.749430 -2.094870 1.283193 0
M  V30 19 I -1.338335 -3.977703 2.159578 0
M  V30 20 C -2.864162 -1.760033 0.517209 0
M  V30 21 O -3.661243 -2.849077 0.419251 0
M  V30 22 C -3.675060 -3.918028 -0.448833 0
M  V30 23 C -3.846888 -3.643374 -1.906102 0
M  V30 24 N -2.847412 -2.828927 -2.510698 0
M  V30 25 C -3.091935 -2.623387 -3.925923 0
M  V30 26 C -2.017452 -1.742786 -4.515731 0
M  V30 27 C -1.501627 -3.308805 -2.309632 0
M  V30 28 C -1.181622 -4.584498 -3.004321 0
M  V30 29 C -2.937198 -0.471575 0.040351 0
M  V30 30 I -4.654208 -0.025043 -1.057781 0
M  V30 31 C -1.948228 0.437888 0.311137 0
M  V30 32 H 3.508714 1.435218 4.881442 0
M  V30 33 H 1.781625 0.954657 4.375608 0
M  V30 34 H 2.286543 1.010649 6.096004 0
M  V30 35 H 1.220595 3.000990 6.080330 0
M  V30 36 H 2.739854 3.617551 5.436964 0
M  V30 37 H 0.208426 2.748719 3.931680 0
M  V30 38 H 0.699773 4.406894 4.303216 0
M  V30 39 H 2.679930 4.155190 2.827577 0
M  V30 40 H 1.170472 3.983575 1.949341 0
M  V30 41 H 5.928804 0.401215 1.851082 0
M  V30 42 H 5.877505 -1.786680 0.757198 0
M  V30 43 H 3.686526 -2.696433 -0.036127 0
M  V30 44 H 1.663600 -1.402316 0.270685 0
M  V30 45 H 0.137016 -1.329652 2.133092 0
M  V30 46 H -4.472727 -4.648596 -0.098117 0
M  V30 47 H -2.733128 -4.543923 -0.322939 0
M  V30 48 H -3.987368 -4.625345 -2.416759 0
M  V30 49 H -4.840997 -3.131492 -2.048462 0
M  V30 50 H -3.036644 -3.595398 -4.488665 0
M  V30 51 H -4.100375 -2.200971 -4.039616 0
M  V30 52 H -1.106104 -2.273140 -4.790366 0
M  V30 53 H -2.486572 -1.218483 -5.400935 0
M  V30 54 H -1.739767 -0.923311 -3.813405 0
M  V30 55 H -0.816897 -2.515293 -2.671545 0
M  V30 56 H -1.255413 -3.428590 -1.235689 0
M  V30 57 H -0.616996 -5.311564 -2.357000 0
M  V30 58 H -2.070838 -5.072683 -3.456322 0
M  V30 59 H -0.488513 -4.378138 -3.842804 0
M  V30 60 H -2.127924 1.414216 -0.123786 0
M  V30 END ATOM
M  V30 BEGIN BOND
M  V30 1 1 1 2
M  V30 2 1 2 3
M  V30 3 1 3 4
M  V30 4 1 4 5
M  V30 5 1 5 6
M  V30 6 1 6 7
M  V30 7 2 7 8
M  V30 8 1 8 9
M  V30 9 2 9 10
M  V30 10 1 10 11
M  V30 11 2 11 12
M  V30 12 1 12 13
M  V30 13 1 13 14
M  V30 14 2 14 15
M  V30 15 1 14 16
M  V30 16 2 16 17
M  V30 17 1 17 18
M  V30 18 1 18 19
M  V30 19 2 18 20
M  V30 20 1 20 21
M  V30 21 1 21 22
M  V30 22 1 22 23
M  V30 23 1 23 24
M  V30 24 1 24 25
M  V30 25 1 25 26
M  V30 26 1 24 27
M  V30 27 1 27 28
M  V30 28 1 20 29
M  V30 29 1 29 30
M  V30 30 2 29 31
M  V30 31 2 13 5
M  V30 32 1 31 16
M  V30 33 1 12 7
M  V30 34 1 1 32
M  V30 35 1 1 33
M  V30 36 1 1 34
M  V30 37 1 2 35
M  V30 38 1 2 36
M  V30 39 1 3 37
M  V30 40 1 3 38
M  V30 41 1 4 39
M  V30 42 1 4 40
M  V30 43 1 8 41
M  V30 44 1 9 42
M  V30 45 1 10 43
M  V30 46 1 11 44
M  V30 47 1 17 45
M  V30 48 1 22 46
M  V30 49 1 22 47
M  V30 50 1 23 48
M  V30 51 1 23 49
M  V30 52 1 25 50
M  V30 53 1 25 51
M  V30 54 1 26 52
M  V30 55 1 26 53
M  V30 56 1 26 54
M  V30 57 1 27 55
M  V30 58 1 27 56
M  V30 59 1 28 57
M  V30 60 1 28 58
M  V30 61 1 28 59
M  V30 62 1 31 60
M  V30 END BOND
M  V30 END CTAB
M  END
>  <Dataset>  (917) 
ChEMBL_Kinases

>  <Ligand_Instance>  (917) 
nan

>  <PDB_ID>  (917) 
nan

>  <Standardized_SMILES>  (917) 
CCCCc1oc2ccccc2c1C(=O)c1cc(I)c(OCCN(CC)CC)c(I)c1

>  <Name>  (917) 
AMIODARONE

>  <Pocket>  (917) 
nan

>  <ATP_Site>  (917) 
nan

>  <Peripheral>  (917) 
nan

>  <Num_H_Atoms_ProtBoundConf>  (917) 
nan

>  <Num_Resolved_Atoms>  (917) 
nan

>  <Num_Not_Resolved_Atoms>  (917) 
nan

$$$$
CHEMBL63
     RDKit          3D

  0  0  0  0  0  0  0  0  0  0999 V3000
M  V30 BEGIN CTAB
M  V30 COUNTS 41 43 0 0 0
M  V30 BEGIN ATOM
M  V30 1 C 1.440049 1.098563 4.580754 0
M  V30 2 O 0.822582 0.730058 3.366558 0
M  V30 3 C 1.357254 -0.146294 2.440847 0
M  V30 4 C 2.571465 -0.738708 2.650230 0
M  V30 5 C 3.055605 -1.596136 1.706312 0
M  V30 6 C 2.309411 -1.839148 0.573606 0
M  V30 7 C 2.873596 -2.786502 -0.440494 0
M  V30 8 C 3.115556 -2.112473 -1.775528 0
M  V30 9 N 1.851461 -2.218971 -2.435055 0
M  V30 10 C 1.279412 -3.448501 -2.043628 0
M  V30 11 O 0.396737 -4.190001 -2.557139 0
M  V30 12 C 1.892802 -3.873202 -0.777847 0
M  V30 13 C 1.090183 -1.223916 0.397054 0
M  V30 14 C 0.558298 -0.334674 1.346826 0
M  V30 15 O -0.641119 0.147092 0.968944 0
M  V30 16 C -1.544417 1.013916 1.517747 0
M  V30 17 C -2.913750 0.433020 1.768792 0
M  V30 18 C -3.579987 0.642833 0.410246 0
M  V30 19 C -3.293500 2.122571 0.227902 0
M  V30 20 C -1.853291 2.225667 0.668110 0
M  V30 21 H 0.827359 1.929096 5.012110 0
M  V30 22 H 2.511921 1.353171 4.483455 0
M  V30 23 H 1.290231 0.230771 5.285479 0
M  V30 24 H 3.102610 -0.505614 3.555915 0
M  V30 25 H 4.011357 -2.049461 1.892614 0
M  V30 26 H 3.856048 -3.176873 -0.118947 0
M  V30 27 H 3.437382 -1.071005 -1.664411 0
M  V30 28 H 3.852027 -2.729969 -2.336632 0
M  V30 29 H 1.353664 -1.570880 -3.097748 0
M  V30 30 H 1.143332 -3.902266 0.061769 0
M  V30 31 H 2.347562 -4.878929 -0.837493 0
M  V30 32 H 0.596127 -1.501282 -0.545435 0
M  V30 33 H -1.187783 1.392876 2.492842 0
M  V30 34 H -3.439720 1.088235 2.481162 0
M  V30 35 H -2.901976 -0.607288 2.080518 0
M  V30 36 H -3.029021 0.073820 -0.338817 0
M  V30 37 H -4.664149 0.417931 0.430944 0
M  V30 38 H -3.980954 2.641419 0.934615 0
M  V30 39 H -3.460458 2.412694 -0.817016 0
M  V30 40 H -1.719233 3.176618 1.222651 0
M  V30 41 H -1.181837 2.275693 -0.216730 0
M  V30 END ATOM
M  V30 BEGIN BOND
M  V30 1 1 1 2
M  V30 2 1 2 3
M  V30 3 2 3 4
M  V30 4 1 4 5
M  V30 5 2 5 6
M  V30 6 1 6 7
M  V30 7 1 7 8
M  V30 8 1 8 9
M  V30 9 1 9 10
M  V30 10 2 10 11
M  V30 11 1 10 12
M  V30 12 1 6 13
M  V30 13 2 13 14
M  V30 14 1 14 15
M  V30 15 1 15 16
M  V30 16 1 16 17
M  V30 17 1 17 18
M  V30 18 1 18 19
M  V30 19 1 19 20
M  V30 20 1 14 3
M  V30 21 1 20 16
M  V30 22 1 12 7
M  V30 23 1 1 21
M  V30 24 1 1 22
M  V30 25 1 1 23
M  V30 26 1 4 24
M  V30 27 1 5 25
M  V30 28 1 7 26
M  V30 29 1 8 27
M  V30 30 1 8 28
M  V30 31 1 9 29
M  V30 32 1 12 30
M  V30 33 1 12 31
M  V30 34 1 13 32
M  V30 35 1 16 33
M  V30 36 1 17 34
M  V30 37 1 17 35
M  V30 38 1 18 36
M  V30 39 1 18 37
M  V30 40 1 19 38
M  V30 41 1 19 39
M  V30 42 1 20 40
M  V30 43 1 20 41
M  V30 END BOND
M  V30 END CTAB
M  END
>  <Dataset>  (918) 
ChEMBL_Kinases

>  <Ligand_Instance>  (918) 
nan

>  <PDB_ID>  (918) 
nan

>  <Standardized_SMILES>  (918) 
COc1ccc(C2CNC(=O)C2)cc1OC1CCCC1

>  <Name>  (918) 
ROLIPRAM

>  <Pocket>  (918) 
nan

>  <ATP_Site>  (918) 
nan

>  <Peripheral>  (918) 
nan

>  <Num_H_Atoms_ProtBoundConf>  (918) 
nan

>  <Num_Resolved_Atoms>  (918) 
nan

>  <Num_Not_Resolved_Atoms>  (918) 
nan

$$$$
CHEMBL4876045
     RDKit          3D

  0  0  0  0  0  0  0  0  0  0999 V3000
M  V30 BEGIN CTAB
M  V30 COUNTS 44 46 0 0 0
M  V30 BEGIN ATOM
M  V30 1 C -2.971529 -3.587729 -0.827083 0
M  V30 2 O -2.712459 -3.417436 0.543245 0
M  V30 3 C -1.543794 -2.853023 1.033540 0
M  V30 4 C -0.489080 -2.386604 0.273856 0
M  V30 5 C 0.639397 -1.837953 0.849029 0
M  V30 6 N 1.669454 -1.388396 -0.059712 0
M  V30 7 C 1.507389 -0.015857 -0.454364 0
M  V30 8 O 0.448891 0.354096 0.169567 0
M  V30 9 C 2.450393 0.608072 -1.365358 0 CFG=2
M  V30 10 N 3.439290 -0.409101 -1.768399 0
M  V30 11 C 3.152404 1.828522 -0.939498 0
M  V30 12 C 2.195717 2.956011 -0.625143 0
M  V30 13 C 2.926027 4.227663 -0.192949 0
M  V30 14 C 2.100414 4.331386 1.053526 0
M  V30 15 C 1.549487 2.944365 0.724717 0
M  V30 16 C 0.767293 -1.728992 2.222964 0
M  V30 17 C -0.283485 -2.193348 2.988799 0
M  V30 18 C -1.408203 -2.740602 2.403473 0
M  V30 19 C -2.483061 -3.212723 3.268675 0
M  V30 20 C -2.529525 -3.185451 4.640367 0
M  V30 21 N -3.691203 -3.713879 5.067029 0
M  V30 22 C -4.343810 -4.059501 3.942164 0
M  V30 23 O -3.620083 -3.758908 2.875476 0
M  V30 24 H -3.674725 -4.422612 -1.020931 0
M  V30 25 H -1.995282 -3.837896 -1.320888 0
M  V30 26 H -3.302904 -2.616944 -1.239651 0
M  V30 27 H -0.580942 -2.467619 -0.791240 0
M  V30 28 H 2.455654 -2.004448 -0.396025 0
M  V30 29 H 1.889619 0.802416 -2.327957 0
M  V30 30 H 3.026459 -1.177591 -2.309830 0
M  V30 31 H 4.197734 0.052536 -2.318744 0
M  V30 32 H 3.891656 1.705663 -0.140153 0
M  V30 33 H 3.753090 2.218829 -1.814776 0
M  V30 34 H 1.441365 3.137319 -1.416483 0
M  V30 35 H 2.735301 5.029378 -0.921062 0
M  V30 36 H 3.992631 4.047322 0.040292 0
M  V30 37 H 2.678922 4.401348 1.990172 0
M  V30 38 H 1.358319 5.145743 1.040066 0
M  V30 39 H 1.923724 2.246557 1.481597 0
M  V30 40 H 0.426093 3.028817 0.701690 0
M  V30 41 H 1.675831 -1.290285 2.601602 0
M  V30 42 H -0.198927 -2.115373 4.063232 0
M  V30 43 H -1.726116 -2.787944 5.242385 0
M  V30 44 H -5.339541 -4.526650 3.910371 0
M  V30 END ATOM
M  V30 BEGIN BOND
M  V30 1 1 1 2
M  V30 2 1 2 3
M  V30 3 2 3 4
M  V30 4 1 4 5
M  V30 5 1 5 6
M  V30 6 1 6 7
M  V30 7 2 7 8
M  V30 8 1 7 9
M  V30 9 1 9 10
M  V30 10 1 9 11
M  V30 11 1 11 12
M  V30 12 1 12 13
M  V30 13 1 13 14
M  V30 14 1 14 15
M  V30 15 2 5 16
M  V30 16 1 16 17
M  V30 17 2 17 18
M  V30 18 1 18 19
M  V30 19 2 19 20
M  V30 20 1 20 21
M  V30 21 2 21 22
M  V30 22 1 22 23
M  V30 23 1 18 3
M  V30 24 1 23 19
M  V30 25 1 15 12
M  V30 26 1 1 24
M  V30 27 1 1 25
M  V30 28 1 1 26
M  V30 29 1 4 27
M  V30 30 1 6 28
M  V30 31 1 9 29 CFG=3
M  V30 32 1 10 30
M  V30 33 1 10 31
M  V30 34 1 11 32
M  V30 35 1 11 33
M  V30 36 1 12 34
M  V30 37 1 13 35
M  V30 38 1 13 36
M  V30 39 1 14 37
M  V30 40 1 14 38
M  V30 41 1 15 39
M  V30 42 1 15 40
M  V30 43 1 16 41
M  V30 44 1 17 42
M  V30 45 1 20 43
M  V30 46 1 22 44
M  V30 END BOND
M  V30 END CTAB
M  END
>  <Dataset>  (919) 
ChEMBL_Kinases

>  <Ligand_Instance>  (919) 
nan

>  <PDB_ID>  (919) 
nan

>  <Standardized_SMILES>  (919) 
COc1cc(NC(=O)[C@H](N)CC2CCC2)ccc1-c1cnco1

>  <Name>  (919) 
nan

>  <Pocket>  (919) 
nan

>  <ATP_Site>  (919) 
nan

>  <Peripheral>  (919) 
nan

>  <Num_H_Atoms_ProtBoundConf>  (919) 
nan

>  <Num_Resolved_Atoms>  (919) 
nan

>  <Num_Not_Resolved_Atoms>  (919) 
nan

$$$$
CHEMBL3933521
     RDKit          3D

  0  0  0  0  0  0  0  0  0  0999 V3000
M  V30 BEGIN CTAB
M  V30 COUNTS 73 77 0 0 0
M  V30 BEGIN ATOM
M  V30 1 C 3.232770 -3.133209 4.015421 0
M  V30 2 C 3.528659 -1.729747 3.678822 0
M  V30 3 C 4.222921 -0.892399 4.552026 0
M  V30 4 C 4.515727 0.426561 4.274702 0
M  V30 5 N 4.094956 0.920751 3.076150 0
M  V30 6 C 3.422059 0.156648 2.198149 0
M  V30 7 C 2.949118 0.652527 0.901186 0
M  V30 8 O 2.320879 -0.082131 0.075409 0
M  V30 9 N 3.141687 2.000128 0.432657 0
M  V30 10 C 2.528422 2.053570 -0.868036 0
M  V30 11 N 3.007302 1.836573 -2.113850 0
M  V30 12 N 2.038856 2.001527 -2.999302 0
M  V30 13 C 0.887940 2.332080 -2.377266 0
M  V30 14 C 1.196887 2.366553 -1.018279 0
M  V30 15 C -0.076684 2.732613 -0.355391 0
M  V30 16 N -1.030133 2.034122 -1.174779 0
M  V30 17 C -2.070945 1.079726 -1.116736 0
M  V30 18 O -2.714158 0.693240 -2.125784 0
M  V30 19 N -2.636751 0.360316 -0.057931 0
M  V30 20 C -3.701936 -0.560801 -0.395719 0
M  V30 21 C -3.184802 -1.976683 -0.167683 0
M  V30 22 N -2.251900 -2.106132 0.844771 0
M  V30 23 C -1.141671 -2.934211 0.563312 0
M  V30 24 C -1.322195 -4.398356 0.468210 0
M  V30 25 C -2.226672 -4.917868 -0.570779 0
M  V30 26 C -1.631607 -4.816419 -1.974090 0
M  V30 27 O -0.445361 -5.566385 -2.027998 0
M  V30 28 C 0.455549 -4.874526 -1.185619 0
M  V30 29 C 0.051349 -5.031961 0.249410 0
M  V30 30 C -1.915910 -1.054235 1.711352 0
M  V30 31 C -2.410736 0.306024 1.367799 0 CFG=2
M  V30 32 C -3.712165 0.541854 2.139605 0
M  V30 33 C -0.580499 2.682704 -2.390031 0
M  V30 34 C -0.685710 4.165137 -2.389260 0
M  V30 35 C -1.190245 2.093345 -3.643983 0
M  V30 36 C 3.146904 -1.143775 2.499346 0
M  V30 37 H 3.900873 -3.802765 3.437319 0
M  V30 38 H 2.186663 -3.439406 3.806495 0
M  V30 39 H 3.418251 -3.341752 5.096858 0
M  V30 40 H 4.553928 -1.284797 5.497636 0
M  V30 41 H 5.054613 1.066141 4.959994 0
M  V30 42 H 3.637462 2.657012 1.034014 0
M  V30 43 H 2.086989 1.907380 -4.031419 0
M  V30 44 H -0.290666 3.815463 -0.417450 0
M  V30 45 H -0.089613 2.477290 0.713497 0
M  V30 46 H -4.561259 -0.345185 0.281697 0
M  V30 47 H -4.031726 -0.491779 -1.442085 0
M  V30 48 H -4.116517 -2.548230 0.126607 0
M  V30 49 H -2.877811 -2.351189 -1.145684 0
M  V30 50 H -0.710801 -2.534980 -0.423597 0
M  V30 51 H -0.314423 -2.654561 1.280915 0
M  V30 52 H -1.646645 -4.817323 1.463240 0
M  V30 53 H -2.300103 -6.035802 -0.391801 0
M  V30 54 H -3.252311 -4.584673 -0.607649 0
M  V30 55 H -1.348146 -3.787270 -2.229013 0
M  V30 56 H -2.371566 -5.202901 -2.684323 0
M  V30 57 H 0.439989 -3.820160 -1.498702 0
M  V30 58 H 1.491506 -5.238961 -1.358137 0
M  V30 59 H -0.096311 -6.119505 0.469548 0
M  V30 60 H 0.810816 -4.597117 0.900225 0
M  V30 61 H -2.293718 -1.315953 2.734429 0
M  V30 62 H -0.799458 -1.041972 1.851579 0
M  V30 63 H -1.700282 1.060343 1.725257 0
M  V30 64 H -4.307222 1.358213 1.711751 0
M  V30 65 H -3.391924 0.885085 3.166150 0
M  V30 66 H -4.285930 -0.396948 2.293045 0
M  V30 67 H 0.279306 4.700641 -2.150325 0
M  V30 68 H -0.878838 4.477423 -3.459708 0
M  V30 69 H -1.549973 4.539008 -1.834454 0
M  V30 70 H -0.591889 2.509776 -4.482207 0
M  V30 71 H -2.246739 2.347192 -3.690938 0
M  V30 72 H -0.984292 1.006319 -3.642992 0
M  V30 73 H 2.606594 -1.776842 1.807543 0
M  V30 END ATOM
M  V30 BEGIN BOND
M  V30 1 1 1 2
M  V30 2 2 2 3
M  V30 3 1 3 4
M  V30 4 2 4 5
M  V30 5 1 5 6
M  V30 6 1 6 7
M  V30 7 2 7 8
M  V30 8 1 7 9
M  V30 9 1 9 10
M  V30 10 2 10 11
M  V30 11 1 11 12
M  V30 12 1 12 13
M  V30 13 2 13 14
M  V30 14 1 14 15
M  V30 15 1 15 16
M  V30 16 1 16 17
M  V30 17 2 17 18
M  V30 18 1 17 19
M  V30 19 1 19 20
M  V30 20 1 20 21
M  V30 21 1 21 22
M  V30 22 1 22 23
M  V30 23 1 23 24
M  V30 24 1 24 25
M  V30 25 1 25 26
M  V30 26 1 26 27
M  V30 27 1 27 28
M  V30 28 1 28 29
M  V30 29 1 22 30
M  V30 30 1 30 31
M  V30 31 1 31 32
M  V30 32 1 16 33
M  V30 33 1 33 34
M  V30 34 1 33 35
M  V30 35 2 6 36
M  V30 36 1 36 2
M  V30 37 1 14 10
M  V30 38 1 31 19
M  V30 39 1 33 13
M  V30 40 1 29 24
M  V30 41 1 1 37
M  V30 42 1 1 38
M  V30 43 1 1 39
M  V30 44 1 3 40
M  V30 45 1 4 41
M  V30 46 1 9 42
M  V30 47 1 12 43
M  V30 48 1 15 44
M  V30 49 1 15 45
M  V30 50 1 20 46
M  V30 51 1 20 47
M  V30 52 1 21 48
M  V30 53 1 21 49
M  V30 54 1 23 50
M  V30 55 1 23 51
M  V30 56 1 24 52
M  V30 57 1 25 53
M  V30 58 1 25 54
M  V30 59 1 26 55
M  V30 60 1 26 56
M  V30 61 1 28 57
M  V30 62 1 28 58
M  V30 63 1 29 59
M  V30 64 1 29 60
M  V30 65 1 30 61
M  V30 66 1 30 62
M  V30 67 1 31 63 CFG=1
M  V30 68 1 32 64
M  V30 69 1 32 65
M  V30 70 1 32 66
M  V30 71 1 34 67
M  V30 72 1 34 68
M  V30 73 1 34 69
M  V30 74 1 35 70
M  V30 75 1 35 71
M  V30 76 1 35 72
M  V30 77 1 36 73
M  V30 END BOND
M  V30 END CTAB
M  END
>  <Dataset>  (920) 
ChEMBL_Kinases

>  <Ligand_Instance>  (920) 
nan

>  <PDB_ID>  (920) 
nan

>  <Standardized_SMILES>  (920) 
Cc1ccnc(C(=O)Nc2n[nH]c3c2CN(C(=O)N2CCN(CC4CCOCC4)C[C@@H]2C)C3(C)C)c1

>  <Name>  (920) 
nan

>  <Pocket>  (920) 
nan

>  <ATP_Site>  (920) 
nan

>  <Peripheral>  (920) 
nan

>  <Num_H_Atoms_ProtBoundConf>  (920) 
nan

>  <Num_Resolved_Atoms>  (920) 
nan

>  <Num_Not_Resolved_Atoms>  (920) 
nan

$$$$
CHEMBL4876072
     RDKit          3D

  0  0  0  0  0  0  0  0  0  0999 V3000
M  V30 BEGIN CTAB
M  V30 COUNTS 49 52 0 0 0
M  V30 BEGIN ATOM
M  V30 1 C -2.001596 -2.262693 3.653244 0
M  V30 2 C -1.212926 -3.494089 4.056408 0
M  V30 3 C -0.416571 -4.003438 2.915266 0
M  V30 4 C -0.396787 -3.412354 1.635737 0
M  V30 5 C 0.427867 -4.072814 0.747646 0
M  V30 6 N 0.750018 -3.788528 -0.627922 0
M  V30 7 C 0.088259 -2.561424 -0.903982 0
M  V30 8 N 0.689044 -1.377047 -0.636189 0
M  V30 9 C 0.113222 -0.181128 -0.827407 0
M  V30 10 N 0.981076 0.873680 -0.420336 0
M  V30 11 C 1.554502 0.723900 0.898368 0
M  V30 12 C 1.177109 1.881871 1.782299 0
M  V30 13 C 1.708364 3.136573 1.228782 0
M  V30 14 C 3.009430 3.418478 1.638341 0
M  V30 15 C 3.699686 4.562580 1.251993 0
M  V30 16 C 3.081709 5.487739 0.416932 0
M  V30 17 C 1.782115 5.248157 -0.013329 0
M  V30 18 C 1.142641 4.081667 0.407871 0
M  V30 19 N -1.147184 -0.204474 -1.322458 0
M  V30 20 C -1.770194 -1.356345 -1.598614 0
M  V30 21 C -3.063581 -1.314031 -2.079007 0
M  V30 22 C -3.761279 -2.482321 -2.360974 0
M  V30 23 C -3.094758 -3.633767 -2.134657 0
M  V30 24 C -1.815823 -3.821073 -1.662944 0
M  V30 25 F -1.158354 -4.980853 -1.444683 0
M  V30 26 C -1.194033 -2.592649 -1.407486 0
M  V30 27 N 0.910259 -5.075802 1.502573 0
M  V30 28 N 0.438891 -5.044965 2.728347 0
M  V30 29 H -1.293605 -1.429772 3.404026 0
M  V30 30 H -2.657705 -1.915250 4.470738 0
M  V30 31 H -2.622319 -2.446539 2.765800 0
M  V30 32 H -0.551242 -3.250306 4.926178 0
M  V30 33 H -1.926202 -4.247390 4.416955 0
M  V30 34 H -0.990585 -2.528839 1.430176 0
M  V30 35 H 1.351883 -4.488437 -1.102413 0
M  V30 36 H 1.217094 1.710728 -1.019715 0
M  V30 37 H 2.663727 0.663803 0.795320 0
M  V30 38 H 1.256523 -0.249738 1.369379 0
M  V30 39 H 1.558280 1.730533 2.823427 0
M  V30 40 H 0.060504 1.924016 1.916146 0
M  V30 41 H 3.652944 2.810315 2.294022 0
M  V30 42 H 4.711289 4.807630 1.556771 0
M  V30 43 H 3.623161 6.379675 0.111747 0
M  V30 44 H 1.269118 5.939852 -0.655725 0
M  V30 45 H 0.113954 3.824091 0.117969 0
M  V30 46 H -3.597892 -0.379140 -2.258344 0
M  V30 47 H -4.761191 -2.457285 -2.726278 0
M  V30 48 H -3.642723 -4.560624 -2.351451 0
M  V30 49 H 0.636782 -5.699627 3.537049 0
M  V30 END ATOM
M  V30 BEGIN BOND
M  V30 1 1 1 2
M  V30 2 1 2 3
M  V30 3 2 3 4
M  V30 4 1 4 5
M  V30 5 1 5 6
M  V30 6 1 6 7
M  V30 7 2 7 8
M  V30 8 1 8 9
M  V30 9 1 9 10
M  V30 10 1 10 11
M  V30 11 1 11 12
M  V30 12 1 12 13
M  V30 13 2 13 14
M  V30 14 1 14 15
M  V30 15 2 15 16
M  V30 16 1 16 17
M  V30 17 2 17 18
M  V30 18 2 9 19
M  V30 19 1 19 20
M  V30 20 2 20 21
M  V30 21 1 21 22
M  V30 22 2 22 23
M  V30 23 1 23 24
M  V30 24 1 24 25
M  V30 25 2 24 26
M  V30 26 2 5 27
M  V30 27 1 27 28
M  V30 28 1 28 3
M  V30 29 1 26 7
M  V30 30 1 18 13
M  V30 31 1 26 20
M  V30 32 1 1 29
M  V30 33 1 1 30
M  V30 34 1 1 31
M  V30 35 1 2 32
M  V30 36 1 2 33
M  V30 37 1 4 34
M  V30 38 1 6 35
M  V30 39 1 10 36
M  V30 40 1 11 37
M  V30 41 1 11 38
M  V30 42 1 12 39
M  V30 43 1 12 40
M  V30 44 1 14 41
M  V30 45 1 15 42
M  V30 46 1 16 43
M  V30 47 1 17 44
M  V30 48 1 18 45
M  V30 49 1 21 46
M  V30 50 1 22 47
M  V30 51 1 23 48
M  V30 52 1 28 49
M  V30 END BOND
M  V30 END CTAB
M  END
>  <Dataset>  (921) 
ChEMBL_Kinases

>  <Ligand_Instance>  (921) 
nan

>  <PDB_ID>  (921) 
nan

>  <Standardized_SMILES>  (921) 
CCc1cc(Nc2nc(NCCc3ccccc3)nc3cccc(F)c23)n[nH]1

>  <Name>  (921) 
nan

>  <Pocket>  (921) 
nan

>  <ATP_Site>  (921) 
nan

>  <Peripheral>  (921) 
nan

>  <Num_H_Atoms_ProtBoundConf>  (921) 
nan

>  <Num_Resolved_Atoms>  (921) 
nan

>  <Num_Not_Resolved_Atoms>  (921) 
nan

$$$$
CHEMBL3933503
     RDKit          3D

  0  0  0  0  0  0  0  0  0  0999 V3000
M  V30 BEGIN CTAB
M  V30 COUNTS 45 48 0 0 0
M  V30 BEGIN ATOM
M  V30 1 C 4.549479 -2.017766 -1.692011 0
M  V30 2 C 3.789547 -3.290684 -1.703214 0
M  V30 3 C 4.418021 -4.431087 -1.251397 0
M  V30 4 C 3.746635 -5.628013 -1.252944 0
M  V30 5 C 2.450835 -5.701506 -1.701602 0
M  V30 6 C 1.888204 -4.521118 -2.137852 0
M  V30 7 C 2.494958 -3.257977 -2.172308 0
M  V30 8 C 1.751167 -2.092023 -2.662297 0
M  V30 9 C 1.233849 -1.195256 -1.610622 0
M  V30 10 C 1.826561 -0.036601 -1.097711 0
M  V30 11 C 1.167279 0.673509 -0.094065 0
M  V30 12 C -0.048522 0.294344 0.426361 0
M  V30 13 C -0.692430 1.077621 1.475561 0
M  V30 14 N -1.879939 0.803232 2.048253 0
M  V30 15 C -2.190526 1.724944 2.982143 0
M  V30 16 C -3.319548 1.778497 3.774441 0
M  V30 17 C -3.387791 2.839385 4.657111 0
M  V30 18 C -4.536672 2.997170 5.546044 0
M  V30 19 N -5.596249 2.042046 5.504628 0
M  V30 20 O -4.630280 3.965630 6.366705 0
M  V30 21 C -2.363557 3.770755 4.711730 0
M  V30 22 C -1.250497 3.662668 3.886904 0
M  V30 23 C -1.139760 2.618034 2.988863 0
M  V30 24 N -0.238152 2.200020 2.059505 0
M  V30 25 C -0.661286 -0.842212 -0.056014 0
M  V30 26 C 0.010777 -1.525867 -1.047065 0
M  V30 27 H 4.391380 -1.468733 -0.755663 0
M  V30 28 H 5.643907 -2.258435 -1.757409 0
M  V30 29 H 4.261269 -1.347993 -2.528857 0
M  V30 30 H 5.440393 -4.392579 -0.893139 0
M  V30 31 H 4.189939 -6.553917 -0.909839 0
M  V30 32 H 1.885288 -6.604690 -1.723623 0
M  V30 33 H 0.858642 -4.577589 -2.494513 0
M  V30 34 H 2.338016 -1.515678 -3.438077 0
M  V30 35 H 0.863972 -2.477725 -3.240445 0
M  V30 36 H 2.768535 0.228581 -1.529636 0
M  V30 37 H 1.680925 1.575429 0.270327 0
M  V30 38 H -4.097964 1.032827 3.703185 0
M  V30 39 H -5.868017 1.110406 5.919653 0
M  V30 40 H -6.536793 1.905853 5.026847 0
M  V30 41 H -2.451168 4.588039 5.414625 0
M  V30 42 H -0.447638 4.385052 3.924285 0
M  V30 43 H 0.647533 2.685413 1.853990 0
M  V30 44 H -1.614193 -1.172335 0.325962 0
M  V30 45 H -0.517295 -2.422676 -1.396675 0
M  V30 END ATOM
M  V30 BEGIN BOND
M  V30 1 1 1 2
M  V30 2 2 2 3
M  V30 3 1 3 4
M  V30 4 2 4 5
M  V30 5 1 5 6
M  V30 6 2 6 7
M  V30 7 1 7 8
M  V30 8 1 8 9
M  V30 9 2 9 10
M  V30 10 1 10 11
M  V30 11 2 11 12
M  V30 12 1 12 13
M  V30 13 2 13 14
M  V30 14 1 14 15
M  V30 15 2 15 16
M  V30 16 1 16 17
M  V30 17 1 17 18
M  V30 18 1 18 19
M  V30 19 2 18 20
M  V30 20 2 17 21
M  V30 21 1 21 22
M  V30 22 2 22 23
M  V30 23 1 23 24
M  V30 24 1 12 25
M  V30 25 2 25 26
M  V30 26 1 7 2
M  V30 27 1 26 9
M  V30 28 1 24 13
M  V30 29 1 23 15
M  V30 30 1 1 27
M  V30 31 1 1 28
M  V30 32 1 1 29
M  V30 33 1 3 30
M  V30 34 1 4 31
M  V30 35 1 5 32
M  V30 36 1 6 33
M  V30 37 1 8 34
M  V30 38 1 8 35
M  V30 39 1 10 36
M  V30 40 1 11 37
M  V30 41 1 16 38
M  V30 42 1 19 39
M  V30 43 1 19 40
M  V30 44 1 21 41
M  V30 45 1 22 42
M  V30 46 1 24 43
M  V30 47 1 25 44
M  V30 48 1 26 45
M  V30 END BOND
M  V30 END CTAB
M  END
>  <Dataset>  (922) 
ChEMBL_Kinases

>  <Ligand_Instance>  (922) 
nan

>  <PDB_ID>  (922) 
nan

>  <Standardized_SMILES>  (922) 
Cc1ccccc1Cc1ccc(-c2nc3cc(C(N)=O)ccc3[nH]2)cc1

>  <Name>  (922) 
nan

>  <Pocket>  (922) 
nan

>  <ATP_Site>  (922) 
nan

>  <Peripheral>  (922) 
nan

>  <Num_H_Atoms_ProtBoundConf>  (922) 
nan

>  <Num_Resolved_Atoms>  (922) 
nan

>  <Num_Not_Resolved_Atoms>  (922) 
nan

$$$$
CHEMBL3933432
     RDKit          3D

  0  0  0  0  0  0  0  0  0  0999 V3000
M  V30 BEGIN CTAB
M  V30 COUNTS 50 53 0 0 0
M  V30 BEGIN ATOM
M  V30 1 N 2.986511 -3.276007 1.274710 0
M  V30 2 C 4.372997 -3.019688 1.434669 0
M  V30 3 C 5.005939 -3.687096 2.458453 0
M  V30 4 C 6.369118 -3.388427 2.564934 0
M  V30 5 C 7.010484 -2.505618 1.717261 0
M  V30 6 C 6.275797 -1.900119 0.731610 0
M  V30 7 C 4.922892 -2.133114 0.548942 0
M  V30 8 O 4.378860 -1.424917 -0.493960 0
M  V30 9 C 3.329912 -0.508816 -0.268872 0
M  V30 10 C 3.723012 0.790570 0.088215 0
M  V30 11 C 2.683629 1.700147 0.319469 0
M  V30 12 C 1.356664 1.352651 0.206083 0
M  V30 13 C 0.196600 2.229434 0.409686 0
M  V30 14 C 0.222464 3.565925 0.724371 0
M  V30 15 C -0.863554 4.380669 0.903948 0
M  V30 16 N -2.087376 3.821901 0.756871 0
M  V30 17 C -2.183092 2.516642 0.449253 0
M  V30 18 N -3.249858 1.658969 0.211555 0
M  V30 19 C -4.306440 0.810833 -0.013277 0
M  V30 20 C -5.589751 1.156857 -0.340151 0
M  V30 21 C -6.494825 0.154817 -0.575206 0
M  V30 22 C -6.078538 -1.141457 -0.473351 0
M  V30 23 C -4.831129 -1.603203 -0.155969 0
M  V30 24 S -4.234814 -3.231787 -0.010988 0
M  V30 25 N -4.398788 -3.757014 1.623862 0
M  V30 26 O -4.977739 -4.175982 -0.882470 0
M  V30 27 O -2.757794 -3.279008 -0.320442 0
M  V30 28 C -3.949039 -0.551458 0.074345 0
M  V30 29 N -1.076870 1.749188 0.283467 0
M  V30 30 C 1.019678 0.040200 -0.156611 0
M  V30 31 C 2.026967 -0.873486 -0.389593 0
M  V30 32 H 2.262601 -2.848141 1.891758 0
M  V30 33 H 2.286987 -3.812677 0.684784 0
M  V30 34 H 4.473811 -4.361115 3.091204 0
M  V30 35 H 6.891607 -3.901231 3.367202 0
M  V30 36 H 8.073786 -2.380045 1.928397 0
M  V30 37 H 6.883332 -1.232464 0.127627 0
M  V30 38 H 4.728311 1.148051 0.201437 0
M  V30 39 H 2.803223 2.736284 0.598525 0
M  V30 40 H 1.197819 4.006452 0.841112 0
M  V30 41 H -0.863616 5.424507 1.150588 0
M  V30 42 H -3.421420 1.623284 1.284884 0
M  V30 43 H -5.840075 2.203946 -0.394717 0
M  V30 44 H -7.521649 0.370911 -0.834920 0
M  V30 45 H -6.790596 -1.931900 -0.658923 0
M  V30 46 H -4.306680 -4.808107 1.619648 0
M  V30 47 H -3.572902 -3.355051 2.159579 0
M  V30 48 H -2.908277 -0.835989 0.342589 0
M  V30 49 H 0.003967 -0.292342 -0.261601 0
M  V30 50 H 1.719375 -1.867418 -0.670722 0
M  V30 END ATOM
M  V30 BEGIN BOND
M  V30 1 1 1 2
M  V30 2 2 2 3
M  V30 3 1 3 4
M  V30 4 2 4 5
M  V30 5 1 5 6
M  V30 6 2 6 7
M  V30 7 1 7 8
M  V30 8 1 8 9
M  V30 9 2 9 10
M  V30 10 1 10 11
M  V30 11 2 11 12
M  V30 12 1 12 13
M  V30 13 2 13 14
M  V30 14 1 14 15
M  V30 15 2 15 16
M  V30 16 1 16 17
M  V30 17 1 17 18
M  V30 18 1 18 19
M  V30 19 2 19 20
M  V30 20 1 20 21
M  V30 21 2 21 22
M  V30 22 1 22 23
M  V30 23 1 23 24
M  V30 24 1 24 25
M  V30 25 2 24 26
M  V30 26 2 24 27
M  V30 27 2 23 28
M  V30 28 2 17 29
M  V30 29 1 12 30
M  V30 30 2 30 31
M  V30 31 1 7 2
M  V30 32 1 31 9
M  V30 33 1 29 13
M  V30 34 1 28 19
M  V30 35 1 1 32
M  V30 36 1 1 33
M  V30 37 1 3 34
M  V30 38 1 4 35
M  V30 39 1 5 36
M  V30 40 1 6 37
M  V30 41 1 10 38
M  V30 42 1 11 39
M  V30 43 1 14 40
M  V30 44 1 15 41
M  V30 45 1 18 42
M  V30 46 1 20 43
M  V30 47 1 21 44
M  V30 48 1 22 45
M  V30 49 1 25 46
M  V30 50 1 25 47
M  V30 51 1 28 48
M  V30 52 1 30 49
M  V30 53 1 31 50
M  V30 END BOND
M  V30 END CTAB
M  END
>  <Dataset>  (923) 
ChEMBL_Kinases

>  <Ligand_Instance>  (923) 
nan

>  <PDB_ID>  (923) 
nan

>  <Standardized_SMILES>  (923) 
Nc1ccccc1Oc1ccc(-c2ccnc(Nc3cccc(S(N)(=O)=O)c3)n2)cc1

>  <Name>  (923) 
nan

>  <Pocket>  (923) 
nan

>  <ATP_Site>  (923) 
nan

>  <Peripheral>  (923) 
nan

>  <Num_H_Atoms_ProtBoundConf>  (923) 
nan

>  <Num_Resolved_Atoms>  (923) 
nan

>  <Num_Not_Resolved_Atoms>  (923) 
nan

$$$$
CHEMBL3933198
     RDKit          3D

  0  0  0  0  0  0  0  0  0  0999 V3000
M  V30 BEGIN CTAB
M  V30 COUNTS 69 72 0 0 0
M  V30 BEGIN ATOM
M  V30 1 C 5.335099 -0.957766 3.286255 0
M  V30 2 C 6.205165 -0.054079 2.447720 0
M  V30 3 S 5.562543 -0.047711 0.789450 0
M  V30 4 O 6.444855 0.684337 -0.165465 0
M  V30 5 O 5.540139 -1.497724 0.342759 0
M  V30 6 C 3.917038 0.541683 0.777439 0
M  V30 7 C 2.888766 -0.348343 0.910291 0
M  V30 8 C 1.548791 0.031202 0.913504 0
M  V30 9 N 0.516995 -0.930657 1.050848 0
M  V30 10 C -0.887211 -0.734231 1.106384 0
M  V30 11 N -1.491236 0.459373 1.050828 0
M  V30 12 C -2.811214 0.671072 1.099059 0
M  V30 13 C -3.621440 -0.435208 1.215948 0
M  V30 14 F -4.955679 -0.198469 1.262746 0
M  V30 15 C -3.013025 -1.655439 1.273051 0
M  V30 16 N -3.878200 -2.779486 1.392369 0
M  V30 17 C -4.770359 -2.886103 2.552844 0
M  V30 18 C -3.667114 -3.614977 0.263307 0
M  V30 19 C -3.886048 -3.077982 -1.010217 0
M  V30 20 C -3.721598 -3.766176 -2.196812 0
M  V30 21 C -3.978684 -3.104108 -3.491387 0
M  V30 22 O -5.192739 -3.523677 -4.020615 0
M  V30 23 C -3.314482 -5.068089 -2.106475 0
M  V30 24 C -3.108205 -5.898931 -3.311324 0
M  V30 25 C -3.080834 -5.658150 -0.876750 0
M  V30 26 C -3.259223 -4.929009 0.277471 0
M  V30 27 C -3.016623 -5.537079 1.599996 0
M  V30 28 N -1.683866 -1.807144 1.220247 0
M  V30 29 C 1.365519 1.387667 0.769863 0
M  V30 30 C 2.350238 2.327142 0.633091 0
M  V30 31 N 2.091704 3.716621 0.485342 0
M  V30 32 C 0.793208 4.355848 0.437530 0
M  V30 33 C 0.876091 5.418429 -0.656678 0
M  V30 34 O 1.791755 6.399589 -0.373500 0
M  V30 35 C 2.630311 6.026013 0.669320 0
M  V30 36 C 3.190949 4.653005 0.363883 0
M  V30 37 C 3.657415 1.888342 0.637467 0
M  V30 38 H 5.946541 -1.516475 4.031948 0
M  V30 39 H 4.830711 -1.746097 2.677520 0
M  V30 40 H 4.529012 -0.370342 3.766024 0
M  V30 41 H 7.257506 -0.424009 2.403139 0
M  V30 42 H 6.257439 0.975784 2.851433 0
M  V30 43 H 3.134923 -1.394587 1.016942 0
M  V30 44 H 0.861794 -1.935440 1.120694 0
M  V30 45 H -3.118169 1.691203 1.042054 0
M  V30 46 H -5.652480 -2.260924 2.320837 0
M  V30 47 H -5.123059 -3.916661 2.681005 0
M  V30 48 H -4.235616 -2.578520 3.458673 0
M  V30 49 H -4.211548 -2.037050 -1.069195 0
M  V30 50 H -3.170165 -3.276782 -4.231073 0
M  V30 51 H -4.062937 -2.008225 -3.322352 0
M  V30 52 H -5.699922 -4.003017 -3.312617 0
M  V30 53 H -2.150083 -6.489611 -3.266361 0
M  V30 54 H -3.892942 -6.675829 -3.439184 0
M  V30 55 H -3.055505 -5.308165 -4.245657 0
M  V30 56 H -2.758705 -6.687311 -0.815944 0
M  V30 57 H -2.207883 -6.294324 1.461136 0
M  V30 58 H -2.814125 -4.820220 2.404559 0
M  V30 59 H -3.927190 -6.094650 1.901840 0
M  V30 60 H 0.383314 1.786009 0.759453 0
M  V30 61 H -0.010038 3.666397 0.123018 0
M  V30 62 H 0.475092 4.792311 1.406955 0
M  V30 63 H 1.153422 4.865652 -1.585789 0
M  V30 64 H -0.150341 5.811243 -0.805844 0
M  V30 65 H 2.125967 5.962743 1.654256 0
M  V30 66 H 3.428377 6.784619 0.785669 0
M  V30 67 H 4.016691 4.428706 1.073241 0
M  V30 68 H 3.556587 4.689448 -0.699040 0
M  V30 69 H 4.523371 2.528561 0.537201 0
M  V30 END ATOM
M  V30 BEGIN BOND
M  V30 1 1 1 2
M  V30 2 1 2 3
M  V30 3 2 3 4
M  V30 4 2 3 5
M  V30 5 1 3 6
M  V30 6 2 6 7
M  V30 7 1 7 8
M  V30 8 1 8 9
M  V30 9 1 9 10
M  V30 10 2 10 11
M  V30 11 1 11 12
M  V30 12 2 12 13
M  V30 13 1 13 14
M  V30 14 1 13 15
M  V30 15 1 15 16
M  V30 16 1 16 17
M  V30 17 1 16 18
M  V30 18 2 18 19
M  V30 19 1 19 20
M  V30 20 1 20 21
M  V30 21 1 21 22
M  V30 22 2 20 23
M  V30 23 1 23 24
M  V30 24 1 23 25
M  V30 25 2 25 26
M  V30 26 1 26 27
M  V30 27 2 15 28
M  V30 28 2 8 29
M  V30 29 1 29 30
M  V30 30 1 30 31
M  V30 31 1 31 32
M  V30 32 1 32 33
M  V30 33 1 33 34
M  V30 34 1 34 35
M  V30 35 1 35 36
M  V30 36 2 30 37
M  V30 37 1 37 6
M  V30 38 1 28 10
M  V30 39 1 36 31
M  V30 40 1 26 18
M  V30 41 1 1 38
M  V30 42 1 1 39
M  V30 43 1 1 40
M  V30 44 1 2 41
M  V30 45 1 2 42
M  V30 46 1 7 43
M  V30 47 1 9 44
M  V30 48 1 12 45
M  V30 49 1 17 46
M  V30 50 1 17 47
M  V30 51 1 17 48
M  V30 52 1 19 49
M  V30 53 1 21 50
M  V30 54 1 21 51
M  V30 55 1 22 52
M  V30 56 1 24 53
M  V30 57 1 24 54
M  V30 58 1 24 55
M  V30 59 1 25 56
M  V30 60 1 27 57
M  V30 61 1 27 58
M  V30 62 1 27 59
M  V30 63 1 29 60
M  V30 64 1 32 61
M  V30 65 1 32 62
M  V30 66 1 33 63
M  V30 67 1 33 64
M  V30 68 1 35 65
M  V30 69 1 35 66
M  V30 70 1 36 67
M  V30 71 1 36 68
M  V30 72 1 37 69
M  V30 END BOND
M  V30 END CTAB
M  END
>  <Dataset>  (924) 
ChEMBL_Kinases

>  <Ligand_Instance>  (924) 
nan

>  <PDB_ID>  (924) 
nan

>  <Standardized_SMILES>  (924) 
CCS(=O)(=O)c1cc(Nc2ncc(F)c(N(C)c3cc(CO)c(C)cc3C)n2)cc(N2CCOCC2)c1

>  <Name>  (924) 
nan

>  <Pocket>  (924) 
nan

>  <ATP_Site>  (924) 
nan

>  <Peripheral>  (924) 
nan

>  <Num_H_Atoms_ProtBoundConf>  (924) 
nan

>  <Num_Resolved_Atoms>  (924) 
nan

>  <Num_Not_Resolved_Atoms>  (924) 
nan

$$$$
CHEMBL3933192
     RDKit          3D

  0  0  0  0  0  0  0  0  0  0999 V3000
M  V30 BEGIN CTAB
M  V30 COUNTS 44 47 0 0 0
M  V30 BEGIN ATOM
M  V30 1 N 0.805831 -7.780633 -0.560010 0
M  V30 2 C 1.947829 -7.170774 -1.149797 0
M  V30 3 O 2.809735 -7.983113 -1.583547 0
M  V30 4 C 2.103091 -5.730010 -1.242126 0
M  V30 5 C 3.248451 -5.236395 -1.832651 0
M  V30 6 C 3.367385 -3.845460 -1.905973 0
M  V30 7 C 2.371633 -3.007471 -1.403935 0
M  V30 8 N 2.242858 -1.655319 -1.350160 0
M  V30 9 C 1.072002 -1.360444 -0.753661 0
M  V30 10 C 0.560639 -0.012624 -0.504083 0
M  V30 11 C 1.313247 1.076030 -0.898951 0
M  V30 12 C 0.789490 2.329310 -0.642205 0
M  V30 13 C -0.431971 2.497924 -0.018722 0
M  V30 14 S -1.148623 4.060374 0.333905 0
M  V30 15 O -2.640037 4.000902 0.236614 0
M  V30 16 O -0.596562 5.051195 -0.660639 0
M  V30 17 N -0.643784 4.596013 1.906996 0
M  V30 18 C -0.955833 3.861591 3.093917 0
M  V30 19 C -2.251591 3.377433 3.250117 0
M  V30 20 C -2.618416 2.660960 4.372131 0
M  V30 21 C -1.672377 2.422523 5.359159 0
M  V30 22 Br -2.120223 1.436920 6.935253 0
M  V30 23 C -0.390361 2.901556 5.204600 0
M  V30 24 C -0.001464 3.623709 4.084702 0
M  V30 25 C -1.191095 1.395224 0.379607 0
M  V30 26 C -0.662670 0.144411 0.120451 0
M  V30 27 N 0.462086 -2.515517 -0.431201 0
M  V30 28 C 1.234326 -3.568663 -0.816925 0
M  V30 29 C 1.092733 -4.941205 -0.732174 0
M  V30 30 H 0.540360 -8.260123 0.334352 0
M  V30 31 H 0.497291 -8.269609 0.326295 0
M  V30 32 H 3.983907 -5.913839 -2.202929 0
M  V30 33 H 4.250202 -3.440693 -2.361356 0
M  V30 34 H 2.982054 -0.997685 -1.734313 0
M  V30 35 H 2.273304 1.003320 -1.389548 0
M  V30 36 H 1.302253 3.255678 -0.912899 0
M  V30 37 H -0.093729 5.453899 2.152689 0
M  V30 38 H -3.009060 3.540152 2.512276 0
M  V30 39 H -3.644977 2.287372 4.477300 0
M  V30 40 H 0.360673 2.720902 5.972115 0
M  V30 41 H 0.991519 4.018899 3.920059 0
M  V30 42 H -2.153820 1.436158 0.871849 0
M  V30 43 H -1.196666 -0.767824 0.401873 0
M  V30 44 H 0.218243 -5.365873 -0.280869 0
M  V30 END ATOM
M  V30 BEGIN BOND
M  V30 1 1 1 2
M  V30 2 2 2 3
M  V30 3 1 2 4
M  V30 4 2 4 5
M  V30 5 1 5 6
M  V30 6 2 6 7
M  V30 7 1 7 8
M  V30 8 1 8 9
M  V30 9 1 9 10
M  V30 10 2 10 11
M  V30 11 1 11 12
M  V30 12 2 12 13
M  V30 13 1 13 14
M  V30 14 2 14 15
M  V30 15 2 14 16
M  V30 16 1 14 17
M  V30 17 1 17 18
M  V30 18 2 18 19
M  V30 19 1 19 20
M  V30 20 2 20 21
M  V30 21 1 21 22
M  V30 22 1 21 23
M  V30 23 2 23 24
M  V30 24 1 13 25
M  V30 25 2 25 26
M  V30 26 2 9 27
M  V30 27 1 27 28
M  V30 28 2 28 29
M  V30 29 1 29 4
M  V30 30 1 28 7
M  V30 31 1 26 10
M  V30 32 1 24 18
M  V30 33 1 1 30
M  V30 34 1 1 31
M  V30 35 1 5 32
M  V30 36 1 6 33
M  V30 37 1 8 34
M  V30 38 1 11 35
M  V30 39 1 12 36
M  V30 40 1 17 37
M  V30 41 1 19 38
M  V30 42 1 20 39
M  V30 43 1 23 40
M  V30 44 1 24 41
M  V30 45 1 25 42
M  V30 46 1 26 43
M  V30 47 1 29 44
M  V30 END BOND
M  V30 END CTAB
M  END
>  <Dataset>  (925) 
ChEMBL_Kinases

>  <Ligand_Instance>  (925) 
nan

>  <PDB_ID>  (925) 
nan

>  <Standardized_SMILES>  (925) 
NC(=O)c1ccc2[nH]c(-c3ccc(S(=O)(=O)Nc4ccc(Br)cc4)cc3)nc2c1

>  <Name>  (925) 
nan

>  <Pocket>  (925) 
nan

>  <ATP_Site>  (925) 
nan

>  <Peripheral>  (925) 
nan

>  <Num_H_Atoms_ProtBoundConf>  (925) 
nan

>  <Num_Resolved_Atoms>  (925) 
nan

>  <Num_Not_Resolved_Atoms>  (925) 
nan

$$$$
CHEMBL3933186
     RDKit          3D

  0  0  0  0  0  0  0  0  0  0999 V3000
M  V30 BEGIN CTAB
M  V30 COUNTS 65 68 0 0 0
M  V30 BEGIN ATOM
M  V30 1 C -0.814875 4.640334 3.066557 0
M  V30 2 C 0.014401 3.620326 2.297316 0
M  V30 3 C 1.479080 3.752941 2.609140 0
M  V30 4 N 2.256909 2.811003 1.893197 0
M  V30 5 C 2.121733 1.442906 2.223657 0
M  V30 6 C 1.422664 0.686291 1.129746 0
M  V30 7 N 2.096788 0.761827 -0.143600 0
M  V30 8 C 1.820892 -0.120079 -1.238876 0
M  V30 9 O 2.557320 0.161288 -2.229167 0
M  V30 10 N 0.840000 -1.184673 -1.221590 0
M  V30 11 C -0.114964 -1.687536 -0.225965 0
M  V30 12 C -1.085624 -2.412966 -1.099448 0
M  V30 13 C -2.359186 -2.982005 -1.012205 0
M  V30 14 N -3.206000 -3.024058 0.129933 0
M  V30 15 C -3.279059 -4.007917 1.133357 0
M  V30 16 O -2.560335 -5.029280 1.139622 0
M  V30 17 C -4.251966 -3.787235 2.197484 0
M  V30 18 C -4.392478 -4.698809 3.222804 0
M  V30 19 C -5.270477 -4.598938 4.274925 0
M  V30 20 C -6.100589 -3.478988 4.322208 0
M  V30 21 C -5.955787 -2.570504 3.294174 0
M  V30 22 N -5.082238 -2.707548 2.282254 0
M  V30 23 N -2.611342 -3.483902 -2.251916 0
M  V30 24 N -1.572435 -3.242571 -3.042900 0
M  V30 25 C -0.607082 -2.584379 -2.376115 0
M  V30 26 C 0.738649 -1.976959 -2.445294 0
M  V30 27 C 0.866375 -1.126431 -3.677640 0
M  V30 28 C 1.745757 -3.103483 -2.449758 0
M  V30 29 C 1.578283 -4.054316 -1.313277 0
M  V30 30 C 3.042396 1.820553 -0.123513 0 CFG=1
M  V30 31 C 3.674867 2.182536 -1.419956 0
M  V30 32 C 2.490672 3.086026 0.515237 0
M  V30 33 H -0.973686 5.549485 2.444104 0
M  V30 34 H -0.318909 4.911972 4.013009 0
M  V30 35 H -1.842653 4.231259 3.237361 0
M  V30 36 H -0.183912 3.662360 1.209905 0
M  V30 37 H -0.368035 2.627617 2.649400 0
M  V30 38 H 1.777793 4.817309 2.406265 0
M  V30 39 H 1.587231 3.594461 3.720281 0
M  V30 40 H 3.107483 0.969491 2.457547 0
M  V30 41 H 1.512851 1.369452 3.152107 0
M  V30 42 H 1.356186 -0.396822 1.416972 0
M  V30 43 H 0.422976 1.108403 0.990468 0
M  V30 44 H 0.371635 -2.365323 0.494708 0
M  V30 45 H -0.670436 -0.879992 0.283920 0
M  V30 46 H -3.822965 -2.158539 0.134798 0
M  V30 47 H -3.790079 -5.605104 3.274509 0
M  V30 48 H -5.367085 -5.311678 5.059437 0
M  V30 49 H -6.818071 -3.311223 5.102473 0
M  V30 50 H -6.551462 -1.653270 3.223113 0
M  V30 51 H -1.551106 -3.541445 -4.040330 0
M  V30 52 H 0.536633 -0.112600 -3.423291 0
M  V30 53 H 0.158077 -1.520473 -4.442256 0
M  V30 54 H 1.905246 -1.186825 -4.052932 0
M  V30 55 H 2.742994 -2.613569 -2.420163 0
M  V30 56 H 1.706436 -3.683273 -3.393737 0
M  V30 57 H 0.524913 -4.273421 -1.065393 0
M  V30 58 H 2.152917 -3.742283 -0.401505 0
M  V30 59 H 2.039954 -5.035748 -1.622574 0
M  V30 60 H 3.873059 1.497449 0.572753 0
M  V30 61 H 2.950358 2.454551 -2.213260 0
M  V30 62 H 4.248481 3.133660 -1.236484 0
M  V30 63 H 4.435558 1.442368 -1.772898 0
M  V30 64 H 1.517906 3.362785 0.041982 0
M  V30 65 H 3.166299 3.947704 0.344108 0
M  V30 END ATOM
M  V30 BEGIN BOND
M  V30 1 1 1 2
M  V30 2 1 2 3
M  V30 3 1 3 4
M  V30 4 1 4 5
M  V30 5 1 5 6
M  V30 6 1 6 7
M  V30 7 1 7 8
M  V30 8 2 8 9
M  V30 9 1 8 10
M  V30 10 1 10 11
M  V30 11 1 11 12
M  V30 12 1 12 13
M  V30 13 1 13 14
M  V30 14 1 14 15
M  V30 15 2 15 16
M  V30 16 1 15 17
M  V30 17 2 17 18
M  V30 18 1 18 19
M  V30 19 2 19 20
M  V30 20 1 20 21
M  V30 21 2 21 22
M  V30 22 2 13 23
M  V30 23 1 23 24
M  V30 24 1 24 25
M  V30 25 1 25 26
M  V30 26 1 26 27
M  V30 27 1 26 28
M  V30 28 1 28 29
M  V30 29 1 7 30
M  V30 30 1 30 31
M  V30 31 1 30 32
M  V30 32 1 32 4
M  V30 33 1 26 10
M  V30 34 2 25 12
M  V30 35 1 22 17
M  V30 36 1 1 33
M  V30 37 1 1 34
M  V30 38 1 1 35
M  V30 39 1 2 36
M  V30 40 1 2 37
M  V30 41 1 3 38
M  V30 42 1 3 39
M  V30 43 1 5 40
M  V30 44 1 5 41
M  V30 45 1 6 42
M  V30 46 1 6 43
M  V30 47 1 11 44
M  V30 48 1 11 45
M  V30 49 1 14 46
M  V30 50 1 18 47
M  V30 51 1 19 48
M  V30 52 1 20 49
M  V30 53 1 21 50
M  V30 54 1 24 51
M  V30 55 1 27 52
M  V30 56 1 27 53
M  V30 57 1 27 54
M  V30 58 1 28 55
M  V30 59 1 28 56
M  V30 60 1 29 57
M  V30 61 1 29 58
M  V30 62 1 29 59
M  V30 63 1 30 60 CFG=1
M  V30 64 1 31 61
M  V30 65 1 31 62
M  V30 66 1 31 63
M  V30 67 1 32 64
M  V30 68 1 32 65
M  V30 END BOND
M  V30 END CTAB
M  END
>  <Dataset>  (926) 
ChEMBL_Kinases

>  <Ligand_Instance>  (926) 
nan

>  <PDB_ID>  (926) 
nan

>  <Standardized_SMILES>  (926) 
CCCN1CCN(C(=O)N2Cc3c(NC(=O)c4ccccn4)n[nH]c3C2(C)CC)[C@@H](C)C1

>  <Name>  (926) 
nan

>  <Pocket>  (926) 
nan

>  <ATP_Site>  (926) 
nan

>  <Peripheral>  (926) 
nan

>  <Num_H_Atoms_ProtBoundConf>  (926) 
nan

>  <Num_Resolved_Atoms>  (926) 
nan

>  <Num_Not_Resolved_Atoms>  (926) 
nan

$$$$
CHEMBL612054
     RDKit          3D

  0  0  0  0  0  0  0  0  0  0999 V3000
M  V30 BEGIN CTAB
M  V30 COUNTS 86 93 0 0 0
M  V30 BEGIN ATOM
M  V30 1 O 3.158971 1.486895 -4.608902 0
M  V30 2 C 3.193365 0.148332 -4.907680 0
M  V30 3 C 3.824415 -0.308798 -6.046836 0
M  V30 4 C 3.877561 -1.646357 -6.376808 0
M  V30 5 C 3.276476 -2.557060 -5.534212 0
M  V30 6 C 2.649116 -2.074283 -4.396665 0
M  V30 7 C 2.576216 -0.723916 -4.031301 0
M  V30 8 N 1.892661 -0.668505 -2.878202 0
M  V30 9 C 1.505202 -1.855165 -2.445649 0
M  V30 10 C 0.796115 -2.189116 -1.311988 0
M  V30 11 C 0.280480 -1.261283 -0.322100 0
M  V30 12 C -0.334969 -1.917842 0.684985 0
M  V30 13 C -1.564145 -1.525072 1.461071 0 CFG=1
M  V30 14 O -2.496018 -2.536184 1.251400 0
M  V30 15 C -1.319628 -1.488818 2.949191 0
M  V30 16 C 0.068657 -1.870312 3.335701 0
M  V30 17 C 0.218042 -1.751219 4.791532 0
M  V30 18 C 1.155027 -0.907637 5.174279 0
M  V30 19 C 2.171719 0.020239 4.679621 0
M  V30 20 C 2.035117 1.436294 5.155689 0
M  V30 21 C 0.835501 2.192499 4.757975 0
M  V30 22 C 0.662504 2.542333 3.324454 0
M  V30 23 N 0.537290 1.487731 2.380089 0
M  V30 24 C 1.542134 1.752687 1.333784 0
M  V30 25 C 1.576666 0.518438 0.513894 0
M  V30 26 C 0.243926 0.198649 -0.116995 0 CFG=2
M  V30 27 C -0.968839 0.736521 0.556966 0 CFG=1
M  V30 28 C -1.741190 1.579858 -0.482832 0
M  V30 29 C -3.165243 1.135312 -0.423948 0
M  V30 30 C -3.943936 1.469850 -1.597265 0
M  V30 31 C -4.195892 1.130917 -2.860999 0
M  V30 32 C -3.658442 0.051364 -3.729090 0
M  V30 33 C -4.133087 -1.317105 -3.290378 0
M  V30 34 C -4.267648 -1.408071 -1.786694 0
M  V30 35 C -2.900512 -1.042174 -1.221075 0
M  V30 36 N -3.050094 -0.261840 -0.087073 0
M  V30 37 C -2.058914 -0.213377 0.923736 0 CFG=1
M  V30 38 C -0.710364 1.687599 1.670058 0
M  V30 39 N 0.621223 -3.517411 -1.246472 0
M  V30 40 C 1.035321 -4.439262 -2.102074 0
M  V30 41 C 1.736540 -4.051824 -3.215265 0
M  V30 42 C 1.974699 -2.728341 -3.387048 0
M  V30 43 H 3.194904 2.235544 -5.295039 0
M  V30 44 H 4.285164 0.455007 -6.680855 0
M  V30 45 H 4.380324 -1.963780 -7.276122 0
M  V30 46 H 3.282264 -3.616813 -5.734864 0
M  V30 47 H 1.779421 0.260143 -2.505436 0
M  V30 48 H -0.000245 -2.888930 1.092642 0
M  V30 49 H -2.055678 -3.408756 1.183995 0
M  V30 50 H -1.999857 -2.157013 3.517514 0
M  V30 51 H -1.543649 -0.471128 3.314193 0
M  V30 52 H 0.151180 -2.976787 3.109663 0
M  V30 53 H 0.751504 -1.275159 2.749260 0
M  V30 54 H -0.361600 -2.283478 5.494626 0
M  V30 55 H 1.254405 -0.824134 6.275054 0
M  V30 56 H 3.180584 -0.385810 4.986662 0
M  V30 57 H 2.247700 0.043498 3.567499 0
M  V30 58 H 2.081444 1.424481 6.293317 0
M  V30 59 H 2.988732 2.007010 4.909657 0
M  V30 60 H 0.822672 3.184062 5.314378 0
M  V30 61 H -0.122355 1.719981 5.087667 0
M  V30 62 H 1.512089 3.248742 3.071712 0
M  V30 63 H -0.236055 3.236104 3.284487 0
M  V30 64 H 1.186380 2.576311 0.701968 0
M  V30 65 H 2.514811 2.019907 1.786486 0
M  V30 66 H 2.040505 -0.365272 1.037469 0
M  V30 67 H 2.373029 0.725287 -0.277310 0
M  V30 68 H 0.316103 0.746715 -1.107636 0
M  V30 69 H -1.623246 2.651711 -0.333472 0
M  V30 70 H -1.323656 1.390890 -1.516623 0
M  V30 71 H -3.598726 1.619314 0.500476 0
M  V30 72 H -4.589926 2.344900 -1.391982 0
M  V30 73 H -4.945966 1.770214 -3.363615 0
M  V30 74 H -2.563602 0.111394 -3.896648 0
M  V30 75 H -4.096622 0.190679 -4.739637 0
M  V30 76 H -3.313852 -2.020404 -3.579369 0
M  V30 77 H -5.037762 -1.657807 -3.830060 0
M  V30 78 H -4.563464 -2.452814 -1.554230 0
M  V30 79 H -5.080976 -0.771323 -1.393273 0
M  V30 80 H -2.394569 -2.015596 -1.132657 0
M  V30 81 H -2.305775 -0.468852 -1.960635 0
M  V30 82 H -2.615887 0.225828 1.785024 0
M  V30 83 H -0.647464 2.762314 1.319172 0
M  V30 84 H -1.521629 1.702373 2.412032 0
M  V30 85 H 0.768021 -5.450203 -1.826385 0
M  V30 86 H 2.061532 -4.799521 -3.891964 0
M  V30 END ATOM
M  V30 BEGIN BOND
M  V30 1 1 1 2
M  V30 2 2 2 3
M  V30 3 1 3 4
M  V30 4 2 4 5
M  V30 5 1 5 6
M  V30 6 2 6 7
M  V30 7 1 7 8
M  V30 8 1 8 9
M  V30 9 2 9 10
M  V30 10 1 10 11
M  V30 11 2 11 12
M  V30 12 1 12 13
M  V30 13 1 13 14 CFG=1
M  V30 14 1 13 15
M  V30 15 1 15 16
M  V30 16 1 16 17
M  V30 17 2 17 18
M  V30 18 1 18 19
M  V30 19 1 19 20
M  V30 20 1 20 21
M  V30 21 1 21 22
M  V30 22 1 22 23
M  V30 23 1 23 24
M  V30 24 1 24 25
M  V30 25 1 25 26
M  V30 26 1 26 27
M  V30 27 1 27 28 CFG=3
M  V30 28 1 28 29
M  V30 29 1 29 30
M  V30 30 2 30 31
M  V30 31 1 31 32
M  V30 32 1 32 33
M  V30 33 1 33 34
M  V30 34 1 34 35
M  V30 35 1 35 36
M  V30 36 1 36 37
M  V30 37 1 27 38
M  V30 38 1 10 39
M  V30 39 2 39 40
M  V30 40 1 40 41
M  V30 41 2 41 42
M  V30 42 1 7 2
M  V30 43 1 42 9
M  V30 44 1 42 6
M  V30 45 1 26 11
M  V30 46 1 37 27
M  V30 47 1 37 13
M  V30 48 1 38 23
M  V30 49 1 36 29
M  V30 50 1 1 43
M  V30 51 1 3 44
M  V30 52 1 4 45
M  V30 53 1 5 46
M  V30 54 1 8 47
M  V30 55 1 12 48
M  V30 56 1 14 49
M  V30 57 1 15 50
M  V30 58 1 15 51
M  V30 59 1 16 52
M  V30 60 1 16 53
M  V30 61 1 17 54
M  V30 62 1 18 55
M  V30 63 1 19 56
M  V30 64 1 19 57
M  V30 65 1 20 58
M  V30 66 1 20 59
M  V30 67 1 21 60
M  V30 68 1 21 61
M  V30 69 1 22 62
M  V30 70 1 22 63
M  V30 71 1 24 64
M  V30 72 1 24 65
M  V30 73 1 25 66
M  V30 74 1 25 67
M  V30 75 1 26 68 CFG=3
M  V30 76 1 28 69
M  V30 77 1 28 70
M  V30 78 1 29 71
M  V30 79 1 30 72
M  V30 80 1 31 73
M  V30 81 1 32 74
M  V30 82 1 32 75
M  V30 83 1 33 76
M  V30 84 1 33 77
M  V30 85 1 34 78
M  V30 86 1 34 79
M  V30 87 1 35 80
M  V30 88 1 35 81
M  V30 89 1 37 82 CFG=1
M  V30 90 1 38 83
M  V30 91 1 38 84
M  V30 92 1 40 85
M  V30 93 1 41 86
M  V30 END BOND
M  V30 END CTAB
M  END
>  <Dataset>  (927) 
ChEMBL_Kinases

>  <Ligand_Instance>  (927) 
nan

>  <PDB_ID>  (927) 
nan

>  <Standardized_SMILES>  (927) 
Oc1cccc2c1[nH]c1c(C3=C[C@@]4(O)CC/C=C\CCCCN5CC[C@@H]3[C@]3(CC6/C=C\CCCCN6[C@H]34)C5)nccc12

>  <Name>  (927) 
nan

>  <Pocket>  (927) 
nan

>  <ATP_Site>  (927) 
nan

>  <Peripheral>  (927) 
nan

>  <Num_H_Atoms_ProtBoundConf>  (927) 
nan

>  <Num_Resolved_Atoms>  (927) 
nan

>  <Num_Not_Resolved_Atoms>  (927) 
nan

$$$$
CHEMBL3932996
     RDKit          3D

  0  0  0  0  0  0  0  0  0  0999 V3000
M  V30 BEGIN CTAB
M  V30 COUNTS 60 63 0 0 0
M  V30 BEGIN ATOM
M  V30 1 C 5.253564 -0.341196 3.663072 0
M  V30 2 O 4.235014 -0.382588 2.749363 0
M  V30 3 C 3.803345 -0.583348 1.590630 0
M  V30 4 C 4.325419 -0.949470 0.388529 0
M  V30 5 C 3.735461 -1.135959 -0.835010 0
M  V30 6 C 4.503536 -1.538379 -1.997586 0
M  V30 7 N 5.751643 -1.140202 -2.242982 0
M  V30 8 N 6.208831 -1.669654 -3.382814 0
M  V30 9 C 5.218966 -2.446110 -3.902604 0
M  V30 10 N 4.203462 -2.343712 -3.040060 0
M  V30 11 C 2.938696 -3.026167 -3.216530 0
M  V30 12 C 2.361423 -0.899556 -0.799111 0
M  V30 13 C 1.678721 -0.518921 0.358027 0
M  V30 14 C 2.405317 -0.363147 1.550622 0
M  V30 15 N 1.586935 -0.001786 2.671024 0
M  V30 16 C 0.211523 0.220251 2.935518 0
M  V30 17 N -0.038251 0.446411 4.263112 0
M  V30 18 C -1.269775 0.645424 4.724545 0
M  V30 19 C -2.265044 0.610099 3.795067 0
M  V30 20 C -3.539374 0.787410 4.246767 0
M  V30 21 C -4.649842 0.760919 3.450578 0
M  V30 22 C -6.015448 0.961044 3.992513 0
M  V30 23 N -4.449765 0.548352 2.155103 0
M  V30 24 C -3.204206 0.362326 1.629276 0
M  V30 25 N -2.849224 0.184376 0.282843 0
M  V30 26 C -2.496231 0.006516 -1.063342 0
M  V30 27 C -2.774024 -1.329342 -1.689420 0
M  V30 28 C -2.320387 -1.235447 -3.137688 0
M  V30 29 C -1.866551 -2.361837 -1.010492 0
M  V30 30 C -4.187878 -1.794419 -1.619013 0
M  V30 31 C -2.065347 0.387195 2.443913 0
M  V30 32 N -0.785691 0.185305 1.992969 0
M  V30 33 H 5.709527 0.684685 3.731904 0
M  V30 34 H 6.080566 -1.091895 3.515183 0
M  V30 35 H 4.879988 -0.599644 4.701381 0
M  V30 36 H 5.409828 -1.108301 0.467860 0
M  V30 37 H 5.265817 -3.020563 -4.830740 0
M  V30 38 H 2.488667 -3.351376 -2.277081 0
M  V30 39 H 2.253096 -2.277068 -3.693027 0
M  V30 40 H 3.039222 -3.927575 -3.874129 0
M  V30 41 H 1.839157 -1.023293 -1.736810 0
M  V30 42 H 0.627149 -0.380599 0.195989 0
M  V30 43 H 2.241257 0.127423 3.502524 0
M  V30 44 H -1.428121 0.821159 5.786226 0
M  V30 45 H -3.737716 0.963727 5.288455 0
M  V30 46 H -6.342666 0.083724 4.610475 0
M  V30 47 H -6.055636 1.836823 4.688876 0
M  V30 48 H -6.783911 1.119275 3.236451 0
M  V30 49 H -3.840267 0.133007 -0.114122 0
M  V30 50 H -2.831368 0.842730 -1.758603 0
M  V30 51 H -1.349199 0.154533 -1.123208 0
M  V30 52 H -1.351563 -1.727735 -3.266308 0
M  V30 53 H -3.064740 -1.753789 -3.798721 0
M  V30 54 H -2.298162 -0.175373 -3.470133 0
M  V30 55 H -1.735038 -2.168119 0.068217 0
M  V30 56 H -0.869195 -2.246589 -1.521242 0
M  V30 57 H -2.224590 -3.390333 -1.210044 0
M  V30 58 H -4.909391 -1.016955 -1.360125 0
M  V30 59 H -4.261574 -2.604852 -0.847374 0
M  V30 60 H -4.439282 -2.292379 -2.593822 0
M  V30 END ATOM
M  V30 BEGIN BOND
M  V30 1 1 1 2
M  V30 2 1 2 3
M  V30 3 2 3 4
M  V30 4 1 4 5
M  V30 5 1 5 6
M  V30 6 2 6 7
M  V30 7 1 7 8
M  V30 8 2 8 9
M  V30 9 1 9 10
M  V30 10 1 10 11
M  V30 11 2 5 12
M  V30 12 1 12 13
M  V30 13 2 13 14
M  V30 14 1 14 15
M  V30 15 1 15 16
M  V30 16 2 16 17
M  V30 17 1 17 18
M  V30 18 2 18 19
M  V30 19 1 19 20
M  V30 20 2 20 21
M  V30 21 1 21 22
M  V30 22 1 21 23
M  V30 23 2 23 24
M  V30 24 1 24 25
M  V30 25 1 25 26
M  V30 26 1 26 27
M  V30 27 1 27 28
M  V30 28 1 27 29
M  V30 29 1 27 30
M  V30 30 1 24 31
M  V30 31 2 31 32
M  V30 32 1 14 3
M  V30 33 1 32 16
M  V30 34 1 10 6
M  V30 35 1 31 19
M  V30 36 1 1 33
M  V30 37 1 1 34
M  V30 38 1 1 35
M  V30 39 1 4 36
M  V30 40 1 9 37
M  V30 41 1 11 38
M  V30 42 1 11 39
M  V30 43 1 11 40
M  V30 44 1 12 41
M  V30 45 1 13 42
M  V30 46 1 15 43
M  V30 47 1 18 44
M  V30 48 1 20 45
M  V30 49 1 22 46
M  V30 50 1 22 47
M  V30 51 1 22 48
M  V30 52 1 25 49
M  V30 53 1 26 50
M  V30 54 1 26 51
M  V30 55 1 28 52
M  V30 56 1 28 53
M  V30 57 1 28 54
M  V30 58 1 29 55
M  V30 59 1 29 56
M  V30 60 1 29 57
M  V30 61 1 30 58
M  V30 62 1 30 59
M  V30 63 1 30 60
M  V30 END BOND
M  V30 END CTAB
M  END
>  <Dataset>  (928) 
ChEMBL_Kinases

>  <Ligand_Instance>  (928) 
nan

>  <PDB_ID>  (928) 
nan

>  <Standardized_SMILES>  (928) 
COc1cc(-c2nncn2C)ccc1Nc1ncc2cc(C)nc(NCC(C)(C)C)c2n1

>  <Name>  (928) 
nan

>  <Pocket>  (928) 
nan

>  <ATP_Site>  (928) 
nan

>  <Peripheral>  (928) 
nan

>  <Num_H_Atoms_ProtBoundConf>  (928) 
nan

>  <Num_Resolved_Atoms>  (928) 
nan

>  <Num_Not_Resolved_Atoms>  (928) 
nan

$$$$
CHEMBL4876111
     RDKit          3D

  0  0  0  0  0  0  0  0  0  0999 V3000
M  V30 BEGIN CTAB
M  V30 COUNTS 46 49 0 0 0
M  V30 BEGIN ATOM
M  V30 1 C -1.746533 -3.443165 0.146372 0
M  V30 2 C -2.608410 -2.738456 1.102666 0
M  V30 3 C -2.476439 -1.377146 1.229700 0
M  V30 4 C -1.699671 -0.277879 0.690728 0
M  V30 5 O -1.779828 0.962994 0.998030 0
M  V30 6 N -0.687214 -0.369790 -0.295128 0
M  V30 7 C 0.027733 0.766932 -0.767995 0
M  V30 8 C -0.472162 1.463532 -1.863834 0
M  V30 9 C 0.239785 2.555558 -2.296521 0
M  V30 10 C 1.405661 2.949981 -1.671911 0
M  V30 11 C 1.872450 2.232742 -0.584785 0
M  V30 12 C 3.106212 2.664512 0.062443 0
M  V30 13 N 3.620619 3.884779 0.316210 0
M  V30 14 N 4.793074 3.749731 0.939712 0
M  V30 15 C 5.014893 2.425753 1.077756 0
M  V30 16 N 3.984002 1.740456 0.541973 0
M  V30 17 C 4.013239 0.308495 0.579618 0
M  V30 18 C 4.130696 -0.125451 2.040977 0
M  V30 19 C 5.206453 -0.291477 -0.141526 0
M  V30 20 N 1.177736 1.174338 -0.169446 0
M  V30 21 O -3.372060 -1.028745 2.151898 0
M  V30 22 C -4.018385 -2.071209 2.576587 0
M  V30 23 C -5.030803 -2.206618 3.520550 0
M  V30 24 C -5.542322 -3.484089 3.772453 0
M  V30 25 C -5.067496 -4.607883 3.108754 0
M  V30 26 C -4.059372 -4.495816 2.164560 0
M  V30 27 C -3.584969 -3.219062 1.948053 0
M  V30 28 H -0.682246 -3.312970 0.447468 0
M  V30 29 H -1.948476 -3.069591 -0.867522 0
M  V30 30 H -1.999013 -4.532868 0.177726 0
M  V30 31 H -0.434535 -1.276536 -0.705370 0
M  V30 32 H -1.388872 1.157267 -2.358652 0
M  V30 33 H -0.142808 3.107762 -3.153448 0
M  V30 34 H 1.933435 3.822627 -2.053038 0
M  V30 35 H 5.935097 2.143434 1.569843 0
M  V30 36 H 3.113193 -0.174321 0.200978 0
M  V30 37 H 4.071190 -1.235354 2.043601 0
M  V30 38 H 3.211350 0.221799 2.578626 0
M  V30 39 H 5.063559 0.227389 2.505376 0
M  V30 40 H 5.902287 0.492612 -0.511984 0
M  V30 41 H 5.732718 -1.065631 0.475162 0
M  V30 42 H 4.873170 -0.849060 -1.061031 0
M  V30 43 H -5.398653 -1.330673 4.035707 0
M  V30 44 H -6.338960 -3.619328 4.509878 0
M  V30 45 H -5.448361 -5.602556 3.288218 0
M  V30 46 H -3.612670 -5.293487 1.588472 0
M  V30 END ATOM
M  V30 BEGIN BOND
M  V30 1 1 1 2
M  V30 2 2 2 3
M  V30 3 1 3 4
M  V30 4 2 4 5
M  V30 5 1 4 6
M  V30 6 1 6 7
M  V30 7 2 7 8
M  V30 8 1 8 9
M  V30 9 2 9 10
M  V30 10 1 10 11
M  V30 11 1 11 12
M  V30 12 2 12 13
M  V30 13 1 13 14
M  V30 14 2 14 15
M  V30 15 1 15 16
M  V30 16 1 16 17
M  V30 17 1 17 18
M  V30 18 1 17 19
M  V30 19 2 11 20
M  V30 20 1 3 21
M  V30 21 1 21 22
M  V30 22 2 22 23
M  V30 23 1 23 24
M  V30 24 2 24 25
M  V30 25 1 25 26
M  V30 26 2 26 27
M  V30 27 1 27 2
M  V30 28 1 20 7
M  V30 29 1 27 22
M  V30 30 1 16 12
M  V30 31 1 1 28
M  V30 32 1 1 29
M  V30 33 1 1 30
M  V30 34 1 6 31
M  V30 35 1 8 32
M  V30 36 1 9 33
M  V30 37 1 10 34
M  V30 38 1 15 35
M  V30 39 1 17 36
M  V30 40 1 18 37
M  V30 41 1 18 38
M  V30 42 1 18 39
M  V30 43 1 19 40
M  V30 44 1 19 41
M  V30 45 1 19 42
M  V30 46 1 23 43
M  V30 47 1 24 44
M  V30 48 1 25 45
M  V30 49 1 26 46
M  V30 END BOND
M  V30 END CTAB
M  END
>  <Dataset>  (929) 
ChEMBL_Kinases

>  <Ligand_Instance>  (929) 
nan

>  <PDB_ID>  (929) 
nan

>  <Standardized_SMILES>  (929) 
Cc1c(C(=O)Nc2cccc(-c3nncn3C(C)C)n2)oc2ccccc12

>  <Name>  (929) 
nan

>  <Pocket>  (929) 
nan

>  <ATP_Site>  (929) 
nan

>  <Peripheral>  (929) 
nan

>  <Num_H_Atoms_ProtBoundConf>  (929) 
nan

>  <Num_Resolved_Atoms>  (929) 
nan

>  <Num_Not_Resolved_Atoms>  (929) 
nan

$$$$
CHEMBL4876135
     RDKit          3D

  0  0  0  0  0  0  0  0  0  0999 V3000
M  V30 BEGIN CTAB
M  V30 COUNTS 41 45 0 0 0
M  V30 BEGIN ATOM
M  V30 1 C 1.672049 -6.582128 1.484436 0
M  V30 2 C 0.578264 -6.118033 2.158442 0
M  V30 3 C -0.033425 -4.882237 1.926064 0
M  V30 4 C 0.546029 -4.125092 0.942738 0
M  V30 5 C -0.050500 -2.818277 0.650201 0
M  V30 6 C 0.752029 -1.787181 0.213207 0
M  V30 7 C 0.313437 -0.507846 -0.097074 0
M  V30 8 C -1.036039 -0.282061 0.054042 0
M  V30 9 C -1.462184 0.989701 -0.261611 0
M  V30 10 N -0.686149 2.085667 -0.710485 0
M  V30 11 C 0.389006 2.754163 -0.010290 0
M  V30 12 C 1.105967 3.698131 -0.745975 0
M  V30 13 C 2.128507 4.361518 -0.101639 0
M  V30 14 C 2.335466 4.009724 1.234292 0
M  V30 15 S 3.625469 4.704337 2.399610 0
M  V30 16 C 2.958494 3.549967 3.769582 0
M  V30 17 N 2.129217 3.014947 3.239438 0
M  V30 18 C 1.654316 3.082750 2.008110 0
M  V30 19 C 0.646353 2.455014 1.307763 0
M  V30 20 C -2.828013 1.248151 -0.126277 0
M  V30 21 C -3.658636 0.220500 0.313114 0
M  V30 22 N -3.207004 -1.012766 0.614392 0
M  V30 23 C -1.883608 -1.267317 0.484031 0
M  V30 24 C -1.398319 -2.520715 0.779093 0
M  V30 25 C 1.662613 -4.522608 0.206986 0
M  V30 26 C 2.195563 -5.753486 0.505851 0
M  V30 27 H 2.068676 -7.555705 1.742817 0
M  V30 28 H 0.146043 -6.762125 2.940760 0
M  V30 29 H -0.900080 -4.545697 2.479656 0
M  V30 30 H 1.811686 -1.999836 0.105190 0
M  V30 31 H 0.998874 0.229125 -0.434856 0
M  V30 32 H -0.982267 2.377418 -1.642964 0
M  V30 33 H 0.947560 3.969784 -1.774168 0
M  V30 34 H 2.787908 5.103440 -0.465256 0
M  V30 35 H 3.091008 3.189255 4.961809 0
M  V30 36 H 0.030049 1.705756 1.786218 0
M  V30 37 H -3.279289 2.192709 -0.340579 0
M  V30 38 H -4.736371 0.317377 0.451982 0
M  V30 39 H -2.045007 -3.318517 1.121322 0
M  V30 40 H 2.116713 -3.920817 -0.569038 0
M  V30 41 H 3.048434 -6.073041 -0.045852 0
M  V30 END ATOM
M  V30 BEGIN BOND
M  V30 1 2 1 2
M  V30 2 1 2 3
M  V30 3 2 3 4
M  V30 4 1 4 5
M  V30 5 2 5 6
M  V30 6 1 6 7
M  V30 7 2 7 8
M  V30 8 1 8 9
M  V30 9 1 9 10
M  V30 10 1 10 11
M  V30 11 2 11 12
M  V30 12 1 12 13
M  V30 13 2 13 14
M  V30 14 1 14 15
M  V30 15 1 15 16
M  V30 16 2 16 17
M  V30 17 1 17 18
M  V30 18 2 18 19
M  V30 19 2 9 20
M  V30 20 1 20 21
M  V30 21 2 21 22
M  V30 22 1 22 23
M  V30 23 2 23 24
M  V30 24 1 4 25
M  V30 25 2 25 26
M  V30 26 1 26 1
M  V30 27 1 24 5
M  V30 28 1 23 8
M  V30 29 1 19 11
M  V30 30 1 18 14
M  V30 31 1 1 27
M  V30 32 1 2 28
M  V30 33 1 3 29
M  V30 34 1 6 30
M  V30 35 1 7 31
M  V30 36 1 10 32
M  V30 37 1 12 33
M  V30 38 1 13 34
M  V30 39 1 16 35
M  V30 40 1 19 36
M  V30 41 1 20 37
M  V30 42 1 21 38
M  V30 43 1 24 39
M  V30 44 1 25 40
M  V30 45 1 26 41
M  V30 END BOND
M  V30 END CTAB
M  END
>  <Dataset>  (930) 
ChEMBL_Kinases

>  <Ligand_Instance>  (930) 
nan

>  <PDB_ID>  (930) 
nan

>  <Standardized_SMILES>  (930) 
c1ccc(-c2ccc3c(Nc4ccc5scnc5c4)ccnc3c2)cc1

>  <Name>  (930) 
nan

>  <Pocket>  (930) 
nan

>  <ATP_Site>  (930) 
nan

>  <Peripheral>  (930) 
nan

>  <Num_H_Atoms_ProtBoundConf>  (930) 
nan

>  <Num_Resolved_Atoms>  (930) 
nan

>  <Num_Not_Resolved_Atoms>  (930) 
nan

$$$$
CHEMBL3932888
     RDKit          3D

  0  0  0  0  0  0  0  0  0  0999 V3000
M  V30 BEGIN CTAB
M  V30 COUNTS 44 48 0 0 0
M  V30 BEGIN ATOM
M  V30 1 O -1.028210 0.093189 6.689982 0
M  V30 2 C -0.914647 -0.534895 5.605943 0
M  V30 3 C -1.093835 -2.004423 5.414647 0
M  V30 4 O 0.014255 -2.514555 4.686797 0
M  V30 5 C 0.383321 -1.922526 3.486455 0
M  V30 6 C 1.013537 -2.583198 2.451144 0
M  V30 7 C 1.357633 -1.941434 1.277861 0
M  V30 8 C 1.046808 -0.601948 1.173954 0
M  V30 9 C 1.415775 0.114842 -0.098626 0
M  V30 10 O 2.687485 -0.199434 -0.514029 0
M  V30 11 C 1.220521 1.567936 0.098472 0
M  V30 12 C 1.893673 2.474897 0.925472 0
M  V30 13 C 1.535958 3.826868 0.960234 0
M  V30 14 C 0.495161 4.204406 0.141648 0
M  V30 15 C -0.223230 3.366846 -0.707465 0
M  V30 16 C 0.193128 2.045876 -0.682514 0
M  V30 17 C -0.372658 0.944863 -1.470140 0
M  V30 18 O -1.314979 0.985339 -2.290089 0
M  V30 19 N 0.387382 -0.198293 -1.100134 0
M  V30 20 C 0.139365 -1.489368 -1.666782 0
M  V30 21 C -0.702450 -2.479519 -1.204721 0
M  V30 22 C -0.770790 -3.656016 -1.949862 0
M  V30 23 C -0.034633 -3.832986 -3.098240 0
M  V30 24 F -0.172310 -5.013733 -3.750830 0
M  V30 25 C 0.798959 -2.836784 -3.544304 0
M  V30 26 F 1.496348 -3.077012 -4.684536 0
M  V30 27 C 0.880235 -1.660023 -2.816965 0
M  V30 28 C 0.415310 0.059439 2.211758 0
M  V30 29 C 0.069484 -0.581543 3.388261 0
M  V30 30 N -0.583947 0.181896 4.415226 0
M  V30 31 H -1.999786 -2.183772 4.790385 0
M  V30 32 H -1.166785 -2.544273 6.372721 0
M  V30 33 H 1.212604 -3.645959 2.641438 0
M  V30 34 H 1.849040 -2.521676 0.511085 0
M  V30 35 H 3.094004 -0.938115 0.012506 0
M  V30 36 H 2.714671 2.175104 1.571078 0
M  V30 37 H 2.016099 4.557463 1.572977 0
M  V30 38 H 0.179853 5.251159 0.134547 0
M  V30 39 H -1.030704 3.731660 -1.324648 0
M  V30 40 H -1.219487 -2.232956 -0.310156 0
M  V30 41 H -1.448404 -4.414800 -1.551539 0
M  V30 42 H 1.572148 -0.947606 -3.268693 0
M  V30 43 H 0.193223 1.110680 2.079799 0
M  V30 44 H -0.801241 1.193564 4.297470 0
M  V30 END ATOM
M  V30 BEGIN BOND
M  V30 1 2 1 2
M  V30 2 1 2 3
M  V30 3 1 3 4
M  V30 4 1 4 5
M  V30 5 2 5 6
M  V30 6 1 6 7
M  V30 7 2 7 8
M  V30 8 1 8 9
M  V30 9 1 9 10
M  V30 10 1 9 11
M  V30 11 2 11 12
M  V30 12 1 12 13
M  V30 13 2 13 14
M  V30 14 1 14 15
M  V30 15 2 15 16
M  V30 16 1 16 17
M  V30 17 2 17 18
M  V30 18 1 17 19
M  V30 19 1 19 20
M  V30 20 2 20 21
M  V30 21 1 21 22
M  V30 22 2 22 23
M  V30 23 1 23 24
M  V30 24 1 23 25
M  V30 25 1 25 26
M  V30 26 2 25 27
M  V30 27 1 8 28
M  V30 28 2 28 29
M  V30 29 1 29 30
M  V30 30 1 30 2
M  V30 31 1 29 5
M  V30 32 1 19 9
M  V30 33 1 27 20
M  V30 34 1 16 11
M  V30 35 1 3 31
M  V30 36 1 3 32
M  V30 37 1 6 33
M  V30 38 1 7 34
M  V30 39 1 10 35
M  V30 40 1 12 36
M  V30 41 1 13 37
M  V30 42 1 14 38
M  V30 43 1 15 39
M  V30 44 1 21 40
M  V30 45 1 22 41
M  V30 46 1 27 42
M  V30 47 1 28 43
M  V30 48 1 30 44
M  V30 END BOND
M  V30 END CTAB
M  END
>  <Dataset>  (931) 
ChEMBL_Kinases

>  <Ligand_Instance>  (931) 
nan

>  <PDB_ID>  (931) 
nan

>  <Standardized_SMILES>  (931) 
O=C1COc2ccc(C3(O)c4ccccc4C(=O)N3c3ccc(F)c(F)c3)cc2N1

>  <Name>  (931) 
nan

>  <Pocket>  (931) 
nan

>  <ATP_Site>  (931) 
nan

>  <Peripheral>  (931) 
nan

>  <Num_H_Atoms_ProtBoundConf>  (931) 
nan

>  <Num_Resolved_Atoms>  (931) 
nan

>  <Num_Not_Resolved_Atoms>  (931) 
nan

$$$$
CHEMBL3702165
     RDKit          3D

  0  0  0  0  0  0  0  0  0  0999 V3000
M  V30 BEGIN CTAB
M  V30 COUNTS 60 65 0 0 0
M  V30 BEGIN ATOM
M  V30 1 O 4.254376 -4.266707 4.781508 0
M  V30 2 S 4.630642 -4.117458 3.336838 0
M  V30 3 O 5.413887 -5.310096 2.853407 0
M  V30 4 C 5.544644 -2.616944 3.055082 0
M  V30 5 C 4.619997 -1.674269 2.358552 0
M  V30 6 C 4.235074 -2.105304 0.975422 0
M  V30 7 O 5.430989 -2.082038 0.219610 0
M  V30 8 C 3.328923 -1.064862 0.431009 0
M  V30 9 C 3.892725 0.010557 -0.263659 0
M  V30 10 C 3.082377 0.997120 -0.784927 0
M  V30 11 C 1.709729 0.989437 -0.660386 0
M  V30 12 N 0.847969 1.977794 -1.174634 0
M  V30 13 C -0.568574 1.985127 -1.061442 0
M  V30 14 N -1.249189 3.028307 -1.594347 0
M  V30 15 C -2.582842 3.143906 -1.548379 0
M  V30 16 C -3.293726 2.142171 -0.922818 0
M  V30 17 C -4.648904 1.988019 -0.719925 0
M  V30 18 C -5.701472 2.811829 -1.094941 0
M  V30 19 C -6.989326 2.422910 -0.763038 0
M  V30 20 N -7.154556 1.264574 -0.092958 0
M  V30 21 C -6.128212 0.500262 0.250661 0
M  V30 22 C -4.810175 0.795790 -0.031137 0
M  V30 23 N -3.581909 0.279303 0.156049 0
M  V30 24 C -3.415011 -0.962882 0.839952 0
M  V30 25 C -3.965418 -2.151032 0.037941 0
M  V30 26 C -2.902126 -2.241723 -1.063770 0
M  V30 27 C -1.645038 -2.209068 -0.215225 0
M  V30 28 C -2.012736 -1.420145 1.044729 0
M  V30 29 C -2.628780 1.067423 -0.371054 0
M  V30 30 N -1.288008 1.026931 -0.460031 0
M  V30 31 N 1.205285 -0.058292 0.012420 0
M  V30 32 C 1.966025 -1.032324 0.530507 0
M  V30 33 C 3.702139 -3.488160 0.944264 0
M  V30 34 C 3.190089 -3.975468 2.301547 0
M  V30 35 H 6.439237 -2.866660 2.447765 0
M  V30 36 H 5.863511 -2.132698 4.000770 0
M  V30 37 H 5.031719 -0.625107 2.317761 0
M  V30 38 H 3.695595 -1.573963 2.962771 0
M  V30 39 H 5.448205 -2.789596 -0.473446 0
M  V30 40 H 4.963262 0.054603 -0.383580 0
M  V30 41 H 3.529626 1.827410 -1.322283 0
M  V30 42 H 1.326437 2.740623 -1.666532 0
M  V30 43 H -3.074533 4.010343 -1.997150 0
M  V30 44 H -5.547526 3.728843 -1.627420 0
M  V30 45 H -7.802044 3.064752 -1.055972 0
M  V30 46 H -6.318440 -0.419809 0.790803 0
M  V30 47 H -3.960851 -0.959827 1.812403 0
M  V30 48 H -4.947978 -1.974042 -0.388017 0
M  V30 49 H -3.937422 -3.040944 0.688397 0
M  V30 50 H -2.997642 -1.302369 -1.641771 0
M  V30 51 H -3.045931 -3.163282 -1.625020 0
M  V30 52 H -1.300450 -3.235241 0.036988 0
M  V30 53 H -0.870249 -1.718164 -0.816281 0
M  V30 54 H -1.948150 -2.107855 1.917870 0
M  V30 55 H -1.254938 -0.660318 1.194340 0
M  V30 56 H 1.495389 -1.837367 1.054259 0
M  V30 57 H 4.527850 -4.186278 0.693744 0
M  V30 58 H 2.944424 -3.662729 0.154919 0
M  V30 59 H 2.687888 -4.953089 2.162831 0
M  V30 60 H 2.520821 -3.216887 2.719895 0
M  V30 END ATOM
M  V30 BEGIN BOND
M  V30 1 2 1 2
M  V30 2 2 2 3
M  V30 3 1 2 4
M  V30 4 1 4 5
M  V30 5 1 5 6
M  V30 6 1 6 7
M  V30 7 1 6 8
M  V30 8 2 8 9
M  V30 9 1 9 10
M  V30 10 2 10 11
M  V30 11 1 11 12
M  V30 12 1 12 13
M  V30 13 2 13 14
M  V30 14 1 14 15
M  V30 15 2 15 16
M  V30 16 1 16 17
M  V30 17 2 17 18
M  V30 18 1 18 19
M  V30 19 2 19 20
M  V30 20 1 20 21
M  V30 21 2 21 22
M  V30 22 1 22 23
M  V30 23 1 23 24
M  V30 24 1 24 25
M  V30 25 1 25 26
M  V30 26 1 26 27
M  V30 27 1 27 28
M  V30 28 1 23 29
M  V30 29 2 29 30
M  V30 30 1 11 31
M  V30 31 2 31 32
M  V30 32 1 6 33
M  V30 33 1 33 34
M  V30 34 1 34 2
M  V30 35 1 32 8
M  V30 36 1 30 13
M  V30 37 1 29 16
M  V30 38 1 22 17
M  V30 39 1 28 24
M  V30 40 1 4 35
M  V30 41 1 4 36
M  V30 42 1 5 37
M  V30 43 1 5 38
M  V30 44 1 7 39
M  V30 45 1 9 40
M  V30 46 1 10 41
M  V30 47 1 12 42
M  V30 48 1 15 43
M  V30 49 1 18 44
M  V30 50 1 19 45
M  V30 51 1 21 46
M  V30 52 1 24 47
M  V30 53 1 25 48
M  V30 54 1 25 49
M  V30 55 1 26 50
M  V30 56 1 26 51
M  V30 57 1 27 52
M  V30 58 1 27 53
M  V30 59 1 28 54
M  V30 60 1 28 55
M  V30 61 1 32 56
M  V30 62 1 33 57
M  V30 63 1 33 58
M  V30 64 1 34 59
M  V30 65 1 34 60
M  V30 END BOND
M  V30 END CTAB
M  END
>  <Dataset>  (932) 
ChEMBL_Kinases

>  <Ligand_Instance>  (932) 
nan

>  <PDB_ID>  (932) 
nan

>  <Standardized_SMILES>  (932) 
O=S1(=O)CCC(O)(c2ccc(Nc3ncc4c5ccncc5n(C5CCCC5)c4n3)nc2)CC1

>  <Name>  (932) 
nan

>  <Pocket>  (932) 
nan

>  <ATP_Site>  (932) 
nan

>  <Peripheral>  (932) 
nan

>  <Num_H_Atoms_ProtBoundConf>  (932) 
nan

>  <Num_Resolved_Atoms>  (932) 
nan

>  <Num_Not_Resolved_Atoms>  (932) 
nan

$$$$
CHEMBL3932622
     RDKit          3D

  0  0  0  0  0  0  0  0  0  0999 V3000
M  V30 BEGIN CTAB
M  V30 COUNTS 68 72 0 0 0
M  V30 BEGIN ATOM
M  V30 1 C 7.889791 -3.087741 1.022676 0
M  V30 2 O 6.766719 -2.315752 0.722571 0
M  V30 3 C 6.736970 -1.935150 -0.607555 0
M  V30 4 C 5.461219 -1.084554 -0.851320 0
M  V30 5 C 4.330088 -1.972907 -0.507252 0
M  V30 6 C 5.398714 -0.838989 -2.358587 0
M  V30 7 C 5.664651 0.168437 -0.087218 0
M  V30 8 O 4.738685 1.155696 -0.090646 0
M  V30 9 C 3.523513 1.470810 0.248537 0
M  V30 10 O 3.453405 0.310827 0.702868 0
M  V30 11 N 2.219242 1.808545 0.612768 0
M  V30 12 C 1.063312 1.272265 1.238104 0
M  V30 13 N 0.172720 0.672327 0.406511 0
M  V30 14 C -0.868054 0.208556 1.109300 0
M  V30 15 C -2.066148 -0.472992 0.870116 0
M  V30 16 C -2.920871 -0.788918 1.902297 0
M  V30 17 C -4.173404 -1.497810 1.633407 0
M  V30 18 O -4.832833 -1.856195 2.833888 0
M  V30 19 C -3.946382 -2.803949 0.938805 0
M  V30 20 C -3.133495 -3.863999 1.350648 0
M  V30 21 C -3.076600 -4.975715 0.536573 0
M  V30 22 C -3.776951 -5.092023 -0.654701 0
M  V30 23 C -4.566452 -4.026461 -1.025120 0
M  V30 24 C -4.662779 -2.885153 -0.248829 0
M  V30 25 C -5.407083 -1.638926 -0.392528 0
M  V30 26 O -6.168303 -1.372179 -1.366131 0
M  V30 27 N -5.091139 -0.838212 0.759428 0
M  V30 28 C -5.694155 0.463991 0.918895 0
M  V30 29 C -4.943090 1.568267 0.320391 0
M  V30 30 C -5.206396 1.919464 -1.002847 0
M  V30 31 C -4.571232 2.940452 -1.688271 0
M  V30 32 C -3.611369 3.652883 -1.000315 0
M  V30 33 C -3.306510 3.353408 0.309411 0
M  V30 34 C -3.971488 2.325689 0.941357 0
M  V30 35 C -2.613582 -0.437097 3.215742 0
M  V30 36 C -1.431550 0.231552 3.424310 0
M  V30 37 C -0.559284 0.557725 2.395916 0
M  V30 38 N 0.613463 1.207248 2.498883 0
M  V30 39 H 7.856324 -4.013011 0.379224 0
M  V30 40 H 7.854667 -3.450152 2.068527 0
M  V30 41 H 8.826500 -2.534680 0.813707 0
M  V30 42 H 7.576536 -1.311027 -0.925960 0
M  V30 43 H 6.683333 -2.865131 -1.244855 0
M  V30 44 H 4.596864 -2.986530 -0.976270 0
M  V30 45 H 4.248524 -2.240700 0.568524 0
M  V30 46 H 3.359724 -1.749157 -0.999114 0
M  V30 47 H 4.344648 -0.972076 -2.730052 0
M  V30 48 H 5.696696 0.183717 -2.638503 0
M  V30 49 H 5.990603 -1.612680 -2.898833 0
M  V30 50 H 6.063981 -0.063029 0.966317 0
M  V30 51 H 6.608188 0.633884 -0.546018 0
M  V30 52 H 2.542047 2.706526 0.162159 0
M  V30 53 H -2.265234 -0.727473 -0.166746 0
M  V30 54 H -4.235304 -2.392285 3.410760 0
M  V30 55 H -2.548605 -3.868572 2.262777 0
M  V30 56 H -2.473328 -5.859428 0.763166 0
M  V30 57 H -3.723477 -5.972881 -1.286428 0
M  V30 58 H -5.161695 -4.017407 -1.949727 0
M  V30 59 H -5.779047 0.660086 2.025598 0
M  V30 60 H -6.767738 0.432348 0.577898 0
M  V30 61 H -5.959166 1.358753 -1.536957 0
M  V30 62 H -4.845846 3.132551 -2.707416 0
M  V30 63 H -3.085183 4.461382 -1.490422 0
M  V30 64 H -2.568733 3.892676 0.855765 0
M  V30 65 H -3.746896 2.067251 1.985216 0
M  V30 66 H -3.293173 -0.689939 4.026261 0
M  V30 67 H -1.208273 0.497964 4.457518 0
M  V30 68 H 1.162497 1.614733 3.276569 0
M  V30 END ATOM
M  V30 BEGIN BOND
M  V30 1 1 1 2
M  V30 2 1 2 3
M  V30 3 1 3 4
M  V30 4 1 4 5
M  V30 5 1 4 6
M  V30 6 1 4 7
M  V30 7 1 7 8
M  V30 8 1 8 9
M  V30 9 2 9 10
M  V30 10 1 9 11
M  V30 11 1 11 12
M  V30 12 2 12 13
M  V30 13 1 13 14
M  V30 14 2 14 15
M  V30 15 1 15 16
M  V30 16 1 16 17
M  V30 17 1 17 18
M  V30 18 1 17 19
M  V30 19 2 19 20
M  V30 20 1 20 21
M  V30 21 2 21 22
M  V30 22 1 22 23
M  V30 23 2 23 24
M  V30 24 1 24 25
M  V30 25 2 25 26
M  V30 26 1 25 27
M  V30 27 1 27 28
M  V30 28 1 28 29
M  V30 29 2 29 30
M  V30 30 1 30 31
M  V30 31 2 31 32
M  V30 32 1 32 33
M  V30 33 2 33 34
M  V30 34 2 16 35
M  V30 35 1 35 36
M  V30 36 2 36 37
M  V30 37 1 37 38
M  V30 38 1 38 12
M  V30 39 1 37 14
M  V30 40 1 27 17
M  V30 41 1 34 29
M  V30 42 1 24 19
M  V30 43 1 1 39
M  V30 44 1 1 40
M  V30 45 1 1 41
M  V30 46 1 3 42
M  V30 47 1 3 43
M  V30 48 1 5 44
M  V30 49 1 5 45
M  V30 50 1 5 46
M  V30 51 1 6 47
M  V30 52 1 6 48
M  V30 53 1 6 49
M  V30 54 1 7 50
M  V30 55 1 7 51
M  V30 56 1 11 52
M  V30 57 1 15 53
M  V30 58 1 18 54
M  V30 59 1 20 55
M  V30 60 1 21 56
M  V30 61 1 22 57
M  V30 62 1 23 58
M  V30 63 1 28 59
M  V30 64 1 28 60
M  V30 65 1 30 61
M  V30 66 1 31 62
M  V30 67 1 32 63
M  V30 68 1 33 64
M  V30 69 1 34 65
M  V30 70 1 35 66
M  V30 71 1 36 67
M  V30 72 1 38 68
M  V30 END BOND
M  V30 END CTAB
M  END
>  <Dataset>  (933) 
ChEMBL_Kinases

>  <Ligand_Instance>  (933) 
nan

>  <PDB_ID>  (933) 
nan

>  <Standardized_SMILES>  (933) 
COCC(C)(C)COC(=O)Nc1nc2cc(C3(O)c4ccccc4C(=O)N3Cc3ccccc3)ccc2[nH]1

>  <Name>  (933) 
nan

>  <Pocket>  (933) 
nan

>  <ATP_Site>  (933) 
nan

>  <Peripheral>  (933) 
nan

>  <Num_H_Atoms_ProtBoundConf>  (933) 
nan

>  <Num_Resolved_Atoms>  (933) 
nan

>  <Num_Not_Resolved_Atoms>  (933) 
nan

$$$$
CHEMBL393256
     RDKit          3D

  0  0  0  0  0  0  0  0  0  0999 V3000
M  V30 BEGIN CTAB
M  V30 COUNTS 77 82 0 0 0
M  V30 BEGIN ATOM
M  V30 1 C 1.265870 -5.934827 -0.070961 0
M  V30 2 C 2.037772 -5.296306 1.069838 0
M  V30 3 O 3.043945 -4.486753 0.489734 0
M  V30 4 C 3.946322 -3.744077 1.222670 0
M  V30 5 O 3.822084 -3.827050 2.472501 0
M  V30 6 N 4.921507 -2.961043 0.546038 0
M  V30 7 C 5.177791 -2.775471 -0.865094 0
M  V30 8 C 4.784598 -1.368860 -1.244898 0
M  V30 9 N 4.863602 -0.519371 -0.135431 0
M  V30 10 C 4.083464 0.646060 -0.073412 0
M  V30 11 C 2.621974 0.418559 -0.144489 0
M  V30 12 C 1.750430 0.208417 0.902995 0
M  V30 13 C 0.405478 0.005992 0.710086 0
M  V30 14 N -0.052715 0.017474 -0.556806 0
M  V30 15 C -1.315711 -0.155921 -0.995084 0
M  V30 16 C -2.564655 -0.407211 -0.282443 0
M  V30 17 C -3.167391 -1.630195 -0.601478 0
M  V30 18 C -4.355491 -1.924980 0.042626 0
M  V30 19 N -4.928735 -1.107265 0.930631 0
M  V30 20 C -4.322072 0.074247 1.222439 0
M  V30 21 N -4.812881 1.057874 2.153529 0
M  V30 22 C -4.131928 2.313885 2.444612 0 CFG=1
M  V30 23 C -4.977643 3.061491 3.471333 0
M  V30 24 C -2.776853 2.059697 3.003045 0
M  V30 25 C -1.619448 2.722362 2.625679 0
M  V30 26 C -0.394026 2.429808 3.190400 0
M  V30 27 C -0.324639 1.453738 4.153690 0
M  V30 28 C -1.480443 0.790668 4.532153 0
M  V30 29 C -2.714149 1.079193 3.969097 0
M  V30 30 N -3.159996 0.398921 0.614737 0
M  V30 31 C -1.326429 -0.064661 -2.373427 0
M  V30 32 C -2.339849 -0.154426 -3.420421 0
M  V30 33 C -3.358992 0.773284 -3.469814 0
M  V30 34 C -4.318543 0.688550 -4.457075 0
M  V30 35 C -4.227429 -0.335985 -5.377729 0
M  V30 36 F -5.184746 -0.389128 -6.336147 0
M  V30 37 C -3.197715 -1.249871 -5.304578 0
M  V30 38 C -2.211422 -1.193276 -4.319462 0
M  V30 39 N -0.051564 0.165838 -2.762630 0
M  V30 40 C 0.724801 0.216080 -1.657393 0
M  V30 41 C 2.072191 0.416676 -1.425023 0
M  V30 42 C 5.862598 -0.734508 0.841058 0
M  V30 43 C 5.875803 -2.166793 1.346264 0
M  V30 44 H 0.658645 -5.131352 -0.556939 0
M  V30 45 H 0.615456 -6.757899 0.293361 0
M  V30 46 H 2.012959 -6.281158 -0.811739 0
M  V30 47 H 2.451466 -6.078259 1.743806 0
M  V30 48 H 1.335829 -4.683803 1.700652 0
M  V30 49 H 4.642183 -3.532686 -1.483809 0
M  V30 50 H 6.274017 -2.898411 -1.033929 0
M  V30 51 H 3.744631 -1.474857 -1.669806 0
M  V30 52 H 5.438840 -0.965988 -2.051698 0
M  V30 53 H 4.330240 1.168356 0.897755 0
M  V30 54 H 4.375793 1.345680 -0.866141 0
M  V30 55 H 2.201843 0.215044 1.882043 0
M  V30 56 H -0.264144 -0.154312 1.528992 0
M  V30 57 H -2.739631 -2.323237 -1.312817 0
M  V30 58 H -4.869127 -2.862599 -0.167015 0
M  V30 59 H -5.716842 0.761676 2.596731 0
M  V30 60 H -4.096551 2.961751 1.539450 0
M  V30 61 H -5.077664 2.499752 4.404153 0
M  V30 62 H -4.457335 4.029448 3.627288 0
M  V30 63 H -5.967328 3.293267 3.078898 0
M  V30 64 H -1.814842 3.468790 1.855528 0
M  V30 65 H 0.458377 3.017433 2.816401 0
M  V30 66 H 0.646686 1.235215 4.589043 0
M  V30 67 H -1.310623 0.041654 5.299959 0
M  V30 68 H -3.523790 0.494871 4.351209 0
M  V30 69 H -3.444139 1.575204 -2.762460 0
M  V30 70 H -5.114501 1.419233 -4.487625 0
M  V30 71 H -3.144659 -2.045191 -6.037034 0
M  V30 72 H -1.443703 -1.931639 -4.322747 0
M  V30 73 H 2.653634 0.571061 -2.329046 0
M  V30 74 H 5.681047 -0.107489 1.736284 0
M  V30 75 H 6.855154 -0.500819 0.415710 0
M  V30 76 H 5.640222 -2.274244 2.400422 0
M  V30 77 H 6.884834 -2.578315 1.159436 0
M  V30 END ATOM
M  V30 BEGIN BOND
M  V30 1 1 1 2
M  V30 2 1 2 3
M  V30 3 1 3 4
M  V30 4 2 4 5
M  V30 5 1 4 6
M  V30 6 1 6 7
M  V30 7 1 7 8
M  V30 8 1 8 9
M  V30 9 1 9 10
M  V30 10 1 10 11
M  V30 11 1 11 12
M  V30 12 2 12 13
M  V30 13 1 13 14
M  V30 14 1 14 15
M  V30 15 1 15 16
M  V30 16 2 16 17
M  V30 17 1 17 18
M  V30 18 2 18 19
M  V30 19 1 19 20
M  V30 20 1 20 21
M  V30 21 1 21 22
M  V30 22 1 22 23
M  V30 23 1 22 24
M  V30 24 2 24 25
M  V30 25 1 25 26
M  V30 26 2 26 27
M  V30 27 1 27 28
M  V30 28 2 28 29
M  V30 29 2 20 30
M  V30 30 2 15 31
M  V30 31 1 31 32
M  V30 32 2 32 33
M  V30 33 1 33 34
M  V30 34 2 34 35
M  V30 35 1 35 36
M  V30 36 1 35 37
M  V30 37 2 37 38
M  V30 38 1 31 39
M  V30 39 2 39 40
M  V30 40 1 40 41
M  V30 41 1 9 42
M  V30 42 1 42 43
M  V30 43 1 43 6
M  V30 44 2 41 11
M  V30 45 1 40 14
M  V30 46 1 30 16
M  V30 47 1 38 32
M  V30 48 1 29 24
M  V30 49 1 1 44
M  V30 50 1 1 45
M  V30 51 1 1 46
M  V30 52 1 2 47
M  V30 53 1 2 48
M  V30 54 1 7 49
M  V30 55 1 7 50
M  V30 56 1 8 51
M  V30 57 1 8 52
M  V30 58 1 10 53
M  V30 59 1 10 54
M  V30 60 1 12 55
M  V30 61 1 13 56
M  V30 62 1 17 57
M  V30 63 1 18 58
M  V30 64 1 21 59
M  V30 65 1 22 60 CFG=3
M  V30 66 1 23 61
M  V30 67 1 23 62
M  V30 68 1 23 63
M  V30 69 1 25 64
M  V30 70 1 26 65
M  V30 71 1 27 66
M  V30 72 1 28 67
M  V30 73 1 29 68
M  V30 74 1 33 69
M  V30 75 1 34 70
M  V30 76 1 37 71
M  V30 77 1 38 72
M  V30 78 1 41 73
M  V30 79 1 42 74
M  V30 80 1 42 75
M  V30 81 1 43 76
M  V30 82 1 43 77
M  V30 END BOND
M  V30 END CTAB
M  END
>  <Dataset>  (934) 
ChEMBL_Kinases

>  <Ligand_Instance>  (934) 
nan

>  <PDB_ID>  (934) 
nan

>  <Standardized_SMILES>  (934) 
CCOC(=O)N1CCN(Cc2ccn3c(-c4ccnc(N[C@@H](C)c5ccccc5)n4)c(-c4ccc(F)cc4)nc3c2)CC1

>  <Name>  (934) 
nan

>  <Pocket>  (934) 
nan

>  <ATP_Site>  (934) 
nan

>  <Peripheral>  (934) 
nan

>  <Num_H_Atoms_ProtBoundConf>  (934) 
nan

>  <Num_Resolved_Atoms>  (934) 
nan

>  <Num_Not_Resolved_Atoms>  (934) 
nan

$$$$
CHEMBL4876162
     RDKit          3D

  0  0  0  0  0  0  0  0  0  0999 V3000
M  V30 BEGIN CTAB
M  V30 COUNTS 66 70 0 0 0
M  V30 BEGIN ATOM
M  V30 1 C 4.392428 0.149294 5.360902 0
M  V30 2 C 4.277317 -0.659557 4.067404 0
M  V30 3 C 5.632122 -1.222370 3.694201 0
M  V30 4 C 3.366223 -1.840308 4.346541 0
M  V30 5 C 3.700698 0.218010 3.023376 0
M  V30 6 C 2.319847 0.224073 2.916078 0
M  V30 7 C 1.650017 1.004869 1.976995 0
M  V30 8 C 2.360362 1.808203 1.112619 0
M  V30 9 C 1.764991 2.665335 0.094017 0
M  V30 10 C 0.407056 2.754673 -0.103366 0
M  V30 11 C -0.210032 3.534327 -1.032951 0
M  V30 12 N -1.617225 3.612296 -1.223452 0
M  V30 13 C -2.685031 2.860370 -0.668339 0
M  V30 14 C -3.667781 3.463417 0.106560 0
M  V30 15 C -4.725569 2.739439 0.658721 0
M  V30 16 N -4.818531 1.411256 0.447435 0
M  V30 17 C -3.891472 0.754941 -0.302154 0
M  V30 18 C -4.003686 -0.603271 -0.514840 0
M  V30 19 C -3.077796 -1.284055 -1.277709 0
M  V30 20 C -3.113263 -2.714967 -1.556715 0
M  V30 21 C -1.903168 -3.389990 -1.735119 0
M  V30 22 C -1.897772 -4.731163 -1.997456 0
M  V30 23 C -3.052228 -5.486451 -2.100821 0
M  V30 24 S -2.949876 -7.205161 -2.443645 0
M  V30 25 C -2.815720 -8.060934 -0.909326 0
M  V30 26 O -1.695450 -7.429014 -3.235372 0
M  V30 27 O -4.158404 -7.662330 -3.208632 0
M  V30 28 C -4.246492 -4.822294 -1.925139 0
M  V30 29 C -4.288457 -3.469449 -1.659099 0
M  V30 30 C -2.024760 -0.556570 -1.827112 0
M  V30 31 C -1.948509 0.806273 -1.588996 0
M  V30 32 C -2.865151 1.503736 -0.828382 0
M  V30 33 C 0.559663 4.316029 -1.867132 0
M  V30 34 C 1.930435 4.226352 -1.668562 0
M  V30 35 N 2.502901 3.440966 -0.735477 0
M  V30 36 C 3.733551 1.805683 1.215428 0
M  V30 37 C 4.402438 1.022198 2.157314 0
M  V30 38 H 5.411564 0.565972 5.425232 0
M  V30 39 H 4.116465 -0.477696 6.246973 0
M  V30 40 H 3.635773 0.950555 5.313234 0
M  V30 41 H 6.473698 -0.546405 3.912470 0
M  V30 42 H 5.575615 -1.566196 2.650634 0
M  V30 43 H 5.787288 -2.127073 4.347008 0
M  V30 44 H 3.977749 -2.770274 4.541508 0
M  V30 45 H 2.805992 -1.673084 5.292395 0
M  V30 46 H 2.727049 -2.115514 3.486439 0
M  V30 47 H 1.660825 -0.380657 3.558896 0
M  V30 48 H 0.590917 0.994602 1.910426 0
M  V30 49 H -0.276800 2.177807 0.504851 0
M  V30 50 H -2.073190 4.287414 -1.844611 0
M  V30 51 H -3.594478 4.547768 0.281191 0
M  V30 52 H -5.424714 3.298541 1.237732 0
M  V30 53 H -4.817668 -1.177640 -0.092290 0
M  V30 54 H -0.932160 -2.924118 -1.680690 0
M  V30 55 H -0.952695 -5.279043 -2.141482 0
M  V30 56 H -3.588295 -7.694643 -0.206107 0
M  V30 57 H -1.819974 -7.868177 -0.476844 0
M  V30 58 H -2.955533 -9.152483 -1.006047 0
M  V30 59 H -5.160423 -5.364357 -1.996559 0
M  V30 60 H -5.215753 -2.920144 -1.516194 0
M  V30 61 H -1.287042 -1.061785 -2.426708 0
M  V30 62 H -1.108757 1.300125 -2.051834 0
M  V30 63 H 0.191850 4.976073 -2.643898 0
M  V30 64 H 2.576381 4.826812 -2.306149 0
M  V30 65 H 4.409840 2.403099 0.583648 0
M  V30 66 H 5.479586 1.012363 2.246221 0
M  V30 END ATOM
M  V30 BEGIN BOND
M  V30 1 1 1 2
M  V30 2 1 2 3
M  V30 3 1 2 4
M  V30 4 1 2 5
M  V30 5 2 5 6
M  V30 6 1 6 7
M  V30 7 2 7 8
M  V30 8 1 8 9
M  V30 9 2 9 10
M  V30 10 1 10 11
M  V30 11 1 11 12
M  V30 12 1 12 13
M  V30 13 2 13 14
M  V30 14 1 14 15
M  V30 15 2 15 16
M  V30 16 1 16 17
M  V30 17 2 17 18
M  V30 18 1 18 19
M  V30 19 1 19 20
M  V30 20 2 20 21
M  V30 21 1 21 22
M  V30 22 2 22 23
M  V30 23 1 23 24
M  V30 24 1 24 25
M  V30 25 2 24 26
M  V30 26 2 24 27
M  V30 27 1 23 28
M  V30 28 2 28 29
M  V30 29 2 19 30
M  V30 30 1 30 31
M  V30 31 2 31 32
M  V30 32 2 11 33
M  V30 33 1 33 34
M  V30 34 2 34 35
M  V30 35 1 8 36
M  V30 36 2 36 37
M  V30 37 1 37 5
M  V30 38 1 35 9
M  V30 39 1 32 13
M  V30 40 1 32 17
M  V30 41 1 29 20
M  V30 42 1 1 38
M  V30 43 1 1 39
M  V30 44 1 1 40
M  V30 45 1 3 41
M  V30 46 1 3 42
M  V30 47 1 3 43
M  V30 48 1 4 44
M  V30 49 1 4 45
M  V30 50 1 4 46
M  V30 51 1 6 47
M  V30 52 1 7 48
M  V30 53 1 10 49
M  V30 54 1 12 50
M  V30 55 1 14 51
M  V30 56 1 15 52
M  V30 57 1 18 53
M  V30 58 1 21 54
M  V30 59 1 22 55
M  V30 60 1 25 56
M  V30 61 1 25 57
M  V30 62 1 25 58
M  V30 63 1 28 59
M  V30 64 1 29 60
M  V30 65 1 30 61
M  V30 66 1 31 62
M  V30 67 1 33 63
M  V30 68 1 34 64
M  V30 69 1 36 65
M  V30 70 1 37 66
M  V30 END BOND
M  V30 END CTAB
M  END
>  <Dataset>  (935) 
ChEMBL_Kinases

>  <Ligand_Instance>  (935) 
nan

>  <PDB_ID>  (935) 
nan

>  <Standardized_SMILES>  (935) 
CC(C)(C)c1ccc(-c2cc(Nc3ccnc4cc(-c5ccc(S(C)(=O)=O)cc5)ccc34)ccn2)cc1

>  <Name>  (935) 
nan

>  <Pocket>  (935) 
nan

>  <ATP_Site>  (935) 
nan

>  <Peripheral>  (935) 
nan

>  <Num_H_Atoms_ProtBoundConf>  (935) 
nan

>  <Num_Resolved_Atoms>  (935) 
nan

>  <Num_Not_Resolved_Atoms>  (935) 
nan

$$$$
CHEMBL3932401
     RDKit          3D

  0  0  0  0  0  0  0  0  0  0999 V3000
M  V30 BEGIN CTAB
M  V30 COUNTS 39 42 0 0 0
M  V30 BEGIN ATOM
M  V30 1 N -2.237619 -6.630559 4.194519 0
M  V30 2 C -1.271495 -5.821968 4.852061 0
M  V30 3 O -0.852324 -6.324641 5.925084 0
M  V30 4 C -0.769485 -4.535920 4.394554 0
M  V30 5 C 0.169259 -3.946221 5.214438 0
M  V30 6 C 0.693872 -2.710741 4.836499 0
M  V30 7 C 0.233757 -2.148616 3.649063 0
M  V30 8 N 0.564452 -0.994911 3.064816 0
M  V30 9 C -0.123351 -0.837100 1.919684 0
M  V30 10 C -0.087241 0.261437 0.958316 0
M  V30 11 C -0.872394 0.269269 -0.189958 0
M  V30 12 C -0.821320 1.322450 -1.087696 0
M  V30 13 C 0.018091 2.398335 -0.860719 0
M  V30 14 O 0.014419 3.423854 -1.812498 0
M  V30 15 C 0.906742 3.368011 -2.902718 0
M  V30 16 C 1.812350 2.343182 -3.106157 0
M  V30 17 C 2.634666 2.401419 -4.213152 0
M  V30 18 C 2.577910 3.443783 -5.112716 0
M  V30 19 N 1.675975 4.425347 -4.873630 0
M  V30 20 C 0.855136 4.408811 -3.807420 0
M  V30 21 C 0.823823 2.425239 0.285402 0
M  V30 22 C 0.740109 1.350502 1.155600 0
M  V30 23 N -0.893787 -1.928226 1.807164 0
M  V30 24 C -0.701648 -2.760228 2.854256 0
M  V30 25 C -1.228501 -3.987524 3.221386 0
M  V30 26 H -3.222259 -6.552918 4.535522 0
M  V30 27 H -1.696347 -7.153038 3.469040 0
M  V30 28 H 0.533734 -4.372764 6.137755 0
M  V30 29 H 1.431876 -2.187601 5.426099 0
M  V30 30 H 1.238141 -0.241045 3.348020 0
M  V30 31 H -1.539773 -0.566507 -0.388518 0
M  V30 32 H -1.439794 1.310224 -1.975215 0
M  V30 33 H 1.790831 1.567523 -2.355161 0
M  V30 34 H 3.306611 1.557288 -4.286023 0
M  V30 35 H 3.263985 3.374569 -5.926434 0
M  V30 36 H 0.175538 5.221274 -3.695228 0
M  V30 37 H 1.469557 3.272625 0.441780 0
M  V30 38 H 1.376314 1.389998 2.043735 0
M  V30 39 H -1.962844 -4.475415 2.604560 0
M  V30 END ATOM
M  V30 BEGIN BOND
M  V30 1 1 1 2
M  V30 2 2 2 3
M  V30 3 1 2 4
M  V30 4 2 4 5
M  V30 5 1 5 6
M  V30 6 2 6 7
M  V30 7 1 7 8
M  V30 8 1 8 9
M  V30 9 1 9 10
M  V30 10 2 10 11
M  V30 11 1 11 12
M  V30 12 2 12 13
M  V30 13 1 13 14
M  V30 14 1 14 15
M  V30 15 2 15 16
M  V30 16 1 16 17
M  V30 17 2 17 18
M  V30 18 1 18 19
M  V30 19 2 19 20
M  V30 20 1 13 21
M  V30 21 2 21 22
M  V30 22 2 9 23
M  V30 23 1 23 24
M  V30 24 2 24 25
M  V30 25 1 25 4
M  V30 26 1 24 7
M  V30 27 1 22 10
M  V30 28 1 20 15
M  V30 29 1 1 26
M  V30 30 1 1 27
M  V30 31 1 5 28
M  V30 32 1 6 29
M  V30 33 1 8 30
M  V30 34 1 11 31
M  V30 35 1 12 32
M  V30 36 1 16 33
M  V30 37 1 17 34
M  V30 38 1 18 35
M  V30 39 1 20 36
M  V30 40 1 21 37
M  V30 41 1 22 38
M  V30 42 1 25 39
M  V30 END BOND
M  V30 END CTAB
M  END
>  <Dataset>  (936) 
ChEMBL_Kinases

>  <Ligand_Instance>  (936) 
nan

>  <PDB_ID>  (936) 
nan

>  <Standardized_SMILES>  (936) 
NC(=O)c1ccc2[nH]c(-c3ccc(Oc4cccnc4)cc3)nc2c1

>  <Name>  (936) 
nan

>  <Pocket>  (936) 
nan

>  <ATP_Site>  (936) 
nan

>  <Peripheral>  (936) 
nan

>  <Num_H_Atoms_ProtBoundConf>  (936) 
nan

>  <Num_Resolved_Atoms>  (936) 
nan

>  <Num_Not_Resolved_Atoms>  (936) 
nan

$$$$
CHEMBL6250
     RDKit          3D

  0  0  0  0  0  0  0  0  0  0999 V3000
M  V30 BEGIN CTAB
M  V30 COUNTS 44 48 0 0 0
M  V30 BEGIN ATOM
M  V30 1 O 7.437289 -3.101683 3.256959 0
M  V30 2 C 6.446503 -3.668016 2.729058 0
M  V30 3 O 6.926669 -4.969511 2.738618 0
M  V30 4 C 5.182300 -3.114278 2.254985 0
M  V30 5 C 4.208062 -3.916656 1.698227 0
M  V30 6 C 3.041319 -3.296168 1.278025 0
M  V30 7 C 2.882269 -1.931131 1.420310 0
M  V30 8 C 1.639561 -1.310410 0.966850 0
M  V30 9 N 1.278112 -0.031762 1.005187 0
M  V30 10 C 0.041885 0.136051 0.483609 0
M  V30 11 C -0.643043 1.422057 0.380035 0
M  V30 12 C -0.968993 1.918472 -0.868381 0
M  V30 13 C -1.621477 3.145588 -0.945242 0
M  V30 14 C -1.900989 3.790222 0.256830 0
M  V30 15 C -1.568551 3.280581 1.495137 0
M  V30 16 C -0.921481 2.064829 1.582750 0
M  V30 17 O -2.006473 4.202114 2.459723 0
M  V30 18 C -2.938212 5.082717 1.839789 0
M  V30 19 O -2.539381 5.018781 0.472417 0
M  V30 20 C -0.347233 -1.142804 0.112858 0
M  V30 21 C -1.667855 -1.339895 -0.503183 0
M  V30 22 C -2.916501 -1.102829 0.036081 0
M  V30 23 C -4.021060 -1.359943 -0.722807 0
M  V30 24 C -3.816141 -1.846237 -1.995673 0
M  V30 25 C -2.582314 -2.091359 -2.557280 0
M  V30 26 N -1.519318 -1.814987 -1.750512 0
M  V30 27 N 0.631231 -2.025417 0.409284 0
M  V30 28 C 3.885859 -1.159856 1.985182 0
M  V30 29 C 5.080473 -1.748179 2.422743 0
M  V30 30 H 7.041846 -5.523610 3.601937 0
M  V30 31 H 4.391788 -4.985675 1.612674 0
M  V30 32 H 2.290657 -3.946746 0.844016 0
M  V30 33 H -0.702469 1.329245 -1.744511 0
M  V30 34 H -1.873979 3.530055 -1.911808 0
M  V30 35 H -0.655928 1.654144 2.532049 0
M  V30 36 H -3.984662 4.755640 1.982186 0
M  V30 37 H -2.861084 6.107276 2.258330 0
M  V30 38 H -2.868632 -0.721275 1.049356 0
M  V30 39 H -4.964763 -1.164492 -0.272432 0
M  V30 40 H -4.712365 -2.045276 -2.585850 0
M  V30 41 H -2.483960 -2.473892 -3.562913 0
M  V30 42 H 0.525795 -3.047148 0.203816 0
M  V30 43 H 3.698825 -0.095725 2.068158 0
M  V30 44 H 5.854307 -1.133637 2.861002 0
M  V30 END ATOM
M  V30 BEGIN BOND
M  V30 1 2 1 2
M  V30 2 1 2 3
M  V30 3 1 2 4
M  V30 4 2 4 5
M  V30 5 1 5 6
M  V30 6 2 6 7
M  V30 7 1 7 8
M  V30 8 2 8 9
M  V30 9 1 9 10
M  V30 10 1 10 11
M  V30 11 2 11 12
M  V30 12 1 12 13
M  V30 13 2 13 14
M  V30 14 1 14 15
M  V30 15 2 15 16
M  V30 16 1 15 17
M  V30 17 1 17 18
M  V30 18 1 18 19
M  V30 19 2 10 20
M  V30 20 1 20 21
M  V30 21 2 21 22
M  V30 22 1 22 23
M  V30 23 2 23 24
M  V30 24 1 24 25
M  V30 25 2 25 26
M  V30 26 1 20 27
M  V30 27 1 7 28
M  V30 28 2 28 29
M  V30 29 1 29 4
M  V30 30 1 27 8
M  V30 31 1 16 11
M  V30 32 1 26 21
M  V30 33 1 19 14
M  V30 34 1 3 30
M  V30 35 1 5 31
M  V30 36 1 6 32
M  V30 37 1 12 33
M  V30 38 1 13 34
M  V30 39 1 16 35
M  V30 40 1 18 36
M  V30 41 1 18 37
M  V30 42 1 22 38
M  V30 43 1 23 39
M  V30 44 1 24 40
M  V30 45 1 25 41
M  V30 46 1 27 42
M  V30 47 1 28 43
M  V30 48 1 29 44
M  V30 END BOND
M  V30 END CTAB
M  END
>  <Dataset>  (937) 
ChEMBL_Kinases

>  <Ligand_Instance>  (937) 
nan

>  <PDB_ID>  (937) 
nan

>  <Standardized_SMILES>  (937) 
O=C(O)c1ccc(-c2nc(-c3ccc4c(c3)OCO4)c(-c3ccccn3)[nH]2)cc1

>  <Name>  (937) 
nan

>  <Pocket>  (937) 
nan

>  <ATP_Site>  (937) 
nan

>  <Peripheral>  (937) 
nan

>  <Num_H_Atoms_ProtBoundConf>  (937) 
nan

>  <Num_Resolved_Atoms>  (937) 
nan

>  <Num_Not_Resolved_Atoms>  (937) 
nan

$$$$
CHEMBL61743
     RDKit          3D

  0  0  0  0  0  0  0  0  0  0999 V3000
M  V30 BEGIN CTAB
M  V30 COUNTS 19 20 0 0 0
M  V30 BEGIN ATOM
M  V30 1 N -2.079288 1.786311 0.368454 0
M  V30 2 C -1.033155 0.839163 0.370410 0
M  V30 3 C 0.077500 1.183240 1.110917 0
M  V30 4 C 1.137896 0.291377 1.150224 0
M  V30 5 C 2.288526 0.560358 1.869517 0
M  V30 6 C 3.323996 -0.337328 1.893242 0
M  V30 7 C 3.184606 -1.512564 1.180933 0
M  V30 8 C 2.029165 -1.761524 0.470200 0
M  V30 9 C 0.983022 -0.877244 0.433836 0
M  V30 10 C -0.156275 -1.186568 -0.301906 0
M  V30 11 N -1.160732 -0.303565 -0.318242 0
M  V30 12 H -2.456221 2.714572 0.081148 0
M  V30 13 H -2.854189 1.333108 0.930821 0
M  V30 14 H 0.161383 2.104135 1.656476 0
M  V30 15 H 2.305732 1.506355 2.395656 0
M  V30 16 H 4.177119 -0.019870 2.491125 0
M  V30 17 H 4.027434 -2.187490 1.230740 0
M  V30 18 H 2.007151 -2.697208 -0.052662 0
M  V30 19 H -0.165172 -2.143631 -0.829960 0
M  V30 END ATOM
M  V30 BEGIN BOND
M  V30 1 1 1 2
M  V30 2 2 2 3
M  V30 3 1 3 4
M  V30 4 2 4 5
M  V30 5 1 5 6
M  V30 6 2 6 7
M  V30 7 1 7 8
M  V30 8 2 8 9
M  V30 9 1 9 10
M  V30 10 2 10 11
M  V30 11 1 11 2
M  V30 12 1 9 4
M  V30 13 1 1 12
M  V30 14 1 1 13
M  V30 15 1 3 14
M  V30 16 1 5 15
M  V30 17 1 6 16
M  V30 18 1 7 17
M  V30 19 1 8 18
M  V30 20 1 10 19
M  V30 END BOND
M  V30 END CTAB
M  END
>  <Dataset>  (938) 
ChEMBL_Kinases

>  <Ligand_Instance>  (938) 
nan

>  <PDB_ID>  (938) 
nan

>  <Standardized_SMILES>  (938) 
Nc1cc2ccccc2cn1

>  <Name>  (938) 
ISOQUINOLIN-3-AMINE

>  <Pocket>  (938) 
nan

>  <ATP_Site>  (938) 
nan

>  <Peripheral>  (938) 
nan

>  <Num_H_Atoms_ProtBoundConf>  (938) 
nan

>  <Num_Resolved_Atoms>  (938) 
nan

>  <Num_Not_Resolved_Atoms>  (938) 
nan

$$$$
CHEMBL3933085
     RDKit          3D

  0  0  0  0  0  0  0  0  0  0999 V3000
M  V30 BEGIN CTAB
M  V30 COUNTS 49 53 0 0 0
M  V30 BEGIN ATOM
M  V30 1 N 4.907819 -7.058819 3.465449 0
M  V30 2 C 5.683139 -5.870294 3.376358 0
M  V30 3 O 6.873499 -6.060157 3.734161 0
M  V30 4 C 5.221191 -4.559709 2.933838 0
M  V30 5 C 6.177343 -3.566055 2.941892 0
M  V30 6 C 5.784126 -2.292266 2.526733 0
M  V30 7 C 4.466795 -2.116329 2.137461 0
M  V30 8 N 3.802485 -1.026448 1.696014 0
M  V30 9 C 2.508616 -1.295749 1.421766 0
M  V30 10 C 1.521138 -0.338346 0.928170 0
M  V30 11 C 1.943883 0.958965 0.724459 0
M  V30 12 C 1.038374 1.884377 0.260012 0
M  V30 13 C -0.266392 1.518735 0.003933 0
M  V30 14 C -1.206241 2.558357 -0.496292 0
M  V30 15 O -1.068559 3.721316 0.237613 0
M  V30 16 C -2.607178 2.118810 -0.451249 0
M  V30 17 C -3.303690 2.114196 0.756711 0
M  V30 18 C -4.620124 1.700839 0.793358 0
M  V30 19 C -5.216648 1.298143 -0.385921 0
M  V30 20 C -6.537412 0.887836 -0.326110 0
M  V30 21 C -7.160314 0.476740 -1.506751 0
M  V30 22 C -6.486816 0.472065 -2.725570 0
M  V30 23 C -5.176239 0.885225 -2.751499 0
M  V30 24 C -4.554645 1.292028 -1.592337 0
M  V30 25 C -3.240240 1.708372 -1.608629 0
M  V30 26 C -0.657545 0.201066 0.220967 0
M  V30 27 C 0.229454 -0.767626 0.691070 0
M  V30 28 N 2.373217 -2.604366 1.706470 0
M  V30 29 C 3.526733 -3.129210 2.138287 0
M  V30 30 C 3.904819 -4.405263 2.550066 0
M  V30 31 H 4.239789 -7.246936 2.662326 0
M  V30 32 H 4.182442 -7.624245 2.973914 0
M  V30 33 H 7.187887 -3.744826 3.251127 0
M  V30 34 H 6.490297 -1.489164 2.515718 0
M  V30 35 H 4.268797 -0.089586 1.589320 0
M  V30 36 H 2.950237 1.311307 0.904846 0
M  V30 37 H 1.357437 2.914337 0.093792 0
M  V30 38 H -0.910916 2.743785 -1.565777 0
M  V30 39 H -0.842284 3.565295 1.188689 0
M  V30 40 H -2.768788 2.440914 1.623035 0
M  V30 41 H -5.132573 1.710403 1.754452 0
M  V30 42 H -7.084312 0.884916 0.626915 0
M  V30 43 H -8.206142 0.168108 -1.369876 0
M  V30 44 H -7.058195 0.136870 -3.575797 0
M  V30 45 H -4.673077 0.872072 -3.714830 0
M  V30 46 H -2.698497 1.711571 -2.548854 0
M  V30 47 H -1.692338 -0.060847 0.011079 0
M  V30 48 H -0.076202 -1.793560 0.859949 0
M  V30 49 H 3.198751 -5.224298 2.565137 0
M  V30 END ATOM
M  V30 BEGIN BOND
M  V30 1 1 1 2
M  V30 2 2 2 3
M  V30 3 1 2 4
M  V30 4 2 4 5
M  V30 5 1 5 6
M  V30 6 2 6 7
M  V30 7 1 7 8
M  V30 8 1 8 9
M  V30 9 1 9 10
M  V30 10 2 10 11
M  V30 11 1 11 12
M  V30 12 2 12 13
M  V30 13 1 13 14
M  V30 14 1 14 15
M  V30 15 1 14 16
M  V30 16 2 16 17
M  V30 17 1 17 18
M  V30 18 2 18 19
M  V30 19 1 19 20
M  V30 20 2 20 21
M  V30 21 1 21 22
M  V30 22 2 22 23
M  V30 23 1 23 24
M  V30 24 2 24 25
M  V30 25 1 13 26
M  V30 26 2 26 27
M  V30 27 2 9 28
M  V30 28 1 28 29
M  V30 29 2 29 30
M  V30 30 1 30 4
M  V30 31 1 29 7
M  V30 32 1 27 10
M  V30 33 1 25 16
M  V30 34 1 24 19
M  V30 35 1 1 31
M  V30 36 1 1 32
M  V30 37 1 5 33
M  V30 38 1 6 34
M  V30 39 1 8 35
M  V30 40 1 11 36
M  V30 41 1 12 37
M  V30 42 1 14 38
M  V30 43 1 15 39
M  V30 44 1 17 40
M  V30 45 1 18 41
M  V30 46 1 20 42
M  V30 47 1 21 43
M  V30 48 1 22 44
M  V30 49 1 23 45
M  V30 50 1 25 46
M  V30 51 1 26 47
M  V30 52 1 27 48
M  V30 53 1 30 49
M  V30 END BOND
M  V30 END CTAB
M  END
>  <Dataset>  (939) 
ChEMBL_Kinases

>  <Ligand_Instance>  (939) 
nan

>  <PDB_ID>  (939) 
nan

>  <Standardized_SMILES>  (939) 
NC(=O)c1ccc2[nH]c(-c3ccc(C(O)c4ccc5ccccc5c4)cc3)nc2c1

>  <Name>  (939) 
nan

>  <Pocket>  (939) 
nan

>  <ATP_Site>  (939) 
nan

>  <Peripheral>  (939) 
nan

>  <Num_H_Atoms_ProtBoundConf>  (939) 
nan

>  <Num_Resolved_Atoms>  (939) 
nan

>  <Num_Not_Resolved_Atoms>  (939) 
nan

$$$$
CHEMBL394300
     RDKit          3D

  0  0  0  0  0  0  0  0  0  0999 V3000
M  V30 BEGIN CTAB
M  V30 COUNTS 33 35 0 0 0
M  V30 BEGIN ATOM
M  V30 1 C -1.659126 -4.331017 3.525334 0
M  V30 2 C -1.019183 -4.994758 2.302026 0
M  V30 3 C -0.700593 -3.942672 1.304555 0
M  V30 4 C -0.091590 -4.231261 0.094309 0
M  V30 5 C 0.050713 -3.020306 -0.546430 0
M  V30 6 C -0.451062 -1.992315 0.230712 0
M  V30 7 C -0.531876 -0.546175 0.093310 0
M  V30 8 C 0.475797 0.251728 -0.190782 0
M  V30 9 C 1.862459 -0.124251 -0.419151 0
M  V30 10 O 2.292712 -1.313441 -0.362028 0
M  V30 11 N 2.643861 1.011750 -0.704698 0
M  V30 12 C 1.755071 2.145801 -0.662466 0
M  V30 13 C 2.056582 3.484833 -0.878248 0
M  V30 14 C 1.025848 4.403687 -0.783236 0
M  V30 15 C -0.277487 3.999463 -0.479695 0
M  V30 16 O -1.242269 4.973411 -0.402630 0
M  V30 17 C -0.563933 2.651142 -0.265933 0
M  V30 18 C 0.478183 1.719197 -0.361913 0
M  V30 19 N -0.898158 -2.616778 1.351946 0
M  V30 20 H -2.682118 -4.037410 3.207647 0
M  V30 21 H -1.131137 -3.405719 3.818963 0
M  V30 22 H -1.726742 -5.057873 4.365964 0
M  V30 23 H -0.112933 -5.499009 2.680600 0
M  V30 24 H -1.785662 -5.689727 1.903322 0
M  V30 25 H 0.242152 -5.162896 -0.353858 0
M  V30 26 H 0.478723 -2.847541 -1.538756 0
M  V30 27 H -1.532412 -0.105544 0.242032 0
M  V30 28 H 3.665632 1.004745 -0.905463 0
M  V30 29 H 3.073778 3.758356 -1.109651 0
M  V30 30 H 1.304127 5.447397 -0.957709 0
M  V30 31 H -2.122706 4.915245 0.070504 0
M  V30 32 H -1.578759 2.342111 -0.031388 0
M  V30 33 H -1.356911 -2.172242 2.197917 0
M  V30 END ATOM
M  V30 BEGIN BOND
M  V30 1 1 1 2
M  V30 2 1 2 3
M  V30 3 2 3 4
M  V30 4 1 4 5
M  V30 5 2 5 6
M  V30 6 1 6 7
M  V30 7 2 7 8
M  V30 8 1 8 9
M  V30 9 2 9 10
M  V30 10 1 9 11
M  V30 11 1 11 12
M  V30 12 2 12 13
M  V30 13 1 13 14
M  V30 14 2 14 15
M  V30 15 1 15 16
M  V30 16 1 15 17
M  V30 17 2 17 18
M  V30 18 1 6 19
M  V30 19 1 19 3
M  V30 20 1 18 8
M  V30 21 1 18 12
M  V30 22 1 1 20
M  V30 23 1 1 21
M  V30 24 1 1 22
M  V30 25 1 2 23
M  V30 26 1 2 24
M  V30 27 1 4 25
M  V30 28 1 5 26
M  V30 29 1 7 27
M  V30 30 1 11 28
M  V30 31 1 13 29
M  V30 32 1 14 30
M  V30 33 1 16 31
M  V30 34 1 17 32
M  V30 35 1 19 33
M  V30 END BOND
M  V30 END CTAB
M  END
>  <Dataset>  (940) 
ChEMBL_Kinases

>  <Ligand_Instance>  (940) 
nan

>  <PDB_ID>  (940) 
nan

>  <Standardized_SMILES>  (940) 
CCc1ccc(/C=C2\C(=O)Nc3ccc(O)cc32)[nH]1

>  <Name>  (940) 
nan

>  <Pocket>  (940) 
nan

>  <ATP_Site>  (940) 
nan

>  <Peripheral>  (940) 
nan

>  <Num_H_Atoms_ProtBoundConf>  (940) 
nan

>  <Num_Resolved_Atoms>  (940) 
nan

>  <Num_Not_Resolved_Atoms>  (940) 
nan

$$$$
CHEMBL3942931
     RDKit          3D

  0  0  0  0  0  0  0  0  0  0999 V3000
M  V30 BEGIN CTAB
M  V30 COUNTS 41 44 0 0 0
M  V30 BEGIN ATOM
M  V30 1 N 1.033241 -8.735270 1.465445 0
M  V30 2 C 1.871787 -7.636201 1.108658 0
M  V30 3 O 3.121872 -7.649790 0.833293 0
M  V30 4 C 1.319543 -6.272447 1.017726 0
M  V30 5 C -0.025843 -6.074182 1.359453 0
M  V30 6 C -0.597742 -4.811282 1.298519 0
M  V30 7 C 0.183522 -3.750159 0.893619 0
M  V30 8 N -0.099682 -2.421797 0.745960 0
M  V30 9 C 1.010939 -1.747835 0.318724 0
M  V30 10 C 0.999539 -0.305228 0.099996 0
M  V30 11 C -0.126810 0.412283 0.428640 0
M  V30 12 C -0.195611 1.776967 0.237924 0
M  V30 13 C 0.868597 2.483245 -0.294093 0
M  V30 14 C 0.763230 3.932174 -0.449019 0
M  V30 15 O 1.397338 4.690897 -1.240125 0
M  V30 16 C -0.212410 4.612720 0.437237 0
M  V30 17 C -0.096672 4.178530 1.762825 0
M  V30 18 C -0.882859 4.663136 2.795528 0
M  V30 19 C -1.819830 5.627803 2.448798 0
M  V30 20 C -1.947399 6.067343 1.143558 0
M  V30 21 C -1.153007 5.567259 0.144069 0
M  V30 22 Cl -1.197795 6.024034 -1.556507 0
M  V30 23 C 1.975853 1.726208 -0.609935 0
M  V30 24 C 2.083804 0.361614 -0.434716 0
M  V30 25 N 1.966237 -2.684387 0.210632 0
M  V30 26 C 1.505492 -3.899866 0.549309 0
M  V30 27 C 2.044599 -5.162870 0.619833 0
M  V30 28 H 0.243443 -8.570157 2.113779 0
M  V30 29 H 1.444920 -9.556585 0.937539 0
M  V30 30 H -0.703161 -6.849505 1.681277 0
M  V30 31 H -1.658886 -4.671193 1.569121 0
M  V30 32 H -1.059089 -2.074752 0.952453 0
M  V30 33 H -1.021314 -0.064053 0.858972 0
M  V30 34 H -1.117763 2.301011 0.519790 0
M  V30 35 H 0.621992 3.421355 2.093411 0
M  V30 36 H -0.752622 4.290094 3.824933 0
M  V30 37 H -2.452035 6.037437 3.212950 0
M  V30 38 H -2.661188 6.814002 0.843468 0
M  V30 39 H 2.800157 2.325913 -1.032222 0
M  V30 40 H 2.986207 -0.164111 -0.707265 0
M  V30 41 H 3.092238 -5.308404 0.351523 0
M  V30 END ATOM
M  V30 BEGIN BOND
M  V30 1 1 1 2
M  V30 2 2 2 3
M  V30 3 1 2 4
M  V30 4 2 4 5
M  V30 5 1 5 6
M  V30 6 2 6 7
M  V30 7 1 7 8
M  V30 8 1 8 9
M  V30 9 1 9 10
M  V30 10 2 10 11
M  V30 11 1 11 12
M  V30 12 2 12 13
M  V30 13 1 13 14
M  V30 14 2 14 15
M  V30 15 1 14 16
M  V30 16 2 16 17
M  V30 17 1 17 18
M  V30 18 2 18 19
M  V30 19 1 19 20
M  V30 20 2 20 21
M  V30 21 1 21 22
M  V30 22 1 13 23
M  V30 23 2 23 24
M  V30 24 2 9 25
M  V30 25 1 25 26
M  V30 26 2 26 27
M  V30 27 1 27 4
M  V30 28 1 26 7
M  V30 29 1 24 10
M  V30 30 1 21 16
M  V30 31 1 1 28
M  V30 32 1 1 29
M  V30 33 1 5 30
M  V30 34 1 6 31
M  V30 35 1 8 32
M  V30 36 1 11 33
M  V30 37 1 12 34
M  V30 38 1 17 35
M  V30 39 1 18 36
M  V30 40 1 19 37
M  V30 41 1 20 38
M  V30 42 1 23 39
M  V30 43 1 24 40
M  V30 44 1 27 41
M  V30 END BOND
M  V30 END CTAB
M  END
>  <Dataset>  (941) 
ChEMBL_Kinases

>  <Ligand_Instance>  (941) 
nan

>  <PDB_ID>  (941) 
nan

>  <Standardized_SMILES>  (941) 
NC(=O)c1ccc2[nH]c(-c3ccc(C(=O)c4ccccc4Cl)cc3)nc2c1

>  <Name>  (941) 
nan

>  <Pocket>  (941) 
nan

>  <ATP_Site>  (941) 
nan

>  <Peripheral>  (941) 
nan

>  <Num_H_Atoms_ProtBoundConf>  (941) 
nan

>  <Num_Resolved_Atoms>  (941) 
nan

>  <Num_Not_Resolved_Atoms>  (941) 
nan

$$$$
CHEMBL3942869
     RDKit          3D

  0  0  0  0  0  0  0  0  0  0999 V3000
M  V30 BEGIN CTAB
M  V30 COUNTS 61 65 0 0 0
M  V30 BEGIN ATOM
M  V30 1 C 1.198225 -3.011852 5.725579 0
M  V30 2 C 1.514401 -2.475157 4.361237 0
M  V30 3 N 2.308562 -2.763743 3.531159 0
M  V30 4 N 2.489490 -2.220583 2.376022 0
M  V30 5 C 1.814083 -1.270412 1.963937 0
M  V30 6 C 1.592295 -0.336798 0.842518 0 CFG=2
M  V30 7 C 2.416932 0.919445 0.967790 0
M  V30 8 C 2.217072 1.866369 -0.133346 0
M  V30 9 C 2.977662 1.857844 -1.305142 0
M  V30 10 C 2.826086 2.727822 -2.362540 0
M  V30 11 C 1.846177 3.689128 -2.265768 0
M  V30 12 C 1.104368 3.684827 -1.104122 0
M  V30 13 N 0.087250 4.675576 -0.992996 0
M  V30 14 C -0.766251 4.823292 0.116559 0
M  V30 15 C -1.988903 4.211492 0.286596 0
M  V30 16 C -2.522762 4.607797 1.504755 0
M  V30 17 N -1.613804 5.446497 2.040219 0
M  V30 18 N -0.571060 5.575168 1.217410 0
M  V30 19 N 1.256126 2.834394 -0.076091 0
M  V30 20 C 0.134526 0.051562 0.705384 0
M  V30 21 C -0.770842 -1.111876 0.554998 0
M  V30 22 C -0.213774 -2.339917 -0.084213 0 CFG=1
M  V30 23 O -1.169191 -2.851219 -0.971248 0
M  V30 24 C -1.860666 -4.010517 -0.959112 0
M  V30 25 C -2.698409 -4.033839 -2.087213 0
M  V30 26 C -3.545699 -5.118590 -2.350127 0
M  V30 27 C -3.563439 -6.196824 -1.482280 0
M  V30 28 C -2.748896 -6.190821 -0.371643 0
M  V30 29 C -2.688695 -7.294199 0.623110 0
M  V30 30 F -1.386488 -7.808573 0.673508 0
M  V30 31 F -2.983274 -6.893654 1.902280 0
M  V30 32 F -3.525105 -8.312812 0.194737 0
M  V30 33 C -1.934675 -5.117926 -0.144196 0
M  V30 34 F -1.122652 -5.045904 0.908076 0
M  V30 35 C 1.123678 -2.216482 -0.740802 0
M  V30 36 C 1.915389 -0.999580 -0.459704 0
M  V30 37 S 0.653379 -1.019841 3.448741 0
M  V30 38 H 0.845274 -4.052031 5.637161 0
M  V30 39 H 2.015184 -2.841355 6.425028 0
M  V30 40 H 0.313447 -2.455622 6.154975 0
M  V30 41 H 3.502828 0.691342 1.080991 0
M  V30 42 H 2.152813 1.438122 1.931491 0
M  V30 43 H 3.744620 1.069062 -1.326818 0
M  V30 44 H 3.464324 2.632060 -3.214180 0
M  V30 45 H 1.677906 4.399347 -3.059663 0
M  V30 46 H -0.116773 5.385630 -1.730974 0
M  V30 47 H -2.523784 3.531733 -0.349846 0
M  V30 48 H -3.439621 4.374121 2.020232 0
M  V30 49 H -1.646509 5.953552 2.947214 0
M  V30 50 H 0.093810 0.762680 -0.147111 0
M  V30 51 H -0.130956 0.628117 1.614573 0
M  V30 52 H -1.650467 -0.724718 -0.042563 0
M  V30 53 H -1.235536 -1.331923 1.548432 0
M  V30 54 H -0.074632 -3.078612 0.729308 0
M  V30 55 H -2.824126 -3.294203 -2.871470 0
M  V30 56 H -4.211686 -5.223661 -3.175551 0
M  V30 57 H -4.200534 -7.070636 -1.631743 0
M  V30 58 H 1.791211 -3.093901 -0.535938 0
M  V30 59 H 0.961680 -2.278380 -1.850852 0
M  V30 60 H 1.675293 -0.227188 -1.249219 0
M  V30 61 H 2.987305 -1.184245 -0.522116 0
M  V30 END ATOM
M  V30 BEGIN BOND
M  V30 1 1 1 2
M  V30 2 2 2 3
M  V30 3 1 3 4
M  V30 4 2 4 5
M  V30 5 1 5 6
M  V30 6 1 6 7 CFG=1
M  V30 7 1 7 8
M  V30 8 2 8 9
M  V30 9 1 9 10
M  V30 10 2 10 11
M  V30 11 1 11 12
M  V30 12 1 12 13
M  V30 13 1 13 14
M  V30 14 1 14 15
M  V30 15 2 15 16
M  V30 16 1 16 17
M  V30 17 1 17 18
M  V30 18 2 12 19
M  V30 19 1 6 20
M  V30 20 1 20 21
M  V30 21 1 21 22
M  V30 22 1 22 23
M  V30 23 1 23 24
M  V30 24 2 24 25
M  V30 25 1 25 26
M  V30 26 2 26 27
M  V30 27 1 27 28
M  V30 28 1 28 29
M  V30 29 1 29 30
M  V30 30 1 29 31
M  V30 31 1 29 32
M  V30 32 2 28 33
M  V30 33 1 33 34
M  V30 34 1 22 35
M  V30 35 1 35 36
M  V30 36 1 5 37
M  V30 37 1 37 2
M  V30 38 1 36 6
M  V30 39 1 19 8
M  V30 40 1 33 24
M  V30 41 2 18 14
M  V30 42 1 1 38
M  V30 43 1 1 39
M  V30 44 1 1 40
M  V30 45 1 7 41
M  V30 46 1 7 42
M  V30 47 1 9 43
M  V30 48 1 10 44
M  V30 49 1 11 45
M  V30 50 1 13 46
M  V30 51 1 15 47
M  V30 52 1 16 48
M  V30 53 1 17 49
M  V30 54 1 20 50
M  V30 55 1 20 51
M  V30 56 1 21 52
M  V30 57 1 21 53
M  V30 58 1 22 54 CFG=1
M  V30 59 1 25 55
M  V30 60 1 26 56
M  V30 61 1 27 57
M  V30 62 1 35 58
M  V30 63 1 35 59
M  V30 64 1 36 60
M  V30 65 1 36 61
M  V30 END BOND
M  V30 END CTAB
M  END
>  <Dataset>  (942) 
ChEMBL_Kinases

>  <Ligand_Instance>  (942) 
nan

>  <PDB_ID>  (942) 
nan

>  <Standardized_SMILES>  (942) 
Cc1nnc([C@]2(Cc3cccc(Nc4cc[nH]n4)n3)CC[C@@H](Oc3cccc(C(F)(F)F)c3F)CC2)s1

>  <Name>  (942) 
nan

>  <Pocket>  (942) 
nan

>  <ATP_Site>  (942) 
nan

>  <Peripheral>  (942) 
nan

>  <Num_H_Atoms_ProtBoundConf>  (942) 
nan

>  <Num_Resolved_Atoms>  (942) 
nan

>  <Num_Not_Resolved_Atoms>  (942) 
nan

$$$$
CHEMBL3942857
     RDKit          3D

  0  0  0  0  0  0  0  0  0  0999 V3000
M  V30 BEGIN CTAB
M  V30 COUNTS 60 65 0 0 0
M  V30 BEGIN ATOM
M  V30 1 C 5.800523 -3.715735 6.448484 0
M  V30 2 O 5.843303 -2.725126 5.466203 0
M  V30 3 C 4.775085 -2.331347 4.696372 0
M  V30 4 O 3.669744 -2.891365 4.873723 0
M  V30 5 N 4.881496 -1.315235 3.710647 0
M  V30 6 C 3.816216 -0.867330 2.887003 0
M  V30 7 N 3.914019 0.095904 1.951965 0
M  V30 8 C 2.724776 0.278276 1.351796 0
M  V30 9 C 2.319807 1.131322 0.351294 0
M  V30 10 C 1.003704 1.041799 -0.019954 0
M  V30 11 C 0.033512 0.180343 0.506991 0
M  V30 12 C -1.357423 0.199677 0.005723 0
M  V30 13 O -1.476116 1.257301 -0.889959 0
M  V30 14 C -2.308263 0.562361 1.121983 0
M  V30 15 C -2.131916 1.704388 1.896704 0
M  V30 16 C -3.070482 2.011472 2.888539 0
M  V30 17 C -4.133717 1.147485 3.041201 0
M  V30 18 C -4.265683 0.027759 2.250137 0
M  V30 19 C -3.365035 -0.307049 1.267538 0
M  V30 20 C -3.087042 -1.353708 0.257378 0
M  V30 21 O -4.008679 -2.255625 0.267655 0
M  V30 22 N -1.849246 -1.059173 -0.456750 0
M  V30 23 C -1.659713 -2.205308 -1.313482 0
M  V30 24 C -0.893022 -3.186844 -0.667740 0
M  V30 25 C -0.582163 -4.425480 -1.222407 0
M  V30 26 C -1.089700 -4.637457 -2.486327 0
M  V30 27 C -1.846231 -3.705384 -3.160682 0
M  V30 28 C -2.125031 -2.497002 -2.571197 0
M  V30 29 O -2.881395 -1.539845 -3.216725 0
M  V30 30 C -2.256003 -0.358453 -3.588814 0
M  V30 31 C -2.866747 0.804658 -4.024650 0
M  V30 32 C -2.160612 1.916604 -4.373481 0
M  V30 33 C -0.782431 1.947432 -4.311703 0
M  V30 34 C -0.101815 0.829998 -3.888053 0
M  V30 35 C -0.856537 -0.268497 -3.546452 0
M  V30 36 C 0.529306 -0.635245 1.501706 0
M  V30 37 C 1.839428 -0.604494 1.929980 0
M  V30 38 N 2.538384 -1.279914 2.854537 0
M  V30 39 H 5.065711 -4.506860 6.258782 0
M  V30 40 H 6.799509 -4.237168 6.488243 0
M  V30 41 H 5.688245 -3.253848 7.460188 0
M  V30 42 H 5.830086 -0.899594 3.623933 0
M  V30 43 H 2.976264 1.828162 -0.119952 0
M  V30 44 H 0.681754 1.720108 -0.815496 0
M  V30 45 H -1.501648 2.084679 -0.382703 0
M  V30 46 H -1.328797 2.403163 1.818326 0
M  V30 47 H -2.966478 2.887650 3.507834 0
M  V30 48 H -4.899328 1.319940 3.786798 0
M  V30 49 H -5.095095 -0.653143 2.363691 0
M  V30 50 H -0.459940 -3.082294 0.341079 0
M  V30 51 H 0.005192 -5.172449 -0.723231 0
M  V30 52 H -0.902353 -5.564638 -2.994575 0
M  V30 53 H -2.249702 -3.850171 -4.142242 0
M  V30 54 H -3.953036 0.772380 -4.070578 0
M  V30 55 H -2.667337 2.813521 -4.711441 0
M  V30 56 H -0.175969 2.801694 -4.576309 0
M  V30 57 H 0.974840 0.769652 -3.810462 0
M  V30 58 H -0.316021 -1.162333 -3.207788 0
M  V30 59 H -0.173831 -1.331423 1.956190 0
M  V30 60 H 2.090308 -2.003156 3.425399 0
M  V30 END ATOM
M  V30 BEGIN BOND
M  V30 1 1 1 2
M  V30 2 1 2 3
M  V30 3 2 3 4
M  V30 4 1 3 5
M  V30 5 1 5 6
M  V30 6 2 6 7
M  V30 7 1 7 8
M  V30 8 2 8 9
M  V30 9 1 9 10
M  V30 10 2 10 11
M  V30 11 1 11 12
M  V30 12 1 12 13
M  V30 13 1 12 14
M  V30 14 2 14 15
M  V30 15 1 15 16
M  V30 16 2 16 17
M  V30 17 1 17 18
M  V30 18 2 18 19
M  V30 19 1 19 20
M  V30 20 2 20 21
M  V30 21 1 20 22
M  V30 22 1 22 23
M  V30 23 2 23 24
M  V30 24 1 24 25
M  V30 25 2 25 26
M  V30 26 1 26 27
M  V30 27 2 27 28
M  V30 28 1 28 29
M  V30 29 1 29 30
M  V30 30 2 30 31
M  V30 31 1 31 32
M  V30 32 2 32 33
M  V30 33 1 33 34
M  V30 34 2 34 35
M  V30 35 1 11 36
M  V30 36 2 36 37
M  V30 37 1 37 38
M  V30 38 1 38 6
M  V30 39 1 37 8
M  V30 40 1 22 12
M  V30 41 1 28 23
M  V30 42 1 35 30
M  V30 43 1 19 14
M  V30 44 1 1 39
M  V30 45 1 1 40
M  V30 46 1 1 41
M  V30 47 1 5 42
M  V30 48 1 9 43
M  V30 49 1 10 44
M  V30 50 1 13 45
M  V30 51 1 15 46
M  V30 52 1 16 47
M  V30 53 1 17 48
M  V30 54 1 18 49
M  V30 55 1 24 50
M  V30 56 1 25 51
M  V30 57 1 26 52
M  V30 58 1 27 53
M  V30 59 1 31 54
M  V30 60 1 32 55
M  V30 61 1 33 56
M  V30 62 1 34 57
M  V30 63 1 35 58
M  V30 64 1 36 59
M  V30 65 1 38 60
M  V30 END BOND
M  V30 END CTAB
M  END
>  <Dataset>  (943) 
ChEMBL_Kinases

>  <Ligand_Instance>  (943) 
nan

>  <PDB_ID>  (943) 
nan

>  <Standardized_SMILES>  (943) 
COC(=O)Nc1nc2ccc(C3(O)c4ccccc4C(=O)N3c3ccccc3Oc3ccccc3)cc2[nH]1

>  <Name>  (943) 
nan

>  <Pocket>  (943) 
nan

>  <ATP_Site>  (943) 
nan

>  <Peripheral>  (943) 
nan

>  <Num_H_Atoms_ProtBoundConf>  (943) 
nan

>  <Num_Resolved_Atoms>  (943) 
nan

>  <Num_Not_Resolved_Atoms>  (943) 
nan

$$$$
CHEMBL3942698
     RDKit          3D

  0  0  0  0  0  0  0  0  0  0999 V3000
M  V30 BEGIN CTAB
M  V30 COUNTS 41 44 0 0 0
M  V30 BEGIN ATOM
M  V30 1 N 1.237886 -8.798704 0.530991 0
M  V30 2 C 0.496117 -7.669532 0.027715 0
M  V30 3 O -0.440398 -8.192680 -0.613239 0
M  V30 4 C 0.945413 -6.318563 0.338344 0
M  V30 5 C 2.068503 -6.123692 1.105685 0
M  V30 6 C 2.387286 -4.802583 1.327134 0
M  V30 7 C 1.657983 -3.736935 0.832281 0
M  V30 8 N 1.822964 -2.420882 0.948720 0
M  V30 9 C 0.820742 -1.829902 0.266174 0
M  V30 10 C 0.623085 -0.388381 0.135406 0
M  V30 11 C -0.445526 0.094584 -0.592807 0
M  V30 12 C -0.676903 1.446109 -0.746843 0
M  V30 13 C 0.186554 2.345655 -0.154624 0
M  V30 14 O 0.193478 3.733797 -0.145615 0
M  V30 15 C -0.444310 4.501660 0.819124 0
M  V30 16 C 0.503029 5.297828 1.474372 0
M  V30 17 C 0.109589 6.168343 2.497365 0
M  V30 18 C -1.211619 6.239953 2.857958 0
M  V30 19 Cl -1.807218 7.306677 4.135851 0
M  V30 20 C -2.116129 5.457746 2.208572 0
M  V30 21 C -1.766617 4.594129 1.202433 0
M  V30 22 O -2.575364 3.745035 0.460349 0
M  V30 23 C 1.271024 1.862739 0.584392 0
M  V30 24 C 1.495441 0.498687 0.733614 0
M  V30 25 N 0.053273 -2.784100 -0.260563 0
M  V30 26 C 0.544057 -3.994309 0.071019 0
M  V30 27 C 0.180342 -5.298147 -0.181061 0
M  V30 28 H 2.019316 -9.363789 0.133473 0
M  V30 29 H 1.160938 -9.327727 1.438726 0
M  V30 30 H 2.653126 -6.942184 1.502467 0
M  V30 31 H 3.280458 -4.603254 1.937504 0
M  V30 32 H 2.600721 -1.958833 1.481052 0
M  V30 33 H -1.161132 -0.554717 -1.083296 0
M  V30 34 H -1.460620 1.940194 -1.281394 0
M  V30 35 H 1.571195 5.347365 1.298675 0
M  V30 36 H 0.794669 6.806592 3.038588 0
M  V30 37 H -3.177607 5.460191 2.438879 0
M  V30 38 H -3.480397 4.112622 0.177791 0
M  V30 39 H 2.030404 2.449192 1.104584 0
M  V30 40 H 2.312087 0.072922 1.289935 0
M  V30 41 H -0.703006 -5.469158 -0.784648 0
M  V30 END ATOM
M  V30 BEGIN BOND
M  V30 1 1 1 2
M  V30 2 2 2 3
M  V30 3 1 2 4
M  V30 4 2 4 5
M  V30 5 1 5 6
M  V30 6 2 6 7
M  V30 7 1 7 8
M  V30 8 1 8 9
M  V30 9 1 9 10
M  V30 10 2 10 11
M  V30 11 1 11 12
M  V30 12 2 12 13
M  V30 13 1 13 14
M  V30 14 1 14 15
M  V30 15 2 15 16
M  V30 16 1 16 17
M  V30 17 2 17 18
M  V30 18 1 18 19
M  V30 19 1 18 20
M  V30 20 2 20 21
M  V30 21 1 21 22
M  V30 22 1 13 23
M  V30 23 2 23 24
M  V30 24 2 9 25
M  V30 25 1 25 26
M  V30 26 2 26 27
M  V30 27 1 27 4
M  V30 28 1 26 7
M  V30 29 1 24 10
M  V30 30 1 21 15
M  V30 31 1 1 28
M  V30 32 1 1 29
M  V30 33 1 5 30
M  V30 34 1 6 31
M  V30 35 1 8 32
M  V30 36 1 11 33
M  V30 37 1 12 34
M  V30 38 1 16 35
M  V30 39 1 17 36
M  V30 40 1 20 37
M  V30 41 1 22 38
M  V30 42 1 23 39
M  V30 43 1 24 40
M  V30 44 1 27 41
M  V30 END BOND
M  V30 END CTAB
M  END
>  <Dataset>  (944) 
ChEMBL_Kinases

>  <Ligand_Instance>  (944) 
nan

>  <PDB_ID>  (944) 
nan

>  <Standardized_SMILES>  (944) 
NC(=O)c1ccc2[nH]c(-c3ccc(Oc4ccc(Cl)cc4O)cc3)nc2c1

>  <Name>  (944) 
nan

>  <Pocket>  (944) 
nan

>  <ATP_Site>  (944) 
nan

>  <Peripheral>  (944) 
nan

>  <Num_H_Atoms_ProtBoundConf>  (944) 
nan

>  <Num_Resolved_Atoms>  (944) 
nan

>  <Num_Not_Resolved_Atoms>  (944) 
nan

$$$$
CHEMBL3702143
     RDKit          3D

  0  0  0  0  0  0  0  0  0  0999 V3000
M  V30 BEGIN CTAB
M  V30 COUNTS 49 53 0 0 0
M  V30 BEGIN ATOM
M  V30 1 O 4.064401 -5.127341 2.661651 0
M  V30 2 C 3.462414 -6.139436 2.184676 0
M  V30 3 O 3.813082 -7.230381 2.950320 0
M  V30 4 C 2.556168 -6.043818 0.995815 0
M  V30 5 C 2.527997 -4.632616 0.549099 0
M  V30 6 C 1.715662 -3.639454 1.055389 0
M  V30 7 C 1.656605 -2.325811 0.651864 0
M  V30 8 C 2.517344 -1.998190 -0.374387 0
M  V30 9 N 2.555274 -0.676199 -0.887758 0
M  V30 10 C 1.701777 0.263946 -0.256507 0
M  V30 11 N 2.428965 1.091231 0.543246 0
M  V30 12 C 1.886424 2.076605 1.275081 0
M  V30 13 C 0.518878 2.226504 1.184515 0
M  V30 14 C -0.371049 3.098529 1.768044 0
M  V30 15 C -0.180884 4.154499 2.672164 0
M  V30 16 C -1.329990 4.841378 3.061108 0
M  V30 17 N -2.577565 4.568615 2.640260 0
M  V30 18 C -2.756041 3.540750 1.761241 0
M  V30 19 C -1.651180 2.825488 1.341837 0
M  V30 20 N -1.548053 1.765372 0.479668 0
M  V30 21 C -2.652680 1.136720 -0.201092 0
M  V30 22 C -3.312105 0.089498 0.709946 0
M  V30 23 C -3.759309 -1.035206 -0.154985 0
M  V30 24 C -2.808478 -0.974191 -1.322904 0
M  V30 25 C -2.400630 0.478141 -1.473016 0
M  V30 26 C -0.259935 1.410449 0.385300 0
M  V30 27 N 0.387286 0.467738 -0.294559 0
M  V30 28 N 3.355981 -2.900171 -0.938598 0
M  V30 29 C 3.356129 -4.183024 -0.483070 0
M  V30 30 H 3.816467 -7.237725 3.968857 0
M  V30 31 H 1.564695 -6.396552 1.300173 0
M  V30 32 H 2.984442 -6.658106 0.169040 0
M  V30 33 H 1.056947 -3.968651 1.865941 0
M  V30 34 H 0.993243 -1.601123 1.094810 0
M  V30 35 H 3.153460 -0.387868 -1.669553 0
M  V30 36 H 2.443386 2.745525 1.915329 0
M  V30 37 H 0.790201 4.433596 3.056333 0
M  V30 38 H -1.202257 5.663097 3.760898 0
M  V30 39 H -3.754838 3.292587 1.402282 0
M  V30 40 H -3.418804 1.931301 -0.331740 0
M  V30 41 H -2.475323 -0.245484 1.376356 0
M  V30 42 H -4.109638 0.562168 1.313013 0
M  V30 43 H -4.807341 -0.899801 -0.470340 0
M  V30 44 H -3.649607 -1.979244 0.422780 0
M  V30 45 H -3.332904 -1.377379 -2.206030 0
M  V30 46 H -1.936384 -1.617286 -1.048339 0
M  V30 47 H -1.395637 0.478764 -1.888101 0
M  V30 48 H -3.072497 0.872373 -2.291945 0
M  V30 49 H 4.048803 -4.847270 -0.978512 0
M  V30 END ATOM
M  V30 BEGIN BOND
M  V30 1 2 1 2
M  V30 2 1 2 3
M  V30 3 1 2 4
M  V30 4 1 4 5
M  V30 5 2 5 6
M  V30 6 1 6 7
M  V30 7 2 7 8
M  V30 8 1 8 9
M  V30 9 1 9 10
M  V30 10 2 10 11
M  V30 11 1 11 12
M  V30 12 2 12 13
M  V30 13 1 13 14
M  V30 14 2 14 15
M  V30 15 1 15 16
M  V30 16 2 16 17
M  V30 17 1 17 18
M  V30 18 2 18 19
M  V30 19 1 19 20
M  V30 20 1 20 21
M  V30 21 1 21 22
M  V30 22 1 22 23
M  V30 23 1 23 24
M  V30 24 1 24 25
M  V30 25 1 20 26
M  V30 26 2 26 27
M  V30 27 1 8 28
M  V30 28 2 28 29
M  V30 29 1 29 5
M  V30 30 1 27 10
M  V30 31 1 26 13
M  V30 32 1 19 14
M  V30 33 1 25 21
M  V30 34 1 3 30
M  V30 35 1 4 31
M  V30 36 1 4 32
M  V30 37 1 6 33
M  V30 38 1 7 34
M  V30 39 1 9 35
M  V30 40 1 12 36
M  V30 41 1 15 37
M  V30 42 1 16 38
M  V30 43 1 18 39
M  V30 44 1 21 40
M  V30 45 1 22 41
M  V30 46 1 22 42
M  V30 47 1 23 43
M  V30 48 1 23 44
M  V30 49 1 24 45
M  V30 50 1 24 46
M  V30 51 1 25 47
M  V30 52 1 25 48
M  V30 53 1 29 49
M  V30 END BOND
M  V30 END CTAB
M  END
>  <Dataset>  (945) 
ChEMBL_Kinases

>  <Ligand_Instance>  (945) 
nan

>  <PDB_ID>  (945) 
nan

>  <Standardized_SMILES>  (945) 
O=C(O)Cc1ccc(Nc2ncc3c4ccncc4n(C4CCCC4)c3n2)nc1

>  <Name>  (945) 
nan

>  <Pocket>  (945) 
nan

>  <ATP_Site>  (945) 
nan

>  <Peripheral>  (945) 
nan

>  <Num_H_Atoms_ProtBoundConf>  (945) 
nan

>  <Num_Resolved_Atoms>  (945) 
nan

>  <Num_Not_Resolved_Atoms>  (945) 
nan

$$$$
CHEMBL3702144
     RDKit          3D

  0  0  0  0  0  0  0  0  0  0999 V3000
M  V30 BEGIN CTAB
M  V30 COUNTS 68 73 0 0 0
M  V30 BEGIN ATOM
M  V30 1 C 5.065535 1.583319 6.325720 0
M  V30 2 C 4.786115 1.126576 4.927008 0
M  V30 3 C 3.757813 0.016905 4.985562 0
M  V30 4 C 4.175051 2.227972 4.089681 0
M  V30 5 N 4.131936 1.850958 2.680023 0
M  V30 6 C 3.084920 1.797553 1.722159 0
M  V30 7 O 3.236021 1.431784 0.526257 0
M  V30 8 C 1.694238 2.188734 2.098725 0
M  V30 9 C 0.769943 2.050487 0.956351 0
M  V30 10 C 0.045832 0.887894 0.767718 0
M  V30 11 C -0.787569 0.825520 -0.313966 0
M  V30 12 C -0.994756 1.805062 -1.257635 0
M  V30 13 N -1.866193 1.713099 -2.372282 0
M  V30 14 C -2.706208 0.638310 -2.762311 0
M  V30 15 N -3.420513 0.814591 -3.888797 0
M  V30 16 C -4.254790 -0.112416 -4.368212 0
M  V30 17 C -4.361630 -1.283839 -3.652092 0
M  V30 18 C -5.145551 -2.387408 -3.920130 0
M  V30 19 C -6.029114 -2.654648 -4.944528 0
M  V30 20 C -6.709063 -3.852927 -4.989123 0
M  V30 21 N -6.460331 -4.726207 -3.989759 0
M  V30 22 C -5.594877 -4.448471 -2.998153 0
M  V30 23 C -4.877297 -3.272854 -2.885000 0
M  V30 24 N -3.982609 -2.761950 -2.021817 0
M  V30 25 C -3.477572 -3.384525 -0.847050 0
M  V30 26 C -2.066525 -2.872029 -0.591969 0
M  V30 27 C -1.199864 -4.084117 -0.316160 0
M  V30 28 C -2.152461 -5.205069 0.021610 0
M  V30 29 C -3.373849 -4.874585 -0.864413 0
M  V30 30 C -3.661346 -1.533101 -2.491394 0
M  V30 31 N -2.865847 -0.515778 -2.133045 0
M  V30 32 N -0.263110 2.919626 -1.026004 0
M  V30 33 C 0.570700 3.038555 0.018323 0
M  V30 34 C 5.452484 1.462401 2.203387 0
M  V30 35 C 5.834852 0.228584 2.992501 0
M  V30 36 N 5.991288 0.605544 4.364594 0
M  V30 37 H 4.177043 1.408635 6.983113 0
M  V30 38 H 5.494022 2.592294 6.415562 0
M  V30 39 H 5.849943 0.892412 6.750592 0
M  V30 40 H 3.268650 -0.008377 6.002458 0
M  V30 41 H 4.275538 -0.951865 4.898373 0
M  V30 42 H 2.999816 0.104804 4.187002 0
M  V30 43 H 4.848447 3.107964 4.152447 0
M  V30 44 H 3.192715 2.520098 4.457118 0
M  V30 45 H 1.720711 3.227536 2.432535 0
M  V30 46 H 1.381420 1.582682 2.967331 0
M  V30 47 H 0.155979 0.070420 1.469754 0
M  V30 48 H -1.325246 -0.096321 -0.412876 0
M  V30 49 H -1.860799 2.574721 -2.964578 0
M  V30 50 H -4.815060 0.072116 -5.287463 0
M  V30 51 H -6.201350 -1.925136 -5.730058 0
M  V30 52 H -7.396273 -4.082533 -5.769282 0
M  V30 53 H -5.476879 -5.213369 -2.249803 0
M  V30 54 H -4.089240 -3.043508 0.038581 0
M  V30 55 H -2.018886 -2.245240 0.311742 0
M  V30 56 H -1.614503 -2.374841 -1.464247 0
M  V30 57 H -0.508010 -3.951022 0.535296 0
M  V30 58 H -0.598591 -4.405127 -1.188212 0
M  V30 59 H -2.433808 -5.190931 1.084330 0
M  V30 60 H -1.753634 -6.191524 -0.238315 0
M  V30 61 H -4.222411 -5.295731 -0.279142 0
M  V30 62 H -3.165658 -5.340882 -1.819560 0
M  V30 63 H 1.114883 3.980661 0.113841 0
M  V30 64 H 5.492098 1.291960 1.111044 0
M  V30 65 H 6.165456 2.271143 2.498470 0
M  V30 66 H 4.963830 -0.469990 2.925082 0
M  V30 67 H 6.735789 -0.262048 2.593334 0
M  V30 68 H 6.481127 -0.073417 4.964519 0
M  V30 END ATOM
M  V30 BEGIN BOND
M  V30 1 1 1 2
M  V30 2 1 2 3
M  V30 3 1 2 4
M  V30 4 1 4 5
M  V30 5 1 5 6
M  V30 6 2 6 7
M  V30 7 1 6 8
M  V30 8 1 8 9
M  V30 9 2 9 10
M  V30 10 1 10 11
M  V30 11 2 11 12
M  V30 12 1 12 13
M  V30 13 1 13 14
M  V30 14 2 14 15
M  V30 15 1 15 16
M  V30 16 2 16 17
M  V30 17 1 17 18
M  V30 18 2 18 19
M  V30 19 1 19 20
M  V30 20 2 20 21
M  V30 21 1 21 22
M  V30 22 2 22 23
M  V30 23 1 23 24
M  V30 24 1 24 25
M  V30 25 1 25 26
M  V30 26 1 26 27
M  V30 27 1 27 28
M  V30 28 1 28 29
M  V30 29 1 24 30
M  V30 30 2 30 31
M  V30 31 1 12 32
M  V30 32 2 32 33
M  V30 33 1 5 34
M  V30 34 1 34 35
M  V30 35 1 35 36
M  V30 36 1 36 2
M  V30 37 1 33 9
M  V30 38 1 31 14
M  V30 39 1 30 17
M  V30 40 1 23 18
M  V30 41 1 29 25
M  V30 42 1 1 37
M  V30 43 1 1 38
M  V30 44 1 1 39
M  V30 45 1 3 40
M  V30 46 1 3 41
M  V30 47 1 3 42
M  V30 48 1 4 43
M  V30 49 1 4 44
M  V30 50 1 8 45
M  V30 51 1 8 46
M  V30 52 1 10 47
M  V30 53 1 11 48
M  V30 54 1 13 49
M  V30 55 1 16 50
M  V30 56 1 19 51
M  V30 57 1 20 52
M  V30 58 1 22 53
M  V30 59 1 25 54
M  V30 60 1 26 55
M  V30 61 1 26 56
M  V30 62 1 27 57
M  V30 63 1 27 58
M  V30 64 1 28 59
M  V30 65 1 28 60
M  V30 66 1 29 61
M  V30 67 1 29 62
M  V30 68 1 33 63
M  V30 69 1 34 64
M  V30 70 1 34 65
M  V30 71 1 35 66
M  V30 72 1 35 67
M  V30 73 1 36 68
M  V30 END BOND
M  V30 END CTAB
M  END
>  <Dataset>  (946) 
ChEMBL_Kinases

>  <Ligand_Instance>  (946) 
nan

>  <PDB_ID>  (946) 
nan

>  <Standardized_SMILES>  (946) 
CC1(C)CN(C(=O)Cc2ccc(Nc3ncc4c5ccncc5n(C5CCCC5)c4n3)nc2)CCN1

>  <Name>  (946) 
nan

>  <Pocket>  (946) 
nan

>  <ATP_Site>  (946) 
nan

>  <Peripheral>  (946) 
nan

>  <Num_H_Atoms_ProtBoundConf>  (946) 
nan

>  <Num_Resolved_Atoms>  (946) 
nan

>  <Num_Not_Resolved_Atoms>  (946) 
nan

$$$$
CHEMBL394262
     RDKit          3D

  0  0  0  0  0  0  0  0  0  0999 V3000
M  V30 BEGIN CTAB
M  V30 COUNTS 41 44 0 0 0
M  V30 BEGIN ATOM
M  V30 1 C 1.500196 -3.796713 2.173459 0
M  V30 2 C 1.099900 -3.606021 0.721814 0
M  V30 3 C 1.233194 -4.939832 0.019110 0
M  V30 4 N 2.642724 -5.291381 0.037940 0
M  V30 5 C 3.511027 -4.360516 -0.639970 0
M  V30 6 O 4.572906 -4.722993 -1.234931 0
M  V30 7 C 3.138355 -2.931665 -0.634171 0
M  V30 8 N 3.672913 -1.815340 -1.136313 0
M  V30 9 C 2.918683 -0.739984 -0.841321 0
M  V30 10 C 2.973844 0.615901 -1.086720 0
M  V30 11 C 1.972409 1.464511 -0.604692 0
M  V30 12 C 0.899610 0.987725 0.127921 0
M  V30 13 C -0.103116 1.939885 0.594561 0
M  V30 14 O 0.080401 3.132851 0.295704 0
M  V30 15 N -1.226961 1.506627 1.351825 0
M  V30 16 C -2.275179 2.317290 1.868459 0
M  V30 17 C -2.207736 2.892781 3.131310 0
M  V30 18 C -3.258386 3.685283 3.607749 0
M  V30 19 C -4.363980 3.881840 2.792902 0
M  V30 20 C -4.488032 3.338624 1.534190 0
M  V30 21 C -3.410906 2.562009 1.119786 0
M  V30 22 F -3.529722 2.018848 -0.133054 0
M  V30 23 C 0.879597 -0.372907 0.352492 0
M  V30 24 C 1.842555 -1.227776 -0.104955 0
M  V30 25 C 1.970126 -2.615203 0.033231 0
M  V30 26 H 2.022825 -2.907066 2.584133 0
M  V30 27 H 0.614078 -3.941663 2.846982 0
M  V30 28 H 2.151646 -4.671251 2.338210 0
M  V30 29 H 0.054099 -3.247455 0.740321 0
M  V30 30 H 0.611163 -5.675239 0.557182 0
M  V30 31 H 0.858375 -4.775868 -1.025247 0
M  V30 32 H 3.129141 -6.125542 0.472786 0
M  V30 33 H 4.559951 -1.770390 -1.687574 0
M  V30 34 H 3.818687 0.984173 -1.662540 0
M  V30 35 H 2.130334 2.502731 -0.863574 0
M  V30 36 H -1.380284 0.505010 1.602299 0
M  V30 37 H -1.342148 2.733143 3.757395 0
M  V30 38 H -3.257148 4.151769 4.572392 0
M  V30 39 H -5.176520 4.492759 3.157291 0
M  V30 40 H -5.345534 3.490929 0.901866 0
M  V30 41 H 0.059748 -0.765935 0.916833 0
M  V30 END ATOM
M  V30 BEGIN BOND
M  V30 1 1 1 2
M  V30 2 1 2 3
M  V30 3 1 3 4
M  V30 4 1 4 5
M  V30 5 2 5 6
M  V30 6 1 5 7
M  V30 7 1 7 8
M  V30 8 1 8 9
M  V30 9 2 9 10
M  V30 10 1 10 11
M  V30 11 2 11 12
M  V30 12 1 12 13
M  V30 13 2 13 14
M  V30 14 1 13 15
M  V30 15 1 15 16
M  V30 16 2 16 17
M  V30 17 1 17 18
M  V30 18 2 18 19
M  V30 19 1 19 20
M  V30 20 2 20 21
M  V30 21 1 21 22
M  V30 22 1 12 23
M  V30 23 2 23 24
M  V30 24 1 24 25
M  V30 25 1 25 2
M  V30 26 2 25 7
M  V30 27 1 24 9
M  V30 28 1 21 16
M  V30 29 1 1 26
M  V30 30 1 1 27
M  V30 31 1 1 28
M  V30 32 1 2 29
M  V30 33 1 3 30
M  V30 34 1 3 31
M  V30 35 1 4 32
M  V30 36 1 8 33
M  V30 37 1 10 34
M  V30 38 1 11 35
M  V30 39 1 15 36
M  V30 40 1 17 37
M  V30 41 1 18 38
M  V30 42 1 19 39
M  V30 43 1 20 40
M  V30 44 1 23 41
M  V30 END BOND
M  V30 END CTAB
M  END
>  <Dataset>  (947) 
ChEMBL_Kinases

>  <Ligand_Instance>  (947) 
nan

>  <PDB_ID>  (947) 
nan

>  <Standardized_SMILES>  (947) 
CC1CNC(=O)c2[nH]c3ccc(C(=O)Nc4ccccc4F)cc3c21

>  <Name>  (947) 
nan

>  <Pocket>  (947) 
nan

>  <ATP_Site>  (947) 
nan

>  <Peripheral>  (947) 
nan

>  <Num_H_Atoms_ProtBoundConf>  (947) 
nan

>  <Num_Resolved_Atoms>  (947) 
nan

>  <Num_Not_Resolved_Atoms>  (947) 
nan

$$$$
CHEMBL3702145
     RDKit          3D

  0  0  0  0  0  0  0  0  0  0999 V3000
M  V30 BEGIN CTAB
M  V30 COUNTS 71 76 0 0 0
M  V30 BEGIN ATOM
M  V30 1 C 2.082100 -1.634995 2.245513 0
M  V30 2 N 2.594488 -2.381983 1.156863 0
M  V30 3 C 3.010699 -3.697720 1.402637 0
M  V30 4 C 2.926328 -1.700198 -0.012017 0
M  V30 5 C 1.630523 -1.069580 -0.563711 0
M  V30 6 C 1.858558 -0.806081 -2.064281 0
M  V30 7 N 3.208812 -0.197372 -2.045772 0
M  V30 8 C 3.868363 1.068555 -1.955520 0
M  V30 9 O 5.157061 0.998546 -1.929552 0
M  V30 10 C 3.503423 2.523610 -1.873813 0
M  V30 11 C 2.358305 2.767949 -0.941961 0
M  V30 12 C 1.198815 2.345938 -1.609345 0
M  V30 13 C -0.003438 2.441153 -0.940277 0
M  V30 14 C -0.231473 2.908421 0.318206 0
M  V30 15 N -1.524085 2.896143 0.958608 0
M  V30 16 C -2.392562 2.076520 0.139199 0
M  V30 17 N -3.079916 2.137121 -0.987912 0
M  V30 18 C -3.703055 0.992554 -1.420978 0
M  V30 19 C -3.612927 -0.189735 -0.696928 0
M  V30 20 C -4.126284 -1.447852 -0.949962 0
M  V30 21 C -4.882665 -1.846156 -2.045422 0
M  V30 22 C -5.227276 -3.202467 -2.045188 0
M  V30 23 N -4.851983 -4.032203 -1.060372 0
M  V30 24 C -4.115040 -3.592435 -0.008115 0
M  V30 25 C -3.718811 -2.259607 0.084571 0
M  V30 26 N -2.991138 -1.527253 0.931987 0
M  V30 27 C -2.429230 -1.981388 2.167091 0
M  V30 28 C -3.507734 -2.604343 3.081943 0
M  V30 29 C -3.738420 -1.625921 4.212171 0
M  V30 30 C -3.174246 -0.307683 3.636241 0
M  V30 31 C -1.892275 -0.909590 3.048537 0
M  V30 32 C -2.887904 -0.243766 0.497580 0
M  V30 33 N -2.324187 0.932885 0.817685 0
M  V30 34 N 0.911168 3.307250 0.904637 0
M  V30 35 C 2.135943 3.260549 0.360990 0
M  V30 36 C 4.080773 -1.393689 -2.123918 0
M  V30 37 C 3.633066 -2.446511 -1.108374 0
M  V30 38 H 2.412134 -0.565708 2.301240 0
M  V30 39 H 2.213510 -2.149390 3.213259 0
M  V30 40 H 0.961610 -1.562940 2.116325 0
M  V30 41 H 3.839366 -3.717959 2.170548 0
M  V30 42 H 2.168576 -4.225121 1.948929 0
M  V30 43 H 3.240154 -4.310152 0.537948 0
M  V30 44 H 3.607058 -0.813252 0.204124 0
M  V30 45 H 0.810595 -1.736647 -0.367367 0
M  V30 46 H 1.536309 -0.078400 -0.083178 0
M  V30 47 H 1.855180 -1.793496 -2.563537 0
M  V30 48 H 1.078067 -0.239642 -2.525219 0
M  V30 49 H 4.364195 3.104309 -1.424786 0
M  V30 50 H 3.295209 2.934427 -2.838606 0
M  V30 51 H 1.188103 1.970731 -2.635977 0
M  V30 52 H -0.856595 2.072703 -1.542974 0
M  V30 53 H -1.717827 3.398358 1.842235 0
M  V30 54 H -4.240767 1.116411 -2.339981 0
M  V30 55 H -5.178957 -1.181683 -2.841559 0
M  V30 56 H -5.819943 -3.599569 -2.878150 0
M  V30 57 H -3.796998 -4.266724 0.794856 0
M  V30 58 H -1.657804 -2.726367 1.984764 0
M  V30 59 H -3.093808 -3.529775 3.526781 0
M  V30 60 H -4.449444 -2.755321 2.515169 0
M  V30 61 H -4.800842 -1.495588 4.483867 0
M  V30 62 H -3.110153 -1.827348 5.097818 0
M  V30 63 H -2.957999 0.432822 4.398420 0
M  V30 64 H -3.909841 -0.019638 2.859574 0
M  V30 65 H -1.415785 -1.437188 3.921152 0
M  V30 66 H -1.217319 -0.201585 2.601979 0
M  V30 67 H 3.080933 3.543219 0.737749 0
M  V30 68 H 3.878264 -1.826615 -3.152105 0
M  V30 69 H 5.135263 -1.143901 -2.073744 0
M  V30 70 H 4.531041 -2.911114 -0.713084 0
M  V30 71 H 2.922015 -3.145951 -1.587906 0
M  V30 END ATOM
M  V30 BEGIN BOND
M  V30 1 1 1 2
M  V30 2 1 2 3
M  V30 3 1 2 4
M  V30 4 1 4 5
M  V30 5 1 5 6
M  V30 6 1 6 7
M  V30 7 1 7 8
M  V30 8 2 8 9
M  V30 9 1 8 10
M  V30 10 1 10 11
M  V30 11 2 11 12
M  V30 12 1 12 13
M  V30 13 2 13 14
M  V30 14 1 14 15
M  V30 15 1 15 16
M  V30 16 2 16 17
M  V30 17 1 17 18
M  V30 18 2 18 19
M  V30 19 1 19 20
M  V30 20 2 20 21
M  V30 21 1 21 22
M  V30 22 2 22 23
M  V30 23 1 23 24
M  V30 24 2 24 25
M  V30 25 1 25 26
M  V30 26 1 26 27
M  V30 27 1 27 28
M  V30 28 1 28 29
M  V30 29 1 29 30
M  V30 30 1 30 31
M  V30 31 1 26 32
M  V30 32 2 32 33
M  V30 33 1 14 34
M  V30 34 2 34 35
M  V30 35 1 7 36
M  V30 36 1 36 37
M  V30 37 1 37 4
M  V30 38 1 35 11
M  V30 39 1 33 16
M  V30 40 1 32 19
M  V30 41 1 25 20
M  V30 42 1 31 27
M  V30 43 1 1 38
M  V30 44 1 1 39
M  V30 45 1 1 40
M  V30 46 1 3 41
M  V30 47 1 3 42
M  V30 48 1 3 43
M  V30 49 1 4 44
M  V30 50 1 5 45
M  V30 51 1 5 46
M  V30 52 1 6 47
M  V30 53 1 6 48
M  V30 54 1 10 49
M  V30 55 1 10 50
M  V30 56 1 12 51
M  V30 57 1 13 52
M  V30 58 1 15 53
M  V30 59 1 18 54
M  V30 60 1 21 55
M  V30 61 1 22 56
M  V30 62 1 24 57
M  V30 63 1 27 58
M  V30 64 1 28 59
M  V30 65 1 28 60
M  V30 66 1 29 61
M  V30 67 1 29 62
M  V30 68 1 30 63
M  V30 69 1 30 64
M  V30 70 1 31 65
M  V30 71 1 31 66
M  V30 72 1 35 67
M  V30 73 1 36 68
M  V30 74 1 36 69
M  V30 75 1 37 70
M  V30 76 1 37 71
M  V30 END BOND
M  V30 END CTAB
M  END
>  <Dataset>  (948) 
ChEMBL_Kinases

>  <Ligand_Instance>  (948) 
nan

>  <PDB_ID>  (948) 
nan

>  <Standardized_SMILES>  (948) 
CN(C)C1CCN(C(=O)Cc2ccc(Nc3ncc4c5ccncc5n(C5CCCC5)c4n3)nc2)CC1

>  <Name>  (948) 
nan

>  <Pocket>  (948) 
nan

>  <ATP_Site>  (948) 
nan

>  <Peripheral>  (948) 
nan

>  <Num_H_Atoms_ProtBoundConf>  (948) 
nan

>  <Num_Resolved_Atoms>  (948) 
nan

>  <Num_Not_Resolved_Atoms>  (948) 
nan

$$$$
CHEMBL3942502
     RDKit          3D

  0  0  0  0  0  0  0  0  0  0999 V3000
M  V30 BEGIN CTAB
M  V30 COUNTS 43 46 0 0 0
M  V30 BEGIN ATOM
M  V30 1 N 2.035954 -7.991616 4.786427 0
M  V30 2 C 1.491223 -7.388529 3.593893 0
M  V30 3 O 0.849136 -8.183471 2.859537 0
M  V30 4 C 1.785641 -5.966060 3.458966 0
M  V30 5 C 2.512248 -5.206253 4.352371 0
M  V30 6 C 2.670747 -3.874633 4.027447 0
M  V30 7 C 2.146260 -3.306321 2.884652 0
M  V30 8 N 2.206964 -2.030111 2.418604 0
M  V30 9 C 1.528889 -1.991938 1.251726 0
M  V30 10 C 1.355835 -0.799421 0.426580 0
M  V30 11 C 1.916321 0.389694 0.846818 0
M  V30 12 C 1.753040 1.519473 0.066240 0
M  V30 13 C 1.034996 1.432838 -1.112701 0
M  V30 14 O 0.801013 2.498343 -1.984519 0
M  V30 15 C -0.344737 3.278888 -1.790744 0
M  V30 16 C -1.188536 2.960845 -0.749899 0
M  V30 17 C -2.326911 3.744780 -0.565827 0
M  V30 18 C -2.615223 4.824594 -1.405658 0
M  V30 19 C -3.858848 5.528962 -1.051589 0
M  V30 20 F -4.999364 4.910193 -1.521239 0
M  V30 21 F -3.894098 6.839944 -1.502819 0
M  V30 22 F -3.963908 5.617323 0.331970 0
M  V30 23 C -1.746315 5.109971 -2.435102 0
M  V30 24 C -0.603769 4.334527 -2.631276 0
M  V30 25 C 0.472478 0.240021 -1.534734 0
M  V30 26 C 0.632740 -0.907062 -0.751561 0
M  V30 27 N 1.059541 -3.227467 1.006671 0
M  V30 28 C 1.410506 -4.085476 1.984363 0
M  V30 29 C 1.252600 -5.417015 2.310256 0
M  V30 30 H 2.938334 -8.439154 5.123170 0
M  V30 31 H 1.335821 -7.991416 5.556347 0
M  V30 32 H 2.893043 -5.703861 5.219978 0
M  V30 33 H 3.251506 -3.292154 4.752593 0
M  V30 34 H 2.682943 -1.215892 2.862746 0
M  V30 35 H 2.487407 0.501813 1.765203 0
M  V30 36 H 2.152689 2.495858 0.308609 0
M  V30 37 H -0.970982 2.118823 -0.088799 0
M  V30 38 H -2.954550 3.436841 0.280166 0
M  V30 39 H -2.032384 5.965584 -3.051334 0
M  V30 40 H 0.049280 4.608717 -3.465044 0
M  V30 41 H -0.101010 0.123201 -2.455111 0
M  V30 42 H 0.200942 -1.873804 -1.052730 0
M  V30 43 H 0.667508 -5.968962 1.564144 0
M  V30 END ATOM
M  V30 BEGIN BOND
M  V30 1 1 1 2
M  V30 2 2 2 3
M  V30 3 1 2 4
M  V30 4 2 4 5
M  V30 5 1 5 6
M  V30 6 2 6 7
M  V30 7 1 7 8
M  V30 8 1 8 9
M  V30 9 1 9 10
M  V30 10 2 10 11
M  V30 11 1 11 12
M  V30 12 2 12 13
M  V30 13 1 13 14
M  V30 14 1 14 15
M  V30 15 2 15 16
M  V30 16 1 16 17
M  V30 17 2 17 18
M  V30 18 1 18 19
M  V30 19 1 19 20
M  V30 20 1 19 21
M  V30 21 1 19 22
M  V30 22 1 18 23
M  V30 23 2 23 24
M  V30 24 1 13 25
M  V30 25 2 25 26
M  V30 26 2 9 27
M  V30 27 1 27 28
M  V30 28 2 28 29
M  V30 29 1 29 4
M  V30 30 1 28 7
M  V30 31 1 26 10
M  V30 32 1 24 15
M  V30 33 1 1 30
M  V30 34 1 1 31
M  V30 35 1 5 32
M  V30 36 1 6 33
M  V30 37 1 8 34
M  V30 38 1 11 35
M  V30 39 1 12 36
M  V30 40 1 16 37
M  V30 41 1 17 38
M  V30 42 1 23 39
M  V30 43 1 24 40
M  V30 44 1 25 41
M  V30 45 1 26 42
M  V30 46 1 29 43
M  V30 END BOND
M  V30 END CTAB
M  END
>  <Dataset>  (949) 
ChEMBL_Kinases

>  <Ligand_Instance>  (949) 
nan

>  <PDB_ID>  (949) 
nan

>  <Standardized_SMILES>  (949) 
NC(=O)c1ccc2[nH]c(-c3ccc(Oc4ccc(C(F)(F)F)cc4)cc3)nc2c1

>  <Name>  (949) 
nan

>  <Pocket>  (949) 
nan

>  <ATP_Site>  (949) 
nan

>  <Peripheral>  (949) 
nan

>  <Num_H_Atoms_ProtBoundConf>  (949) 
nan

>  <Num_Resolved_Atoms>  (949) 
nan

>  <Num_Not_Resolved_Atoms>  (949) 
nan

$$$$
CHEMBL3938208
     RDKit          3D

  0  0  0  0  0  0  0  0  0  0999 V3000
M  V30 BEGIN CTAB
M  V30 COUNTS 38 41 0 0 0
M  V30 BEGIN ATOM
M  V30 1 C -1.264618 4.317975 2.201727 0
M  V30 2 C -0.901076 2.993865 2.819061 0
M  V30 3 N -0.350929 3.113245 4.034047 0
M  V30 4 C -0.063552 1.891381 4.500410 0
M  V30 5 C -0.484095 1.000906 3.466399 0
M  V30 6 S -0.688844 -0.691916 2.799003 0
M  V30 7 C -1.464087 -0.013421 1.197266 0
M  V30 8 C -1.831469 -1.141534 0.247522 0
M  V30 9 O -2.774837 -1.934554 0.572577 0
M  V30 10 N -1.067575 -1.223819 -0.967289 0
M  V30 11 C 0.035396 -0.507594 -1.625150 0
M  V30 12 C -0.598909 -0.216723 -2.965915 0
M  V30 13 C -1.464614 -1.450568 -3.197009 0
M  V30 14 C -1.335833 -2.270771 -1.949034 0 CFG=1
M  V30 15 C -0.161017 -3.165419 -1.908223 0
M  V30 16 C 0.520687 -3.685621 -2.970583 0
M  V30 17 C 1.605189 -4.512242 -2.849202 0
M  V30 18 C 2.037056 -4.840552 -1.579689 0
M  V30 19 Cl 3.415331 -5.890828 -1.253289 0
M  V30 20 C 1.391153 -4.347845 -0.457224 0
M  V30 21 C 0.287617 -3.506923 -0.630802 0
M  V30 22 N -1.428382 1.096275 1.420428 0
M  V30 23 N -0.982389 1.700053 2.471861 0
M  V30 24 H -1.890117 4.925997 2.871362 0
M  V30 25 H -1.794921 4.158714 1.253589 0
M  V30 26 H -0.311628 4.850317 1.959601 0
M  V30 27 H 0.362785 1.383691 5.362584 0
M  V30 28 H 0.872345 -1.210888 -1.677329 0
M  V30 29 H 0.287303 0.393286 -1.049938 0
M  V30 30 H 0.188802 -0.097851 -3.710377 0
M  V30 31 H -1.215236 0.703406 -2.879142 0
M  V30 32 H -1.243816 -1.954526 -4.133470 0
M  V30 33 H -2.522316 -1.095681 -3.239640 0
M  V30 34 H -2.230944 -2.859180 -1.738717 0
M  V30 35 H 0.163437 -3.415292 -3.951689 0
M  V30 36 H 2.140045 -4.920320 -3.674154 0
M  V30 37 H 1.714803 -4.594180 0.563037 0
M  V30 38 H -0.192859 -3.139558 0.272665 0
M  V30 END ATOM
M  V30 BEGIN BOND
M  V30 1 1 1 2
M  V30 2 2 2 3
M  V30 3 1 3 4
M  V30 4 2 4 5
M  V30 5 1 5 6
M  V30 6 1 6 7
M  V30 7 1 7 8
M  V30 8 2 8 9
M  V30 9 1 8 10
M  V30 10 1 10 11
M  V30 11 1 11 12
M  V30 12 1 12 13
M  V30 13 1 13 14
M  V30 14 1 14 15
M  V30 15 2 15 16
M  V30 16 1 16 17
M  V30 17 2 17 18
M  V30 18 1 18 19
M  V30 19 1 18 20
M  V30 20 2 20 21
M  V30 21 2 7 22
M  V30 22 1 22 23
M  V30 23 1 23 2
M  V30 24 1 23 5
M  V30 25 1 14 10
M  V30 26 1 21 15
M  V30 27 1 1 24
M  V30 28 1 1 25
M  V30 29 1 1 26
M  V30 30 1 4 27
M  V30 31 1 11 28
M  V30 32 1 11 29
M  V30 33 1 12 30
M  V30 34 1 12 31
M  V30 35 1 13 32
M  V30 36 1 13 33
M  V30 37 1 14 34 CFG=1
M  V30 38 1 16 35
M  V30 39 1 17 36
M  V30 40 1 20 37
M  V30 41 1 21 38
M  V30 END BOND
M  V30 END CTAB
M  END
>  <Dataset>  (950) 
ChEMBL_Kinases

>  <Ligand_Instance>  (950) 
nan

>  <PDB_ID>  (950) 
nan

>  <Standardized_SMILES>  (950) 
Cc1ncc2sc(C(=O)N3CCC[C@H]3c3ccc(Cl)cc3)nn12

>  <Name>  (950) 
nan

>  <Pocket>  (950) 
nan

>  <ATP_Site>  (950) 
nan

>  <Peripheral>  (950) 
nan

>  <Num_H_Atoms_ProtBoundConf>  (950) 
nan

>  <Num_Resolved_Atoms>  (950) 
nan

>  <Num_Not_Resolved_Atoms>  (950) 
nan

$$$$
CHEMBL4875598
     RDKit          3D

  0  0  0  0  0  0  0  0  0  0999 V3000
M  V30 BEGIN CTAB
M  V30 COUNTS 44 45 0 0 0
M  V30 BEGIN ATOM
M  V30 1 C -0.438332 -4.554948 2.267362 0
M  V30 2 O -0.550848 -3.445205 3.171624 0
M  V30 3 C 0.026049 -2.234522 2.832607 0
M  V30 4 C 0.707653 -2.098386 1.626050 0
M  V30 5 C 1.251644 -0.853021 1.370959 0
M  V30 6 N 1.958456 -0.713500 0.118805 0
M  V30 7 C 1.093726 -0.285291 -0.967888 0
M  V30 8 O 0.026029 -0.227955 -0.248666 0
M  V30 9 C 1.679658 -0.103612 -2.292903 0 CFG=2
M  V30 10 N 3.066471 -0.635618 -2.217361 0
M  V30 11 C 1.819064 1.296324 -2.687362 0
M  V30 12 C 0.723084 2.232183 -2.823553 0
M  V30 13 C -0.075946 2.497432 -1.574207 0
M  V30 14 C -0.270921 1.995822 -3.920668 0
M  V30 15 C 1.146406 0.219376 2.238156 0
M  V30 16 C 0.454449 0.035534 3.434619 0
M  V30 17 C -0.117939 -1.204214 3.747008 0
M  V30 18 N -0.827001 -1.392256 4.973247 0
M  V30 19 C -2.065994 -0.885478 5.121363 0
M  V30 20 C -2.453424 -1.242484 6.398449 0
M  V30 21 N -1.442875 -1.950345 6.980857 0
M  V30 22 C -0.427335 -2.040341 6.082553 0
M  V30 23 H 0.607637 -4.834929 2.099396 0
M  V30 24 H -0.996180 -5.417487 2.675346 0
M  V30 25 H -0.963805 -4.231966 1.357969 0
M  V30 26 H 0.802748 -2.924781 0.931264 0
M  V30 27 H 3.009613 -0.912074 0.032153 0
M  V30 28 H 1.231849 -0.773734 -3.066607 0
M  V30 29 H 3.041404 -1.680269 -2.188178 0
M  V30 30 H 3.451043 -0.417380 -3.177246 0
M  V30 31 H 2.477183 1.291987 -3.623372 0
M  V30 32 H 2.558740 1.748167 -1.939546 0
M  V30 33 H 1.176574 3.246098 -3.068723 0
M  V30 34 H -0.481623 3.563672 -1.587537 0
M  V30 35 H -1.001882 1.889531 -1.529282 0
M  V30 36 H 0.556798 2.366570 -0.676882 0
M  V30 37 H 0.109202 1.495181 -4.803660 0
M  V30 38 H -1.134266 1.391450 -3.558417 0
M  V30 39 H -0.732464 2.952850 -4.275841 0
M  V30 40 H 1.597321 1.165445 1.973014 0
M  V30 41 H 0.371089 0.868577 4.111317 0
M  V30 42 H -2.694827 -0.323923 4.469872 0
M  V30 43 H -3.404236 -1.012485 6.891530 0
M  V30 44 H 0.533894 -2.530813 6.199967 0
M  V30 END ATOM
M  V30 BEGIN BOND
M  V30 1 1 1 2
M  V30 2 1 2 3
M  V30 3 2 3 4
M  V30 4 1 4 5
M  V30 5 1 5 6
M  V30 6 1 6 7
M  V30 7 2 7 8
M  V30 8 1 7 9
M  V30 9 1 9 10
M  V30 10 1 9 11
M  V30 11 1 11 12
M  V30 12 1 12 13
M  V30 13 1 12 14
M  V30 14 2 5 15
M  V30 15 1 15 16
M  V30 16 2 16 17
M  V30 17 1 17 18
M  V30 18 1 18 19
M  V30 19 2 19 20
M  V30 20 1 20 21
M  V30 21 2 21 22
M  V30 22 1 17 3
M  V30 23 1 22 18
M  V30 24 1 1 23
M  V30 25 1 1 24
M  V30 26 1 1 25
M  V30 27 1 4 26
M  V30 28 1 6 27
M  V30 29 1 9 28 CFG=3
M  V30 30 1 10 29
M  V30 31 1 10 30
M  V30 32 1 11 31
M  V30 33 1 11 32
M  V30 34 1 12 33
M  V30 35 1 13 34
M  V30 36 1 13 35
M  V30 37 1 13 36
M  V30 38 1 14 37
M  V30 39 1 14 38
M  V30 40 1 14 39
M  V30 41 1 15 40
M  V30 42 1 16 41
M  V30 43 1 19 42
M  V30 44 1 20 43
M  V30 45 1 22 44
M  V30 END BOND
M  V30 END CTAB
M  END
>  <Dataset>  (951) 
ChEMBL_Kinases

>  <Ligand_Instance>  (951) 
nan

>  <PDB_ID>  (951) 
nan

>  <Standardized_SMILES>  (951) 
COc1cc(NC(=O)[C@H](N)CC(C)C)ccc1-n1ccnc1

>  <Name>  (951) 
nan

>  <Pocket>  (951) 
nan

>  <ATP_Site>  (951) 
nan

>  <Peripheral>  (951) 
nan

>  <Num_H_Atoms_ProtBoundConf>  (951) 
nan

>  <Num_Resolved_Atoms>  (951) 
nan

>  <Num_Not_Resolved_Atoms>  (951) 
nan

$$$$
CHEMBL3702146
     RDKit          3D

  0  0  0  0  0  0  0  0  0  0999 V3000
M  V30 BEGIN CTAB
M  V30 COUNTS 61 66 0 0 0
M  V30 BEGIN ATOM
M  V30 1 O 1.675060 -3.804802 -1.346538 0
M  V30 2 C 2.179379 -4.825000 -1.861706 0
M  V30 3 C 3.229680 -3.777845 -2.077310 0
M  V30 4 C 2.763455 -2.472212 -1.563064 0
M  V30 5 C 2.829656 -1.984308 -0.278519 0
M  V30 6 C 2.334544 -0.713670 0.030068 0
M  V30 7 C 1.783627 0.044939 -0.947946 0
M  V30 8 N 1.239808 1.337577 -0.757217 0
M  V30 9 C 1.055440 2.195853 0.354268 0
M  V30 10 N 1.919496 3.079478 0.896412 0
M  V30 11 C 1.561494 3.842279 1.968390 0
M  V30 12 C 0.287258 3.667121 2.464159 0
M  V30 13 C -0.401362 4.255918 3.508625 0
M  V30 14 C -0.031784 5.229246 4.415905 0
M  V30 15 C -0.905878 5.684131 5.403215 0
M  V30 16 N -2.143223 5.126860 5.435835 0
M  V30 17 C -2.549407 4.176401 4.574330 0
M  V30 18 C -1.690803 3.721383 3.594916 0
M  V30 19 N -1.793173 2.804654 2.604009 0
M  V30 20 C -2.970030 2.068144 2.389507 0
M  V30 21 C -3.410687 1.042890 3.338325 0
M  V30 22 C -4.706196 0.606463 2.620614 0
M  V30 23 C -4.176293 0.370157 1.222596 0
M  V30 24 C -2.912271 1.237379 1.093968 0
M  V30 25 C -0.618628 2.773301 1.933684 0
M  V30 26 N -0.182057 2.062186 0.878283 0
M  V30 27 N 1.712058 -0.419404 -2.210875 0
M  V30 28 C 2.185146 -1.638692 -2.515815 0
M  V30 29 N 1.894833 -6.173354 -2.090525 0
M  V30 30 C 2.543871 -7.320082 -2.727475 0
M  V30 31 C 1.691384 -7.761282 -3.905847 0
M  V30 32 O 0.435670 -8.094286 -3.417859 0
M  V30 33 C -0.193614 -7.061033 -2.771388 0
M  V30 34 C 0.613434 -6.600658 -1.567805 0
M  V30 35 H 4.166452 -4.131195 -1.599610 0
M  V30 36 H 3.446602 -3.736507 -3.161939 0
M  V30 37 H 3.277232 -2.641521 0.431941 0
M  V30 38 H 2.392463 -0.352300 1.025007 0
M  V30 39 H 0.843472 1.917371 -1.533895 0
M  V30 40 H 2.261698 4.528906 2.373942 0
M  V30 41 H 0.922626 5.694066 4.430111 0
M  V30 42 H -0.629157 6.456063 6.130438 0
M  V30 43 H -3.551818 3.779305 4.661776 0
M  V30 44 H -3.868333 2.736065 2.208951 0
M  V30 45 H -3.777972 1.368339 4.320257 0
M  V30 46 H -2.812589 0.103293 3.364222 0
M  V30 47 H -5.144426 -0.292262 3.092281 0
M  V30 48 H -5.365593 1.497491 2.624523 0
M  V30 49 H -3.921750 -0.721395 1.161425 0
M  V30 50 H -4.924466 0.664268 0.455512 0
M  V30 51 H -2.025018 0.590903 1.059682 0
M  V30 52 H -2.996216 1.887370 0.198871 0
M  V30 53 H 2.093541 -1.952768 -3.569169 0
M  V30 54 H 2.568945 -8.150360 -2.007749 0
M  V30 55 H 3.584540 -7.120175 -3.018915 0
M  V30 56 H 2.153220 -8.674641 -4.327519 0
M  V30 57 H 1.637250 -6.971157 -4.684156 0
M  V30 58 H -0.238947 -6.177193 -3.447316 0
M  V30 59 H -1.227083 -7.342704 -2.532263 0
M  V30 60 H 0.809269 -7.464102 -0.867748 0
M  V30 61 H 0.048354 -5.835507 -1.040448 0
M  V30 END ATOM
M  V30 BEGIN BOND
M  V30 1 2 1 2
M  V30 2 1 2 3
M  V30 3 1 3 4
M  V30 4 2 4 5
M  V30 5 1 5 6
M  V30 6 2 6 7
M  V30 7 1 7 8
M  V30 8 1 8 9
M  V30 9 2 9 10
M  V30 10 1 10 11
M  V30 11 2 11 12
M  V30 12 1 12 13
M  V30 13 2 13 14
M  V30 14 1 14 15
M  V30 15 2 15 16
M  V30 16 1 16 17
M  V30 17 2 17 18
M  V30 18 1 18 19
M  V30 19 1 19 20
M  V30 20 1 20 21
M  V30 21 1 21 22
M  V30 22 1 22 23
M  V30 23 1 23 24
M  V30 24 1 19 25
M  V30 25 2 25 26
M  V30 26 1 7 27
M  V30 27 2 27 28
M  V30 28 1 2 29
M  V30 29 1 29 30
M  V30 30 1 30 31
M  V30 31 1 31 32
M  V30 32 1 32 33
M  V30 33 1 33 34
M  V30 34 1 28 4
M  V30 35 1 34 29
M  V30 36 1 26 9
M  V30 37 1 25 12
M  V30 38 1 18 13
M  V30 39 1 24 20
M  V30 40 1 3 35
M  V30 41 1 3 36
M  V30 42 1 5 37
M  V30 43 1 6 38
M  V30 44 1 8 39
M  V30 45 1 11 40
M  V30 46 1 14 41
M  V30 47 1 15 42
M  V30 48 1 17 43
M  V30 49 1 20 44
M  V30 50 1 21 45
M  V30 51 1 21 46
M  V30 52 1 22 47
M  V30 53 1 22 48
M  V30 54 1 23 49
M  V30 55 1 23 50
M  V30 56 1 24 51
M  V30 57 1 24 52
M  V30 58 1 28 53
M  V30 59 1 30 54
M  V30 60 1 30 55
M  V30 61 1 31 56
M  V30 62 1 31 57
M  V30 63 1 33 58
M  V30 64 1 33 59
M  V30 65 1 34 60
M  V30 66 1 34 61
M  V30 END BOND
M  V30 END CTAB
M  END
>  <Dataset>  (952) 
ChEMBL_Kinases

>  <Ligand_Instance>  (952) 
nan

>  <PDB_ID>  (952) 
nan

>  <Standardized_SMILES>  (952) 
O=C(Cc1ccc(Nc2ncc3c4ccncc4n(C4CCCC4)c3n2)nc1)N1CCOCC1

>  <Name>  (952) 
nan

>  <Pocket>  (952) 
nan

>  <ATP_Site>  (952) 
nan

>  <Peripheral>  (952) 
nan

>  <Num_H_Atoms_ProtBoundConf>  (952) 
nan

>  <Num_Resolved_Atoms>  (952) 
nan

>  <Num_Not_Resolved_Atoms>  (952) 
nan

$$$$
CHEMBL3702147
     RDKit          3D

  0  0  0  0  0  0  0  0  0  0999 V3000
M  V30 BEGIN CTAB
M  V30 COUNTS 62 67 0 0 0
M  V30 BEGIN ATOM
M  V30 1 O 2.050507 -6.604627 0.252052 0
M  V30 2 C 2.056300 -5.362096 0.068382 0
M  V30 3 C 3.077372 -4.576703 0.765436 0
M  V30 4 C 2.905230 -3.115160 0.592486 0
M  V30 5 C 2.249355 -2.263113 1.475053 0
M  V30 6 C 2.178546 -0.925934 1.146061 0
M  V30 7 C 2.745074 -0.494062 -0.013959 0
M  V30 8 N 2.671784 0.878878 -0.359091 0
M  V30 9 C 2.053451 1.845296 0.482447 0
M  V30 10 N 2.686407 2.796048 1.232443 0
M  V30 11 C 1.894805 3.615359 1.982178 0
M  V30 12 C 0.515755 3.499497 1.993254 0
M  V30 13 C -0.411654 4.241297 2.692009 0
M  V30 14 C -0.426242 5.295774 3.577270 0
M  V30 15 C -1.650364 5.754494 4.060101 0
M  V30 16 N -2.817596 5.171930 3.664955 0
M  V30 17 C -2.781685 4.154212 2.808761 0
M  V30 18 C -1.603414 3.659441 2.299265 0
M  V30 19 N -1.456483 2.642549 1.432817 0
M  V30 20 C -2.273839 1.734365 0.748309 0
M  V30 21 C -3.743015 1.873456 0.789132 0
M  V30 22 C -4.100207 0.707213 -0.166273 0
M  V30 23 C -3.148017 -0.399274 0.298912 0
M  V30 24 C -2.052803 0.280697 1.092212 0
M  V30 25 C -0.100798 2.530498 1.228443 0
M  V30 26 N 0.718716 1.742077 0.500597 0
M  V30 27 N 3.384103 -1.324120 -0.872234 0
M  V30 28 C 3.484486 -2.658890 -0.597007 0
M  V30 29 N 0.970076 -5.173080 -0.827786 0
M  V30 30 C 0.349034 -6.425685 -1.156400 0
M  V30 31 C -0.491620 -6.407644 -2.388908 0
M  V30 32 N -0.828618 -5.118032 -2.896887 0
M  V30 33 C -0.930204 -4.147601 -1.832907 0
M  V30 34 C 0.505221 -3.896650 -1.366372 0
M  V30 35 H 2.926692 -4.794473 1.868282 0
M  V30 36 H 4.113417 -4.914226 0.548300 0
M  V30 37 H 1.836272 -2.719053 2.368648 0
M  V30 38 H 1.670244 -0.263481 1.830823 0
M  V30 39 H 3.064678 1.260118 -1.247080 0
M  V30 40 H 2.367224 4.369964 2.580804 0
M  V30 41 H 0.527453 5.715674 3.851547 0
M  V30 42 H -1.658476 6.585455 4.755488 0
M  V30 43 H -3.735243 3.735696 2.537470 0
M  V30 44 H -2.009133 1.776513 -0.355617 0
M  V30 45 H -4.167908 2.805887 0.415289 0
M  V30 46 H -4.243140 1.567583 1.729078 0
M  V30 47 H -3.767964 1.081753 -1.158164 0
M  V30 48 H -5.147758 0.425536 -0.093213 0
M  V30 49 H -2.693372 -0.887935 -0.591419 0
M  V30 50 H -3.666588 -1.184465 0.885423 0
M  V30 51 H -2.097386 0.034233 2.149213 0
M  V30 52 H -1.051414 0.010026 0.672825 0
M  V30 53 H 3.998196 -3.258310 -1.309413 0
M  V30 54 H -0.304083 -6.784631 -0.305360 0
M  V30 55 H 1.101781 -7.263619 -1.255044 0
M  V30 56 H 0.032320 -6.952328 -3.224720 0
M  V30 57 H -1.446733 -6.968527 -2.237102 0
M  V30 58 H -1.730228 -5.169269 -3.401967 0
M  V30 59 H -1.417099 -3.252339 -2.220923 0
M  V30 60 H -1.511580 -4.603539 -0.993717 0
M  V30 61 H 0.426671 -3.125709 -0.591478 0
M  V30 62 H 1.102315 -3.579186 -2.229014 0
M  V30 END ATOM
M  V30 BEGIN BOND
M  V30 1 2 1 2
M  V30 2 1 2 3
M  V30 3 1 3 4
M  V30 4 2 4 5
M  V30 5 1 5 6
M  V30 6 2 6 7
M  V30 7 1 7 8
M  V30 8 1 8 9
M  V30 9 2 9 10
M  V30 10 1 10 11
M  V30 11 2 11 12
M  V30 12 1 12 13
M  V30 13 2 13 14
M  V30 14 1 14 15
M  V30 15 2 15 16
M  V30 16 1 16 17
M  V30 17 2 17 18
M  V30 18 1 18 19
M  V30 19 1 19 20
M  V30 20 1 20 21
M  V30 21 1 21 22
M  V30 22 1 22 23
M  V30 23 1 23 24
M  V30 24 1 19 25
M  V30 25 2 25 26
M  V30 26 1 7 27
M  V30 27 2 27 28
M  V30 28 1 2 29
M  V30 29 1 29 30
M  V30 30 1 30 31
M  V30 31 1 31 32
M  V30 32 1 32 33
M  V30 33 1 33 34
M  V30 34 1 28 4
M  V30 35 1 34 29
M  V30 36 1 26 9
M  V30 37 1 25 12
M  V30 38 1 18 13
M  V30 39 1 24 20
M  V30 40 1 3 35
M  V30 41 1 3 36
M  V30 42 1 5 37
M  V30 43 1 6 38
M  V30 44 1 8 39
M  V30 45 1 11 40
M  V30 46 1 14 41
M  V30 47 1 15 42
M  V30 48 1 17 43
M  V30 49 1 20 44
M  V30 50 1 21 45
M  V30 51 1 21 46
M  V30 52 1 22 47
M  V30 53 1 22 48
M  V30 54 1 23 49
M  V30 55 1 23 50
M  V30 56 1 24 51
M  V30 57 1 24 52
M  V30 58 1 28 53
M  V30 59 1 30 54
M  V30 60 1 30 55
M  V30 61 1 31 56
M  V30 62 1 31 57
M  V30 63 1 32 58
M  V30 64 1 33 59
M  V30 65 1 33 60
M  V30 66 1 34 61
M  V30 67 1 34 62
M  V30 END BOND
M  V30 END CTAB
M  END
>  <Dataset>  (953) 
ChEMBL_Kinases

>  <Ligand_Instance>  (953) 
nan

>  <PDB_ID>  (953) 
nan

>  <Standardized_SMILES>  (953) 
O=C(Cc1ccc(Nc2ncc3c4ccncc4n(C4CCCC4)c3n2)nc1)N1CCNCC1

>  <Name>  (953) 
nan

>  <Pocket>  (953) 
nan

>  <ATP_Site>  (953) 
nan

>  <Peripheral>  (953) 
nan

>  <Num_H_Atoms_ProtBoundConf>  (953) 
nan

>  <Num_Resolved_Atoms>  (953) 
nan

>  <Num_Not_Resolved_Atoms>  (953) 
nan

$$$$
CHEMBL3942409
     RDKit          3D

  0  0  0  0  0  0  0  0  0  0999 V3000
M  V30 BEGIN CTAB
M  V30 COUNTS 50 53 0 0 0
M  V30 BEGIN ATOM
M  V30 1 N 3.026414 -3.826594 0.453694 0
M  V30 2 C 4.328910 -3.295009 0.385219 0
M  V30 3 C 5.424752 -3.626192 1.147237 0
M  V30 4 C 6.686428 -3.126195 0.981702 0
M  V30 5 C 6.878823 -2.195343 -0.054782 0
M  V30 6 C 5.790092 -1.827844 -0.854800 0
M  V30 7 C 4.529054 -2.390965 -0.612594 0
M  V30 8 O 3.653463 -1.813509 -1.574104 0
M  V30 9 C 2.603886 -0.999083 -1.101321 0
M  V30 10 C 3.077241 0.310908 -1.160003 0
M  V30 11 C 2.317064 1.393994 -0.768806 0
M  V30 12 C 1.050037 1.208735 -0.300375 0
M  V30 13 C 0.108801 2.208533 0.184761 0
M  V30 14 C 0.382967 3.562192 0.264031 0
M  V30 15 C -0.410302 4.569303 0.720968 0
M  V30 16 N -1.615845 4.164112 1.145049 0
M  V30 17 C -1.997355 2.854427 1.113279 0
M  V30 18 N -3.260886 2.435188 1.607816 0
M  V30 19 C -3.809365 1.151497 1.520121 0
M  V30 20 C -3.425392 0.173955 0.644980 0
M  V30 21 C -3.966632 -1.113081 0.582085 0
M  V30 22 C -4.984062 -1.411430 1.495351 0
M  V30 23 S -5.585993 -3.065118 1.300167 0
M  V30 24 N -4.533723 -4.157043 2.109720 0
M  V30 25 O -6.927652 -3.163285 2.013232 0
M  V30 26 O -5.742264 -3.379113 -0.148157 0
M  V30 27 C -5.410246 -0.470359 2.395788 0
M  V30 28 C -4.824212 0.778635 2.393892 0
M  V30 29 N -1.133273 1.983605 0.646593 0
M  V30 30 C 0.516357 -0.101796 -0.218992 0
M  V30 31 C 1.324605 -1.158684 -0.627994 0
M  V30 32 H 2.583388 -4.675309 -0.002220 0
M  V30 33 H 2.360997 -3.252683 1.101145 0
M  V30 34 H 5.228516 -4.356944 1.947211 0
M  V30 35 H 7.481310 -3.448755 1.635605 0
M  V30 36 H 7.905274 -1.868796 -0.108548 0
M  V30 37 H 6.110051 -1.100096 -1.602736 0
M  V30 38 H 4.045098 0.695331 -1.498686 0
M  V30 39 H 2.564001 2.428226 -0.766088 0
M  V30 40 H 1.366792 3.909741 -0.077344 0
M  V30 41 H -0.109828 5.606355 0.746110 0
M  V30 42 H -3.830129 3.191545 2.091955 0
M  V30 43 H -2.653929 0.381829 -0.068218 0
M  V30 44 H -3.580357 -1.823139 -0.163194 0
M  V30 45 H -4.240656 -3.736874 3.039375 0
M  V30 46 H -3.637245 -4.250620 1.545706 0
M  V30 47 H -6.202031 -0.793732 3.054378 0
M  V30 48 H -5.234362 1.463138 3.154100 0
M  V30 49 H -0.431154 -0.480021 0.109379 0
M  V30 50 H 1.104095 -2.205077 -0.652424 0
M  V30 END ATOM
M  V30 BEGIN BOND
M  V30 1 1 1 2
M  V30 2 2 2 3
M  V30 3 1 3 4
M  V30 4 2 4 5
M  V30 5 1 5 6
M  V30 6 2 6 7
M  V30 7 1 7 8
M  V30 8 1 8 9
M  V30 9 2 9 10
M  V30 10 1 10 11
M  V30 11 2 11 12
M  V30 12 1 12 13
M  V30 13 2 13 14
M  V30 14 1 14 15
M  V30 15 2 15 16
M  V30 16 1 16 17
M  V30 17 1 17 18
M  V30 18 1 18 19
M  V30 19 2 19 20
M  V30 20 1 20 21
M  V30 21 2 21 22
M  V30 22 1 22 23
M  V30 23 1 23 24
M  V30 24 2 23 25
M  V30 25 2 23 26
M  V30 26 1 22 27
M  V30 27 2 27 28
M  V30 28 2 17 29
M  V30 29 1 12 30
M  V30 30 2 30 31
M  V30 31 1 7 2
M  V30 32 1 31 9
M  V30 33 1 29 13
M  V30 34 1 28 19
M  V30 35 1 1 32
M  V30 36 1 1 33
M  V30 37 1 3 34
M  V30 38 1 4 35
M  V30 39 1 5 36
M  V30 40 1 6 37
M  V30 41 1 10 38
M  V30 42 1 11 39
M  V30 43 1 14 40
M  V30 44 1 15 41
M  V30 45 1 18 42
M  V30 46 1 20 43
M  V30 47 1 21 44
M  V30 48 1 24 45
M  V30 49 1 24 46
M  V30 50 1 27 47
M  V30 51 1 28 48
M  V30 52 1 30 49
M  V30 53 1 31 50
M  V30 END BOND
M  V30 END CTAB
M  END
>  <Dataset>  (954) 
ChEMBL_Kinases

>  <Ligand_Instance>  (954) 
nan

>  <PDB_ID>  (954) 
nan

>  <Standardized_SMILES>  (954) 
Nc1ccccc1Oc1ccc(-c2ccnc(Nc3ccc(S(N)(=O)=O)cc3)n2)cc1

>  <Name>  (954) 
nan

>  <Pocket>  (954) 
nan

>  <ATP_Site>  (954) 
nan

>  <Peripheral>  (954) 
nan

>  <Num_H_Atoms_ProtBoundConf>  (954) 
nan

>  <Num_Resolved_Atoms>  (954) 
nan

>  <Num_Not_Resolved_Atoms>  (954) 
nan

$$$$
CHEMBL3942400
     RDKit          3D

  0  0  0  0  0  0  0  0  0  0999 V3000
M  V30 BEGIN CTAB
M  V30 COUNTS 41 44 0 0 0
M  V30 BEGIN ATOM
M  V30 1 C -0.034771 -4.948021 2.840560 0
M  V30 2 C 1.317904 -5.112270 2.170020 0
M  V30 3 C 2.408990 -4.402705 2.916570 0
M  V30 4 C 1.162981 -4.543989 0.802765 0
M  V30 5 N 1.197136 -4.966822 -0.473173 0
M  V30 6 N 0.970659 -3.908599 -1.268996 0
M  V30 7 C 0.801445 -2.857390 -0.481210 0
M  V30 8 C 0.528424 -1.494833 -0.980042 0
M  V30 9 C 0.350769 -0.398324 -0.198498 0
M  V30 10 C 0.097777 0.840170 -0.799640 0
M  V30 11 C -0.084559 1.982151 0.097915 0
M  V30 12 C 0.310533 3.233843 -0.353581 0
M  V30 13 C 0.177972 4.386331 0.427374 0
M  V30 14 C -0.367407 4.249023 1.687342 0
M  V30 15 N -0.606765 5.175042 2.635109 0
M  V30 16 C -1.150860 4.568403 3.704076 0
M  V30 17 C -1.261364 3.204709 3.424589 0
M  V30 18 C -0.762720 2.989094 2.136111 0
M  V30 19 C -0.629401 1.854741 1.360533 0
M  V30 20 C 0.023124 0.980430 -2.171692 0
M  V30 21 N 0.203783 -0.130165 -2.942832 0
M  V30 22 C 0.449865 -1.334217 -2.354795 0
M  V30 23 N 0.615774 -2.398408 -3.297149 0
M  V30 24 O 0.919593 -3.253188 0.762704 0
M  V30 25 H 0.009467 -5.048557 3.936603 0
M  V30 26 H -0.494907 -3.980527 2.563090 0
M  V30 27 H -0.681930 -5.771895 2.427120 0
M  V30 28 H 1.521176 -6.199156 2.149196 0
M  V30 29 H 2.932712 -3.653646 2.253776 0
M  V30 30 H 1.975017 -3.846413 3.792244 0
M  V30 31 H 3.220821 -5.079450 3.281291 0
M  V30 32 H 0.414159 -0.535998 0.871196 0
M  V30 33 H 0.744635 3.422120 -1.324529 0
M  V30 34 H 0.481835 5.352728 0.081779 0
M  V30 35 H -0.446077 6.202851 2.658948 0
M  V30 36 H -1.509897 4.867537 4.689585 0
M  V30 37 H -1.648497 2.365548 4.021941 0
M  V30 38 H -0.938908 0.899320 1.724192 0
M  V30 39 H -0.173062 1.942162 -2.629138 0
M  V30 40 H 1.290355 -2.395314 -4.087370 0
M  V30 41 H 0.217058 -3.352368 -3.498901 0
M  V30 END ATOM
M  V30 BEGIN BOND
M  V30 1 1 1 2
M  V30 2 1 2 3
M  V30 3 1 2 4
M  V30 4 2 4 5
M  V30 5 1 5 6
M  V30 6 2 6 7
M  V30 7 1 7 8
M  V30 8 2 8 9
M  V30 9 1 9 10
M  V30 10 1 10 11
M  V30 11 2 11 12
M  V30 12 1 12 13
M  V30 13 2 13 14
M  V30 14 1 14 15
M  V30 15 1 15 16
M  V30 16 2 16 17
M  V30 17 1 17 18
M  V30 18 2 18 19
M  V30 19 2 10 20
M  V30 20 1 20 21
M  V30 21 2 21 22
M  V30 22 1 22 23
M  V30 23 1 7 24
M  V30 24 1 24 4
M  V30 25 1 22 8
M  V30 26 1 19 11
M  V30 27 1 18 14
M  V30 28 1 1 25
M  V30 29 1 1 26
M  V30 30 1 1 27
M  V30 31 1 2 28
M  V30 32 1 3 29
M  V30 33 1 3 30
M  V30 34 1 3 31
M  V30 35 1 9 32
M  V30 36 1 12 33
M  V30 37 1 13 34
M  V30 38 1 15 35
M  V30 39 1 16 36
M  V30 40 1 17 37
M  V30 41 1 19 38
M  V30 42 1 20 39
M  V30 43 1 23 40
M  V30 44 1 23 41
M  V30 END BOND
M  V30 END CTAB
M  END
>  <Dataset>  (955) 
ChEMBL_Kinases

>  <Ligand_Instance>  (955) 
nan

>  <PDB_ID>  (955) 
nan

>  <Standardized_SMILES>  (955) 
CC(C)c1nnc(-c2cc(-c3ccc4[nH]ccc4c3)cnc2N)o1

>  <Name>  (955) 
nan

>  <Pocket>  (955) 
nan

>  <ATP_Site>  (955) 
nan

>  <Peripheral>  (955) 
nan

>  <Num_H_Atoms_ProtBoundConf>  (955) 
nan

>  <Num_Resolved_Atoms>  (955) 
nan

>  <Num_Not_Resolved_Atoms>  (955) 
nan

$$$$
CHEMBL3702148
     RDKit          3D

  0  0  0  0  0  0  0  0  0  0999 V3000
M  V30 BEGIN CTAB
M  V30 COUNTS 63 69 0 0 0
M  V30 BEGIN ATOM
M  V30 1 C 6.061500 -6.170729 -0.182623 0
M  V30 2 C 5.807095 -5.209957 0.793489 0
M  V30 3 C 4.715333 -4.383256 0.584421 0
M  V30 4 C 4.140047 -3.340983 1.282746 0
M  V30 5 C 4.489861 -2.761389 2.474751 0
M  V30 6 N 3.746796 -1.746771 2.933594 0
M  V30 7 C 2.662292 -1.238600 2.307706 0
M  V30 8 N 1.969310 -0.156453 2.913265 0
M  V30 9 C 0.841353 0.512081 2.445431 0
M  V30 10 C 0.142247 0.268547 1.284888 0
M  V30 11 C -0.973347 0.942435 0.835665 0
M  V30 12 C -1.441043 1.970087 1.630507 0
M  V30 13 N -2.574692 2.773181 1.328411 0
M  V30 14 C -2.995512 3.848395 2.217244 0
M  V30 15 C -4.436261 3.546576 2.576119 0
M  V30 16 N -4.914119 2.305598 2.041150 0
M  V30 17 C -4.746101 2.170202 0.626300 0
M  V30 18 C -5.920943 2.787448 -0.113714 0
M  V30 19 C -6.639195 1.453029 0.102071 0
M  V30 20 C -5.239541 0.836355 0.127243 0
M  V30 21 C -3.389544 2.598784 0.143026 0
M  V30 22 N -0.764446 2.209117 2.757835 0
M  V30 23 N 0.297600 1.532676 3.139739 0
M  V30 24 N 2.333164 -1.815716 1.143998 0
M  V30 25 C 3.036223 -2.833708 0.632762 0
M  V30 26 N 2.924281 -3.583458 -0.501322 0
M  V30 27 C 1.912491 -3.447166 -1.536183 0
M  V30 28 C 2.223016 -2.362290 -2.505420 0
M  V30 29 C 1.182386 -1.318966 -2.256711 0
M  V30 30 C -0.025045 -2.124131 -1.822657 0
M  V30 31 C 0.536523 -3.264248 -0.998198 0
M  V30 32 C 3.927281 -4.512820 -0.535382 0
M  V30 33 C 4.207963 -5.482240 -1.491611 0
M  V30 34 N 5.280464 -6.281635 -1.269343 0
M  V30 35 H 6.912904 -6.844378 -0.058494 0
M  V30 36 H 6.413869 -5.101786 1.666488 0
M  V30 37 H 5.343503 -3.127219 3.012485 0
M  V30 38 H 2.350655 0.187044 3.829252 0
M  V30 39 H 0.475279 -0.526995 0.633932 0
M  V30 40 H -1.481492 0.720031 -0.067393 0
M  V30 41 H -2.338335 3.858955 3.113736 0
M  V30 42 H -2.932960 4.837824 1.678790 0
M  V30 43 H -4.473433 3.434187 3.694276 0
M  V30 44 H -5.117913 4.375322 2.302208 0
M  V30 45 H -4.701546 1.465356 2.592666 0
M  V30 46 H -5.709789 2.902313 -1.195636 0
M  V30 47 H -6.387184 3.641232 0.401272 0
M  V30 48 H -7.070294 1.464143 1.115354 0
M  V30 49 H -7.281997 1.130469 -0.721355 0
M  V30 50 H -5.158162 -0.011041 0.823321 0
M  V30 51 H -4.954918 0.600713 -0.930888 0
M  V30 52 H -3.528060 3.634793 -0.285523 0
M  V30 53 H -2.970321 1.987356 -0.640065 0
M  V30 54 H 1.884637 -4.421305 -2.115972 0
M  V30 55 H 2.079351 -2.734686 -3.560634 0
M  V30 56 H 3.261719 -1.975387 -2.383292 0
M  V30 57 H 1.548949 -0.616211 -1.509843 0
M  V30 58 H 0.952691 -0.744453 -3.191685 0
M  V30 59 H -0.678670 -1.483174 -1.226682 0
M  V30 60 H -0.495387 -2.531763 -2.729000 0
M  V30 61 H 0.531003 -3.012686 0.101957 0
M  V30 62 H -0.106318 -4.170429 -1.070485 0
M  V30 63 H 3.599319 -5.590788 -2.367697 0
M  V30 END ATOM
M  V30 BEGIN BOND
M  V30 1 2 1 2
M  V30 2 1 2 3
M  V30 3 1 3 4
M  V30 4 2 4 5
M  V30 5 1 5 6
M  V30 6 2 6 7
M  V30 7 1 7 8
M  V30 8 1 8 9
M  V30 9 2 9 10
M  V30 10 1 10 11
M  V30 11 2 11 12
M  V30 12 1 12 13
M  V30 13 1 13 14
M  V30 14 1 14 15
M  V30 15 1 15 16
M  V30 16 1 16 17
M  V30 17 1 17 18
M  V30 18 1 18 19
M  V30 19 1 19 20
M  V30 20 1 17 21
M  V30 21 1 12 22
M  V30 22 2 22 23
M  V30 23 1 7 24
M  V30 24 2 24 25
M  V30 25 1 25 26
M  V30 26 1 26 27
M  V30 27 1 27 28
M  V30 28 1 28 29
M  V30 29 1 29 30
M  V30 30 1 30 31
M  V30 31 1 26 32
M  V30 32 1 32 33
M  V30 33 2 33 34
M  V30 34 1 34 1
M  V30 35 2 32 3
M  V30 36 1 25 4
M  V30 37 1 31 27
M  V30 38 1 23 9
M  V30 39 1 21 13
M  V30 40 1 20 17
M  V30 41 1 1 35
M  V30 42 1 2 36
M  V30 43 1 5 37
M  V30 44 1 8 38
M  V30 45 1 10 39
M  V30 46 1 11 40
M  V30 47 1 14 41
M  V30 48 1 14 42
M  V30 49 1 15 43
M  V30 50 1 15 44
M  V30 51 1 16 45
M  V30 52 1 18 46
M  V30 53 1 18 47
M  V30 54 1 19 48
M  V30 55 1 19 49
M  V30 56 1 20 50
M  V30 57 1 20 51
M  V30 58 1 21 52
M  V30 59 1 21 53
M  V30 60 1 27 54
M  V30 61 1 28 55
M  V30 62 1 28 56
M  V30 63 1 29 57
M  V30 64 1 29 58
M  V30 65 1 30 59
M  V30 66 1 30 60
M  V30 67 1 31 61
M  V30 68 1 31 62
M  V30 69 1 33 63
M  V30 END BOND
M  V30 END CTAB
M  END
>  <Dataset>  (956) 
ChEMBL_Kinases

>  <Ligand_Instance>  (956) 
nan

>  <PDB_ID>  (956) 
nan

>  <Standardized_SMILES>  (956) 
c1cc2c3cnc(Nc4ccc(N5CCNC6(CCC6)C5)nn4)nc3n(C3CCCC3)c2cn1

>  <Name>  (956) 
nan

>  <Pocket>  (956) 
nan

>  <ATP_Site>  (956) 
nan

>  <Peripheral>  (956) 
nan

>  <Num_H_Atoms_ProtBoundConf>  (956) 
nan

>  <Num_Resolved_Atoms>  (956) 
nan

>  <Num_Not_Resolved_Atoms>  (956) 
nan

$$$$
CHEMBL3942275
     RDKit          3D

  0  0  0  0  0  0  0  0  0  0999 V3000
M  V30 BEGIN CTAB
M  V30 COUNTS 40 43 0 0 0
M  V30 BEGIN ATOM
M  V30 1 N 1.274136 -7.867417 -2.601492 0
M  V30 2 C 1.242002 -6.474586 -2.881681 0
M  V30 3 O 1.608839 -6.206670 -4.054773 0
M  V30 4 C 0.807894 -5.567856 -1.824361 0
M  V30 5 C 0.432410 -6.019094 -0.575723 0
M  V30 6 C 0.041338 -5.067795 0.340414 0
M  V30 7 C 0.032701 -3.718375 0.001422 0
M  V30 8 N -0.311813 -2.623929 0.739149 0
M  V30 9 C -0.159537 -1.520876 -0.016026 0
M  V30 10 C -0.448042 -0.182250 0.487572 0
M  V30 11 C -0.894557 -0.028535 1.785445 0
M  V30 12 C -1.184893 1.210385 2.321551 0
M  V30 13 C -1.024367 2.335160 1.536050 0
M  V30 14 O -1.261854 3.669004 1.887958 0
M  V30 15 C -0.264409 4.460128 2.443653 0
M  V30 16 C 0.660690 5.268311 1.817632 0
M  V30 17 C 1.575464 5.980218 2.536450 0
M  V30 18 C 1.592160 5.904151 3.915081 0
M  V30 19 F 2.511823 6.620382 4.629740 0
M  V30 20 C 0.676954 5.100686 4.594605 0
M  V30 21 C -0.250098 4.381079 3.837676 0
M  V30 22 C -0.574124 2.232354 0.213235 0
M  V30 23 C -0.293533 0.953707 -0.282902 0
M  V30 24 N 0.272186 -1.906855 -1.207002 0
M  V30 25 C 0.403907 -3.253160 -1.238156 0
M  V30 26 C 0.794649 -4.211433 -2.151421 0
M  V30 27 H 1.892728 -8.697426 -2.745190 0
M  V30 28 H 0.703343 -8.631822 -2.142776 0
M  V30 29 H 0.474642 -7.074609 -0.417016 0
M  V30 30 H -0.254206 -5.429038 1.324867 0
M  V30 31 H -0.633869 -2.697588 1.725372 0
M  V30 32 H -1.050332 -0.846052 2.473635 0
M  V30 33 H -1.534190 1.416245 3.313709 0
M  V30 34 H 0.555338 5.250683 0.748062 0
M  V30 35 H 2.285503 6.605699 1.976679 0
M  V30 36 H 0.697347 5.047421 5.670663 0
M  V30 37 H -0.927254 3.780496 4.433899 0
M  V30 38 H -0.423876 3.063122 -0.461972 0
M  V30 39 H 0.064591 0.766223 -1.306505 0
M  V30 40 H 1.093790 -3.868534 -3.141695 0
M  V30 END ATOM
M  V30 BEGIN BOND
M  V30 1 1 1 2
M  V30 2 2 2 3
M  V30 3 1 2 4
M  V30 4 2 4 5
M  V30 5 1 5 6
M  V30 6 2 6 7
M  V30 7 1 7 8
M  V30 8 1 8 9
M  V30 9 1 9 10
M  V30 10 2 10 11
M  V30 11 1 11 12
M  V30 12 2 12 13
M  V30 13 1 13 14
M  V30 14 1 14 15
M  V30 15 2 15 16
M  V30 16 1 16 17
M  V30 17 2 17 18
M  V30 18 1 18 19
M  V30 19 1 18 20
M  V30 20 2 20 21
M  V30 21 1 13 22
M  V30 22 2 22 23
M  V30 23 2 9 24
M  V30 24 1 24 25
M  V30 25 2 25 26
M  V30 26 1 26 4
M  V30 27 1 25 7
M  V30 28 1 23 10
M  V30 29 1 21 15
M  V30 30 1 1 27
M  V30 31 1 1 28
M  V30 32 1 5 29
M  V30 33 1 6 30
M  V30 34 1 8 31
M  V30 35 1 11 32
M  V30 36 1 12 33
M  V30 37 1 16 34
M  V30 38 1 17 35
M  V30 39 1 20 36
M  V30 40 1 21 37
M  V30 41 1 22 38
M  V30 42 1 23 39
M  V30 43 1 26 40
M  V30 END BOND
M  V30 END CTAB
M  END
>  <Dataset>  (957) 
ChEMBL_Kinases

>  <Ligand_Instance>  (957) 
nan

>  <PDB_ID>  (957) 
nan

>  <Standardized_SMILES>  (957) 
NC(=O)c1ccc2[nH]c(-c3ccc(Oc4ccc(F)cc4)cc3)nc2c1

>  <Name>  (957) 
nan

>  <Pocket>  (957) 
nan

>  <ATP_Site>  (957) 
nan

>  <Peripheral>  (957) 
nan

>  <Num_H_Atoms_ProtBoundConf>  (957) 
nan

>  <Num_Resolved_Atoms>  (957) 
nan

>  <Num_Not_Resolved_Atoms>  (957) 
nan

$$$$
CHEMBL3942212
     RDKit          3D

  0  0  0  0  0  0  0  0  0  0999 V3000
M  V30 BEGIN CTAB
M  V30 COUNTS 63 66 0 0 0
M  V30 BEGIN ATOM
M  V30 1 C -1.456387 -1.523494 5.304361 0
M  V30 2 C -0.603049 -1.095075 4.165041 0
M  V30 3 C 0.574050 -0.393073 4.449872 0
M  V30 4 C 1.443965 0.054317 3.473337 0
M  V30 5 C 1.101004 -0.224509 2.157547 0
M  V30 6 N 1.996352 0.237117 1.162777 0
M  V30 7 C 3.130074 -0.345783 0.536821 0
M  V30 8 O 3.566139 -1.494870 0.796599 0
M  V30 9 C 3.850278 0.422643 -0.476974 0
M  V30 10 C 4.942181 -0.173127 -1.072952 0
M  V30 11 C 5.697187 0.479509 -2.054361 0
M  V30 12 N 5.328966 1.740886 -2.420229 0
M  V30 13 C 4.266794 2.336334 -1.849060 0
M  V30 14 C 3.858666 3.712967 -2.243440 0
M  V30 15 C 4.796911 4.236679 -3.304060 0
M  V30 16 C 2.423303 3.693000 -2.720433 0
M  V30 17 C 3.963769 4.537638 -1.039351 0
M  V30 18 N 4.062504 5.205436 -0.079566 0
M  V30 19 C 3.538837 1.697891 -0.898090 0
M  V30 20 C -0.053214 -0.912204 1.888694 0
M  V30 21 C -0.928446 -1.363154 2.855433 0
M  V30 22 C -2.152463 -2.093368 2.547863 0
M  V30 23 C -2.549761 -2.401184 1.264586 0
M  V30 24 C -3.730154 -3.102395 1.012605 0
M  V30 25 N -4.067401 -3.379995 -0.356662 0
M  V30 26 C -5.222301 -3.015815 -1.191064 0
M  V30 27 C -4.652339 -2.210012 -2.346377 0
M  V30 28 O -3.820235 -3.065794 -3.074008 0
M  V30 29 C -2.662981 -3.361169 -2.337314 0
M  V30 30 C -3.117242 -4.177694 -1.130729 0
M  V30 31 C -4.521076 -3.498650 2.072671 0
M  V30 32 O -5.573975 -4.124391 1.845869 0
M  V30 33 N -4.099050 -3.178674 3.317831 0
M  V30 34 C -4.911806 -3.582204 4.454471 0
M  V30 35 N -2.975616 -2.513427 3.522329 0
M  V30 36 H -2.454510 -1.045690 5.314504 0
M  V30 37 H -1.499644 -2.620880 5.376413 0
M  V30 38 H -0.998189 -1.198475 6.284630 0
M  V30 39 H 0.827945 -0.183120 5.482696 0
M  V30 40 H 2.331948 0.589583 3.779164 0
M  V30 41 H 1.617666 1.188041 0.960995 0
M  V30 42 H 5.285200 -1.167119 -0.828929 0
M  V30 43 H 6.549316 -0.006922 -2.508053 0
M  V30 44 H 5.829950 4.075320 -2.879795 0
M  V30 45 H 4.658389 3.706739 -4.254085 0
M  V30 46 H 4.625225 5.322136 -3.457294 0
M  V30 47 H 1.810164 3.391668 -1.839930 0
M  V30 48 H 2.094688 4.657404 -3.101007 0
M  V30 49 H 2.307716 2.895555 -3.466987 0
M  V30 50 H 2.700434 2.170244 -0.448802 0
M  V30 51 H -0.250731 -1.090278 0.849004 0
M  V30 52 H -1.953366 -2.105061 0.423925 0
M  V30 53 H -5.937105 -2.366810 -0.649707 0
M  V30 54 H -5.668306 -3.935678 -1.597471 0
M  V30 55 H -5.459983 -1.848195 -2.991593 0
M  V30 56 H -4.082580 -1.331763 -1.947371 0
M  V30 57 H -2.060765 -4.024073 -2.995590 0
M  V30 58 H -2.117001 -2.456960 -2.040935 0
M  V30 59 H -3.687352 -5.038850 -1.528296 0
M  V30 60 H -2.257913 -4.508126 -0.517229 0
M  V30 61 H -4.529510 -3.108215 5.382869 0
M  V30 62 H -4.806269 -4.688771 4.650341 0
M  V30 63 H -5.974364 -3.328624 4.334789 0
M  V30 END ATOM
M  V30 BEGIN BOND
M  V30 1 1 1 2
M  V30 2 2 2 3
M  V30 3 1 3 4
M  V30 4 2 4 5
M  V30 5 1 5 6
M  V30 6 1 6 7
M  V30 7 2 7 8
M  V30 8 1 7 9
M  V30 9 2 9 10
M  V30 10 1 10 11
M  V30 11 2 11 12
M  V30 12 1 12 13
M  V30 13 1 13 14
M  V30 14 1 14 15
M  V30 15 1 14 16
M  V30 16 1 14 17
M  V30 17 3 17 18
M  V30 18 2 13 19
M  V30 19 1 5 20
M  V30 20 2 20 21
M  V30 21 1 21 22
M  V30 22 1 22 23
M  V30 23 2 23 24
M  V30 24 1 24 25
M  V30 25 1 25 26
M  V30 26 1 26 27
M  V30 27 1 27 28
M  V30 28 1 28 29
M  V30 29 1 29 30
M  V30 30 1 24 31
M  V30 31 2 31 32
M  V30 32 1 31 33
M  V30 33 1 33 34
M  V30 34 1 33 35
M  V30 35 1 21 2
M  V30 36 2 35 22
M  V30 37 1 19 9
M  V30 38 1 30 25
M  V30 39 1 1 36
M  V30 40 1 1 37
M  V30 41 1 1 38
M  V30 42 1 3 39
M  V30 43 1 4 40
M  V30 44 1 6 41
M  V30 45 1 10 42
M  V30 46 1 11 43
M  V30 47 1 15 44
M  V30 48 1 15 45
M  V30 49 1 15 46
M  V30 50 1 16 47
M  V30 51 1 16 48
M  V30 52 1 16 49
M  V30 53 1 19 50
M  V30 54 1 20 51
M  V30 55 1 23 52
M  V30 56 1 26 53
M  V30 57 1 26 54
M  V30 58 1 27 55
M  V30 59 1 27 56
M  V30 60 1 29 57
M  V30 61 1 29 58
M  V30 62 1 30 59
M  V30 63 1 30 60
M  V30 64 1 34 61
M  V30 65 1 34 62
M  V30 66 1 34 63
M  V30 END BOND
M  V30 END CTAB
M  END
>  <Dataset>  (958) 
ChEMBL_Kinases

>  <Ligand_Instance>  (958) 
nan

>  <PDB_ID>  (958) 
nan

>  <Standardized_SMILES>  (958) 
Cc1ccc(NC(=O)c2ccnc(C(C)(C)C#N)c2)cc1-c1cc(N2CCOCC2)c(=O)n(C)n1

>  <Name>  (958) 
nan

>  <Pocket>  (958) 
nan

>  <ATP_Site>  (958) 
nan

>  <Peripheral>  (958) 
nan

>  <Num_H_Atoms_ProtBoundConf>  (958) 
nan

>  <Num_Resolved_Atoms>  (958) 
nan

>  <Num_Not_Resolved_Atoms>  (958) 
nan

$$$$
CHEMBL3702149
     RDKit          3D

  0  0  0  0  0  0  0  0  0  0999 V3000
M  V30 BEGIN CTAB
M  V30 COUNTS 66 72 0 0 0
M  V30 BEGIN ATOM
M  V30 1 C 1.705218 -6.733529 3.841442 0
M  V30 2 C 2.553720 -5.637132 3.862855 0
M  V30 3 C 1.966978 -4.444953 3.487227 0
M  V30 4 C 2.552350 -3.184683 3.407248 0
M  V30 5 C 3.801728 -2.654546 3.645836 0
M  V30 6 N 4.055951 -1.320555 3.471426 0
M  V30 7 C 3.061051 -0.515579 3.058193 0
M  V30 8 N 3.084830 0.883528 2.845703 0
M  V30 9 C 2.366147 1.443599 1.743603 0
M  V30 10 C 2.238460 2.783377 1.440067 0
M  V30 11 C 1.553358 3.177613 0.309736 0
M  V30 12 C 0.976610 2.269851 -0.551573 0
M  V30 13 N 0.243179 2.536400 -1.733497 0
M  V30 14 C -0.504531 3.697547 -2.169468 0
M  V30 15 C -1.892828 3.304263 -2.618875 0
M  V30 16 N -2.164389 1.933445 -2.332141 0
M  V30 17 C -1.244011 1.057972 -3.000031 0
M  V30 18 C -1.301109 -0.367911 -2.531157 0
M  V30 19 C -1.670914 -1.234372 -3.708627 0
M  V30 20 C -2.397424 -0.296409 -4.615659 0
M  V30 21 C -1.602489 0.996707 -4.457356 0
M  V30 22 C 0.188614 1.526559 -2.774142 0
M  V30 23 N 1.126723 0.969025 -0.212629 0
M  V30 24 N 1.783450 0.601138 0.871377 0
M  V30 25 N 1.853966 -1.059333 2.832771 0
M  V30 26 C 1.535635 -2.352264 2.982814 0
M  V30 27 N 0.377924 -3.020081 2.802217 0
M  V30 28 C -0.924874 -2.549110 2.388834 0
M  V30 29 C -1.889153 -2.541192 3.586593 0
M  V30 30 C -3.077420 -1.836506 2.953001 0
M  V30 31 C -2.416725 -0.742642 2.117182 0
M  V30 32 C -0.959467 -1.124179 1.980373 0
M  V30 33 C 0.650481 -4.288110 3.109902 0
M  V30 34 C -0.130971 -5.445921 3.118196 0
M  V30 35 N 0.409800 -6.628688 3.479793 0
M  V30 36 H 2.113785 -7.701875 4.128131 0
M  V30 37 H 3.594532 -5.710592 4.150603 0
M  V30 38 H 4.597452 -3.302675 3.976992 0
M  V30 39 H 3.640127 1.447698 3.520874 0
M  V30 40 H 2.691304 3.465535 2.116172 0
M  V30 41 H 1.438890 4.215950 0.047608 0
M  V30 42 H -0.627749 4.375995 -1.285757 0
M  V30 43 H 0.043337 4.274159 -2.961384 0
M  V30 44 H -1.963059 3.558220 -3.696690 0
M  V30 45 H -2.655479 3.942633 -2.120175 0
M  V30 46 H -2.102117 1.775429 -1.303020 0
M  V30 47 H -0.319571 -0.731786 -2.120021 0
M  V30 48 H -2.059788 -0.467047 -1.733504 0
M  V30 49 H -2.391454 -2.039681 -3.419290 0
M  V30 50 H -0.793743 -1.639982 -4.259563 0
M  V30 51 H -3.422173 -0.100664 -4.221632 0
M  V30 52 H -2.452436 -0.620221 -5.675277 0
M  V30 53 H -2.280658 1.815177 -4.776988 0
M  V30 54 H -0.718707 1.010145 -5.124215 0
M  V30 55 H 0.885128 0.683781 -2.572873 0
M  V30 56 H 0.520027 2.003115 -3.716594 0
M  V30 57 H -1.389261 -3.224156 1.637190 0
M  V30 58 H -1.482216 -1.853640 4.332986 0
M  V30 59 H -2.128771 -3.535823 3.952465 0
M  V30 60 H -3.772056 -1.442530 3.708870 0
M  V30 61 H -3.579651 -2.580183 2.303499 0
M  V30 62 H -2.557620 0.199693 2.725019 0
M  V30 63 H -2.952089 -0.672810 1.153174 0
M  V30 64 H -0.623135 -0.947007 0.936608 0
M  V30 65 H -0.426434 -0.527755 2.741270 0
M  V30 66 H -1.179500 -5.446728 2.841524 0
M  V30 END ATOM
M  V30 BEGIN BOND
M  V30 1 2 1 2
M  V30 2 1 2 3
M  V30 3 1 3 4
M  V30 4 2 4 5
M  V30 5 1 5 6
M  V30 6 2 6 7
M  V30 7 1 7 8
M  V30 8 1 8 9
M  V30 9 2 9 10
M  V30 10 1 10 11
M  V30 11 2 11 12
M  V30 12 1 12 13
M  V30 13 1 13 14
M  V30 14 1 14 15
M  V30 15 1 15 16
M  V30 16 1 16 17
M  V30 17 1 17 18
M  V30 18 1 18 19
M  V30 19 1 19 20
M  V30 20 1 20 21
M  V30 21 1 17 22
M  V30 22 1 12 23
M  V30 23 2 23 24
M  V30 24 1 7 25
M  V30 25 2 25 26
M  V30 26 1 26 27
M  V30 27 1 27 28
M  V30 28 1 28 29
M  V30 29 1 29 30
M  V30 30 1 30 31
M  V30 31 1 31 32
M  V30 32 1 27 33
M  V30 33 1 33 34
M  V30 34 2 34 35
M  V30 35 1 35 1
M  V30 36 2 33 3
M  V30 37 1 26 4
M  V30 38 1 32 28
M  V30 39 1 24 9
M  V30 40 1 22 13
M  V30 41 1 21 17
M  V30 42 1 1 36
M  V30 43 1 2 37
M  V30 44 1 5 38
M  V30 45 1 8 39
M  V30 46 1 10 40
M  V30 47 1 11 41
M  V30 48 1 14 42
M  V30 49 1 14 43
M  V30 50 1 15 44
M  V30 51 1 15 45
M  V30 52 1 16 46
M  V30 53 1 18 47
M  V30 54 1 18 48
M  V30 55 1 19 49
M  V30 56 1 19 50
M  V30 57 1 20 51
M  V30 58 1 20 52
M  V30 59 1 21 53
M  V30 60 1 21 54
M  V30 61 1 22 55
M  V30 62 1 22 56
M  V30 63 1 28 57
M  V30 64 1 29 58
M  V30 65 1 29 59
M  V30 66 1 30 60
M  V30 67 1 30 61
M  V30 68 1 31 62
M  V30 69 1 31 63
M  V30 70 1 32 64
M  V30 71 1 32 65
M  V30 72 1 34 66
M  V30 END BOND
M  V30 END CTAB
M  END
>  <Dataset>  (959) 
ChEMBL_Kinases

>  <Ligand_Instance>  (959) 
nan

>  <PDB_ID>  (959) 
nan

>  <Standardized_SMILES>  (959) 
c1cc2c3cnc(Nc4ccc(N5CCNC6(CCCC6)C5)nn4)nc3n(C3CCCC3)c2cn1

>  <Name>  (959) 
nan

>  <Pocket>  (959) 
nan

>  <ATP_Site>  (959) 
nan

>  <Peripheral>  (959) 
nan

>  <Num_H_Atoms_ProtBoundConf>  (959) 
nan

>  <Num_Resolved_Atoms>  (959) 
nan

>  <Num_Not_Resolved_Atoms>  (959) 
nan

$$$$
CHEMBL664
     RDKit          3D

  0  0  0  0  0  0  0  0  0  0999 V3000
M  V30 BEGIN CTAB
M  V30 COUNTS 25 26 0 0 0
M  V30 BEGIN ATOM
M  V30 1 C 1.080299 1.389687 3.026973 0
M  V30 2 N 0.665607 0.198162 2.340995 0
M  V30 3 C 1.359407 -1.065885 2.376902 0
M  V30 4 O 2.582402 -1.190333 2.667799 0
M  V30 5 C 0.375983 -2.148494 2.015033 0
M  V30 6 C -0.922970 -1.380798 1.926902 0
M  V30 7 C -0.510349 -0.002027 1.480644 0
M  V30 8 C -0.067187 0.048339 0.078311 0
M  V30 9 C -0.466626 -0.853739 -0.907089 0
M  V30 10 C -0.038729 -0.788197 -2.216716 0
M  V30 11 C 0.838323 0.220704 -2.604722 0
M  V30 12 N 1.236116 1.104054 -1.662810 0
M  V30 13 C 0.799358 1.013156 -0.389066 0
M  V30 14 H 1.372963 1.132262 4.083751 0
M  V30 15 H 0.225354 2.103019 3.107519 0
M  V30 16 H 1.972788 1.811451 2.535111 0
M  V30 17 H 0.338739 -2.908231 2.806229 0
M  V30 18 H 0.701553 -2.606768 1.078344 0
M  V30 19 H -1.323526 -1.289610 2.956395 0
M  V30 20 H -1.702854 -1.851416 1.332262 0
M  V30 21 H -1.296080 0.727557 1.720231 0
M  V30 22 H -1.152125 -1.648916 -0.621218 0
M  V30 23 H -0.359197 -1.494075 -2.960436 0
M  V30 24 H 1.185300 0.296199 -3.607986 0
M  V30 25 H 1.190898 1.779266 0.266605 0
M  V30 END ATOM
M  V30 BEGIN BOND
M  V30 1 1 1 2
M  V30 2 1 2 3
M  V30 3 2 3 4
M  V30 4 1 3 5
M  V30 5 1 5 6
M  V30 6 1 6 7
M  V30 7 1 7 8
M  V30 8 2 8 9
M  V30 9 1 9 10
M  V30 10 2 10 11
M  V30 11 1 11 12
M  V30 12 2 12 13
M  V30 13 1 7 2
M  V30 14 1 13 8
M  V30 15 1 1 14
M  V30 16 1 1 15
M  V30 17 1 1 16
M  V30 18 1 5 17
M  V30 19 1 5 18
M  V30 20 1 6 19
M  V30 21 1 6 20
M  V30 22 1 7 21
M  V30 23 1 9 22
M  V30 24 1 10 23
M  V30 25 1 11 24
M  V30 26 1 13 25
M  V30 END BOND
M  V30 END CTAB
M  END
>  <Dataset>  (960) 
ChEMBL_Kinases

>  <Ligand_Instance>  (960) 
nan

>  <PDB_ID>  (960) 
nan

>  <Standardized_SMILES>  (960) 
CN1C(=O)CCC1c1cccnc1

>  <Name>  (960) 
nan

>  <Pocket>  (960) 
nan

>  <ATP_Site>  (960) 
nan

>  <Peripheral>  (960) 
nan

>  <Num_H_Atoms_ProtBoundConf>  (960) 
nan

>  <Num_Resolved_Atoms>  (960) 
nan

>  <Num_Not_Resolved_Atoms>  (960) 
nan

$$$$
CHEMBL66292
     RDKit          3D

  0  0  0  0  0  0  0  0  0  0999 V3000
M  V30 BEGIN CTAB
M  V30 COUNTS 48 51 0 0 0
M  V30 BEGIN ATOM
M  V30 1 C 3.310213 -4.261817 -2.922597 0
M  V30 2 O 4.624647 -3.724653 -2.869870 0
M  V30 3 C 4.835328 -2.652642 -2.011327 0
M  V30 4 C 6.108270 -2.082274 -1.916988 0
M  V30 5 C 6.283480 -1.014629 -1.051082 0
M  V30 6 C 5.265276 -0.490384 -0.281106 0
M  V30 7 C 4.006378 -1.048158 -0.368980 0
M  V30 8 N 2.894384 -0.563635 0.395953 0
M  V30 9 N 1.644377 -0.351047 -0.002180 0
M  V30 10 C 0.893204 0.109095 1.017060 0
M  V30 11 C 1.730319 0.183271 2.103605 0
M  V30 12 C 1.595111 0.565571 3.420835 0
M  V30 13 N 0.338684 1.014428 3.911415 0
M  V30 14 N -0.821292 1.115007 3.180555 0
M  V30 15 C -1.876925 0.370432 3.398152 0
M  V30 16 C -3.121171 0.461023 2.632518 0
M  V30 17 C -4.205682 -0.372975 2.928753 0
M  V30 18 C -5.339935 -0.218750 2.155304 0
M  V30 19 C -5.419562 0.708203 1.134184 0
M  V30 20 S -6.945904 0.762017 0.255526 0
M  V30 21 C -6.789397 -0.388320 -1.102284 0
M  V30 22 O -7.146723 2.118437 -0.310370 0
M  V30 23 O -8.079228 0.359483 1.165025 0
M  V30 24 C -4.334569 1.518189 0.863544 0
M  V30 25 C -3.177925 1.402410 1.608473 0
M  V30 26 N 2.644442 0.520577 4.260268 0
M  V30 27 C 3.860889 0.103616 3.852343 0
M  V30 28 N 4.029211 -0.281234 2.557315 0
M  V30 29 C 2.968757 -0.238321 1.699283 0
M  V30 30 C 3.815697 -2.111719 -1.226522 0
M  V30 31 H 3.214749 -5.126805 -3.581848 0
M  V30 32 H 2.657377 -3.394634 -3.207752 0
M  V30 33 H 2.991945 -4.628907 -1.902881 0
M  V30 34 H 6.953917 -2.452586 -2.500386 0
M  V30 35 H 7.294521 -0.584383 -0.995859 0
M  V30 36 H 5.418903 0.351213 0.396548 0
M  V30 37 H -0.151635 0.376211 1.022956 0
M  V30 38 H 0.223133 1.307472 4.905572 0
M  V30 39 H -1.814175 -0.363322 4.206538 0
M  V30 40 H -4.127897 -1.089464 3.726629 0
M  V30 41 H -6.176137 -0.876907 2.399675 0
M  V30 42 H -7.413283 -0.110958 -1.960396 0
M  V30 43 H -5.732716 -0.429855 -1.466446 0
M  V30 44 H -7.007100 -1.405946 -0.694844 0
M  V30 45 H -4.434369 2.222057 0.066972 0
M  V30 46 H -2.321625 2.028968 1.408364 0
M  V30 47 H 4.740002 0.049908 4.494681 0
M  V30 48 H 2.838060 -2.550476 -1.299603 0
M  V30 END ATOM
M  V30 BEGIN BOND
M  V30 1 1 1 2
M  V30 2 1 2 3
M  V30 3 2 3 4
M  V30 4 1 4 5
M  V30 5 2 5 6
M  V30 6 1 6 7
M  V30 7 1 7 8
M  V30 8 1 8 9
M  V30 9 2 9 10
M  V30 10 1 10 11
M  V30 11 2 11 12
M  V30 12 1 12 13
M  V30 13 1 13 14
M  V30 14 2 14 15
M  V30 15 1 15 16
M  V30 16 2 16 17
M  V30 17 1 17 18
M  V30 18 2 18 19
M  V30 19 1 19 20
M  V30 20 1 20 21
M  V30 21 2 20 22
M  V30 22 2 20 23
M  V30 23 1 19 24
M  V30 24 2 24 25
M  V30 25 1 12 26
M  V30 26 2 26 27
M  V30 27 1 27 28
M  V30 28 2 28 29
M  V30 29 2 7 30
M  V30 30 1 30 3
M  V30 31 1 29 8
M  V30 32 1 29 11
M  V30 33 1 25 16
M  V30 34 1 1 31
M  V30 35 1 1 32
M  V30 36 1 1 33
M  V30 37 1 4 34
M  V30 38 1 5 35
M  V30 39 1 6 36
M  V30 40 1 10 37
M  V30 41 1 13 38
M  V30 42 1 15 39
M  V30 43 1 17 40
M  V30 44 1 18 41
M  V30 45 1 21 42
M  V30 46 1 21 43
M  V30 47 1 21 44
M  V30 48 1 24 45
M  V30 49 1 25 46
M  V30 50 1 27 47
M  V30 51 1 30 48
M  V30 END BOND
M  V30 END CTAB
M  END
>  <Dataset>  (961) 
ChEMBL_Kinases

>  <Ligand_Instance>  (961) 
nan

>  <PDB_ID>  (961) 
nan

>  <Standardized_SMILES>  (961) 
COc1cccc(-n2ncc3c(N/N=C/c4ccc(S(C)(=O)=O)cc4)ncnc32)c1

>  <Name>  (961) 
PYRAZOLOPYRIMIDINE 2

>  <Pocket>  (961) 
nan

>  <ATP_Site>  (961) 
nan

>  <Peripheral>  (961) 
nan

>  <Num_H_Atoms_ProtBoundConf>  (961) 
nan

>  <Num_Resolved_Atoms>  (961) 
nan

>  <Num_Not_Resolved_Atoms>  (961) 
nan

$$$$
CHEMBL3942454
     RDKit          3D

  0  0  0  0  0  0  0  0  0  0999 V3000
M  V30 BEGIN CTAB
M  V30 COUNTS 38 40 0 0 0
M  V30 BEGIN ATOM
M  V30 1 N 2.048299 -3.537023 -1.189197 0
M  V30 2 C 1.808518 -2.189338 -0.754165 0
M  V30 3 C 1.077274 -2.109224 0.543696 0 CFG=2
M  V30 4 O 1.836504 -2.747595 1.516984 0
M  V30 5 C -0.260946 -2.750687 0.477825 0
M  V30 6 C -1.014864 -2.857812 1.626914 0
M  V30 7 C -2.259456 -3.437777 1.646432 0
M  V30 8 C -2.821214 -3.946234 0.505420 0
M  V30 9 Cl -4.387751 -4.716586 0.341543 0
M  V30 10 C -2.090004 -3.857749 -0.681180 0
M  V30 11 C -0.847824 -3.269425 -0.656457 0
M  V30 12 C 0.963941 -0.657536 0.920748 0
M  V30 13 C 0.294156 0.096994 -0.052409 0
M  V30 14 C 0.116099 1.470087 0.169264 0
M  V30 15 C 0.611158 2.039055 1.350062 0
M  V30 16 C 0.425045 3.474070 1.580950 0
M  V30 17 C 0.268371 4.144511 2.778546 0
M  V30 18 N 0.126139 5.478189 2.518228 0
M  V30 19 N 0.188881 5.663170 1.194930 0
M  V30 20 C 0.371663 4.448073 0.603888 0
M  V30 21 C 1.267661 1.270184 2.291934 0
M  V30 22 C 1.448648 -0.087499 2.082374 0
M  V30 23 H 1.994902 -3.650400 -2.236723 0
M  V30 24 H 3.040374 -3.822999 -0.928825 0
M  V30 25 H 1.317074 -1.639996 -1.580507 0
M  V30 26 H 2.794732 -1.677527 -0.602492 0
M  V30 27 H 1.446536 -2.706847 2.424982 0
M  V30 28 H -0.643555 -2.478851 2.582093 0
M  V30 29 H -2.887220 -3.540697 2.537589 0
M  V30 30 H -2.436207 -4.229145 -1.654056 0
M  V30 31 H -0.268568 -3.197455 -1.588901 0
M  V30 32 H -0.096449 -0.302389 -0.964310 0
M  V30 33 H -0.405741 2.056999 -0.589208 0
M  V30 34 H 0.274497 3.593343 3.707640 0
M  V30 35 H 0.114176 6.574246 0.668686 0
M  V30 36 H 0.454931 4.336311 -0.488241 0
M  V30 37 H 1.656528 1.703053 3.213674 0
M  V30 38 H 1.948411 -0.758628 2.764448 0
M  V30 END ATOM
M  V30 BEGIN BOND
M  V30 1 1 1 2
M  V30 2 1 2 3
M  V30 3 1 3 4 CFG=1
M  V30 4 1 3 5
M  V30 5 2 5 6
M  V30 6 1 6 7
M  V30 7 2 7 8
M  V30 8 1 8 9
M  V30 9 1 8 10
M  V30 10 2 10 11
M  V30 11 1 3 12
M  V30 12 2 12 13
M  V30 13 1 13 14
M  V30 14 2 14 15
M  V30 15 1 15 16
M  V30 16 1 16 17
M  V30 17 2 17 18
M  V30 18 1 18 19
M  V30 19 1 19 20
M  V30 20 1 15 21
M  V30 21 2 21 22
M  V30 22 1 11 5
M  V30 23 1 22 12
M  V30 24 2 20 16
M  V30 25 1 1 23
M  V30 26 1 1 24
M  V30 27 1 2 25
M  V30 28 1 2 26
M  V30 29 1 4 27
M  V30 30 1 6 28
M  V30 31 1 7 29
M  V30 32 1 10 30
M  V30 33 1 11 31
M  V30 34 1 13 32
M  V30 35 1 14 33
M  V30 36 1 17 34
M  V30 37 1 19 35
M  V30 38 1 20 36
M  V30 39 1 21 37
M  V30 40 1 22 38
M  V30 END BOND
M  V30 END CTAB
M  END
>  <Dataset>  (962) 
ChEMBL_Kinases

>  <Ligand_Instance>  (962) 
nan

>  <PDB_ID>  (962) 
nan

>  <Standardized_SMILES>  (962) 
NC[C@](O)(c1ccc(Cl)cc1)c1ccc(-c2cn[nH]c2)cc1

>  <Name>  (962) 
nan

>  <Pocket>  (962) 
nan

>  <ATP_Site>  (962) 
nan

>  <Peripheral>  (962) 
nan

>  <Num_H_Atoms_ProtBoundConf>  (962) 
nan

>  <Num_Resolved_Atoms>  (962) 
nan

>  <Num_Not_Resolved_Atoms>  (962) 
nan

$$$$
CHEMBL394494
     RDKit          3D

  0  0  0  0  0  0  0  0  0  0999 V3000
M  V30 BEGIN CTAB
M  V30 COUNTS 27 29 0 0 0
M  V30 BEGIN ATOM
M  V30 1 C -1.751734 -0.279713 2.288943 0
M  V30 2 C -0.700537 -1.278205 1.956247 0
M  V30 3 C 0.089072 -1.655683 3.197446 0
M  V30 4 N 1.042317 -2.708749 2.866819 0
M  V30 5 C 1.970433 -2.356549 1.825471 0
M  V30 6 O 3.144347 -2.820406 1.754140 0
M  V30 7 C 1.501403 -1.401284 0.799138 0
M  V30 8 N 2.152017 -0.907051 -0.269669 0
M  V30 9 C 1.334234 -0.066996 -0.928141 0
M  V30 10 C 1.576662 0.663687 -2.075118 0
M  V30 11 C 0.526100 1.445067 -2.513056 0
M  V30 12 C -0.694180 1.513872 -1.872604 0
M  V30 13 Br -2.069397 2.629793 -2.573375 0
M  V30 14 C -0.858293 0.744113 -0.719251 0
M  V30 15 C 0.142273 -0.051664 -0.231487 0
M  V30 16 C 0.208938 -0.883566 0.868051 0
M  V30 17 H -2.646608 -0.456174 1.651732 0
M  V30 18 H -1.427582 0.763456 2.359964 0
M  V30 19 H -2.112556 -0.543753 3.326664 0
M  V30 20 H -1.253080 -2.228014 1.691489 0
M  V30 21 H 0.596592 -0.775671 3.642329 0
M  V30 22 H -0.634522 -2.098324 3.912949 0
M  V30 23 H 1.162180 -3.686625 3.266818 0
M  V30 24 H 3.122780 -1.137710 -0.538171 0
M  V30 25 H 2.534348 0.612661 -2.581825 0
M  V30 26 H 0.684749 2.031427 -3.411877 0
M  V30 27 H -1.794296 0.787699 -0.215393 0
M  V30 END ATOM
M  V30 BEGIN BOND
M  V30 1 1 1 2
M  V30 2 1 2 3
M  V30 3 1 3 4
M  V30 4 1 4 5
M  V30 5 2 5 6
M  V30 6 1 5 7
M  V30 7 1 7 8
M  V30 8 1 8 9
M  V30 9 2 9 10
M  V30 10 1 10 11
M  V30 11 2 11 12
M  V30 12 1 12 13
M  V30 13 1 12 14
M  V30 14 2 14 15
M  V30 15 1 15 16
M  V30 16 1 16 2
M  V30 17 2 16 7
M  V30 18 1 15 9
M  V30 19 1 1 17
M  V30 20 1 1 18
M  V30 21 1 1 19
M  V30 22 1 2 20
M  V30 23 1 3 21
M  V30 24 1 3 22
M  V30 25 1 4 23
M  V30 26 1 8 24
M  V30 27 1 10 25
M  V30 28 1 11 26
M  V30 29 1 14 27
M  V30 END BOND
M  V30 END CTAB
M  END
>  <Dataset>  (963) 
ChEMBL_Kinases

>  <Ligand_Instance>  (963) 
nan

>  <PDB_ID>  (963) 
nan

>  <Standardized_SMILES>  (963) 
CC1CNC(=O)c2[nH]c3ccc(Br)cc3c21

>  <Name>  (963) 
nan

>  <Pocket>  (963) 
nan

>  <ATP_Site>  (963) 
nan

>  <Peripheral>  (963) 
nan

>  <Num_H_Atoms_ProtBoundConf>  (963) 
nan

>  <Num_Resolved_Atoms>  (963) 
nan

>  <Num_Not_Resolved_Atoms>  (963) 
nan

$$$$
CHEMBL3944834
     RDKit          3D

  0  0  0  0  0  0  0  0  0  0999 V3000
M  V30 BEGIN CTAB
M  V30 COUNTS 47 51 0 0 0
M  V30 BEGIN ATOM
M  V30 1 C -0.216440 -0.875739 -2.123744 0
M  V30 2 C 1.221700 -1.205107 -2.166665 0
M  V30 3 C 1.886567 -1.986485 -3.082671 0
M  V30 4 Cl 0.832980 -2.652824 -4.335255 0
M  V30 5 C 3.243850 -2.215235 -3.012584 0
M  V30 6 C 3.959646 -1.638575 -1.985632 0
M  V30 7 C 3.299360 -0.845214 -1.051188 0
M  V30 8 C 1.918536 -0.619784 -1.132711 0
M  V30 9 N 1.534047 0.223098 -0.050763 0
M  V30 10 C 1.581421 1.625758 -0.388204 0
M  V30 11 O 1.866860 2.293495 -1.437429 0
M  V30 12 C 1.206499 2.423759 0.778104 0
M  V30 13 C 1.060167 3.749378 1.130160 0
M  V30 14 C 0.677887 4.151917 2.392600 0
M  V30 15 C 0.425941 3.221504 3.358509 0
M  V30 16 C 0.559329 1.867123 3.053305 0
M  V30 17 C 0.947648 1.487314 1.766926 0
M  V30 18 C 1.112834 0.062073 1.322729 0
M  V30 19 O 2.066556 -0.594640 2.091669 0
M  V30 20 C -0.211221 -0.536712 1.514425 0
M  V30 21 C -1.381315 -0.081926 0.945550 0
M  V30 22 C -2.629574 -0.642240 1.122755 0
M  V30 23 C -2.744306 -1.752828 1.933405 0
M  V30 24 C -1.592123 -2.233258 2.518045 0
M  V30 25 C -0.341654 -1.655158 2.327904 0
M  V30 26 N -1.750448 -3.390874 3.354949 0
M  V30 27 C -3.016096 -4.011703 3.573723 0
M  V30 28 O -3.064426 -5.185944 4.047633 0
M  V30 29 C -4.239049 -3.224169 3.223652 0
M  V30 30 O -3.972306 -2.342803 2.136839 0
M  V30 31 H -0.707576 -1.594391 -1.434506 0
M  V30 32 H -0.631059 -1.126221 -3.141845 0
M  V30 33 H -0.425879 0.153149 -1.838190 0
M  V30 34 H 3.627476 -2.852936 -3.806307 0
M  V30 35 H 5.016745 -1.851767 -1.980903 0
M  V30 36 H 4.010048 -0.465160 -0.304961 0
M  V30 37 H 1.259780 4.469505 0.366691 0
M  V30 38 H 0.593704 5.220073 2.561051 0
M  V30 39 H 0.132413 3.607575 4.319307 0
M  V30 40 H 0.349260 1.173375 3.849290 0
M  V30 41 H 1.840226 -0.370156 3.032548 0
M  V30 42 H -1.280607 0.793124 0.309371 0
M  V30 43 H -3.500160 -0.225942 0.641159 0
M  V30 44 H 0.525271 -2.065881 2.804770 0
M  V30 45 H -0.923601 -3.814191 3.833400 0
M  V30 46 H -5.105836 -3.858699 2.990905 0
M  V30 47 H -4.432989 -2.549928 4.093779 0
M  V30 END ATOM
M  V30 BEGIN BOND
M  V30 1 1 1 2
M  V30 2 2 2 3
M  V30 3 1 3 4
M  V30 4 1 3 5
M  V30 5 2 5 6
M  V30 6 1 6 7
M  V30 7 2 7 8
M  V30 8 1 8 9
M  V30 9 1 9 10
M  V30 10 2 10 11
M  V30 11 1 10 12
M  V30 12 2 12 13
M  V30 13 1 13 14
M  V30 14 2 14 15
M  V30 15 1 15 16
M  V30 16 2 16 17
M  V30 17 1 17 18
M  V30 18 1 18 19
M  V30 19 1 18 20
M  V30 20 2 20 21
M  V30 21 1 21 22
M  V30 22 2 22 23
M  V30 23 1 23 24
M  V30 24 2 24 25
M  V30 25 1 24 26
M  V30 26 1 26 27
M  V30 27 2 27 28
M  V30 28 1 27 29
M  V30 29 1 29 30
M  V30 30 1 8 2
M  V30 31 1 18 9
M  V30 32 1 25 20
M  V30 33 1 17 12
M  V30 34 1 30 23
M  V30 35 1 1 31
M  V30 36 1 1 32
M  V30 37 1 1 33
M  V30 38 1 5 34
M  V30 39 1 6 35
M  V30 40 1 7 36
M  V30 41 1 13 37
M  V30 42 1 14 38
M  V30 43 1 15 39
M  V30 44 1 16 40
M  V30 45 1 19 41
M  V30 46 1 21 42
M  V30 47 1 22 43
M  V30 48 1 25 44
M  V30 49 1 26 45
M  V30 50 1 29 46
M  V30 51 1 29 47
M  V30 END BOND
M  V30 END CTAB
M  END
>  <Dataset>  (964) 
ChEMBL_Kinases

>  <Ligand_Instance>  (964) 
nan

>  <PDB_ID>  (964) 
nan

>  <Standardized_SMILES>  (964) 
Cc1c(Cl)cccc1N1C(=O)c2ccccc2C1(O)c1ccc2c(c1)NC(=O)CO2

>  <Name>  (964) 
nan

>  <Pocket>  (964) 
nan

>  <ATP_Site>  (964) 
nan

>  <Peripheral>  (964) 
nan

>  <Num_H_Atoms_ProtBoundConf>  (964) 
nan

>  <Num_Resolved_Atoms>  (964) 
nan

>  <Num_Not_Resolved_Atoms>  (964) 
nan

$$$$
CHEMBL3944723
     RDKit          3D

  0  0  0  0  0  0  0  0  0  0999 V3000
M  V30 BEGIN CTAB
M  V30 COUNTS 129 132 0 0 0
M  V30 BEGIN ATOM
M  V30 1 C 3.589234 -4.356924 -4.101069 0
M  V30 2 C 4.354623 -3.274961 -3.471837 0
M  V30 3 O 5.342013 -3.798566 -2.844367 0
M  V30 4 N 4.693028 -1.949057 -3.114815 0
M  V30 5 C 5.905712 -2.023201 -2.293916 0
M  V30 6 C 6.303156 -0.549594 -2.165710 0
M  V30 7 C 5.616295 0.118208 -3.368660 0
M  V30 8 C 4.268403 -0.577837 -3.273521 0 CFG=1
M  V30 9 C 3.359782 -0.247196 -4.323128 0
M  V30 10 O 3.304249 1.041041 -4.388149 0
M  V30 11 N 2.544613 -0.837788 -5.266731 0
M  V30 12 C 1.622934 -0.733203 -6.343793 0 CFG=1
M  V30 13 C 1.843800 -1.655817 -7.500392 0
M  V30 14 C 3.196424 -1.465547 -8.151126 0
M  V30 15 C 3.338836 -0.043659 -8.659009 0
M  V30 16 C 3.194035 -2.336092 -9.419293 0
M  V30 17 C 0.212531 -0.997326 -5.844988 0
M  V30 18 O -0.625387 -1.086786 -6.773755 0
M  V30 19 N -0.080469 -1.119708 -4.448374 0
M  V30 20 C -1.477914 -1.374709 -4.069310 0 CFG=1
M  V30 21 C -1.603645 -1.959290 -2.727586 0
M  V30 22 C -0.926646 -3.217810 -2.446941 0
M  V30 23 C -0.081554 -4.082956 -3.105363 0
M  V30 24 N 0.275492 -5.089522 -2.288091 0
M  V30 25 C -0.358191 -4.836405 -1.122866 0
M  V30 26 N -1.104898 -3.696673 -1.188527 0
M  V30 27 C -1.898318 -3.335012 -0.007772 0
M  V30 28 C -1.278940 -2.297199 0.848221 0
M  V30 29 C -2.197649 -2.086119 2.067036 0
M  V30 30 C -1.703010 -0.975994 2.931614 0
M  V30 31 C -2.568984 -0.837225 4.191648 0
M  V30 32 O -2.125525 0.253120 4.926306 0
M  V30 33 N -1.387176 0.183399 6.035240 0
M  V30 34 C -1.391333 0.965201 7.052192 0
M  V30 35 C -0.521553 0.759619 8.190129 0
M  V30 36 C 0.673767 1.448549 7.923630 0
M  V30 37 F 1.011836 2.185793 6.830048 0
M  V30 38 C 1.731760 1.448983 8.832581 0
M  V30 39 C 1.667293 0.774178 10.047742 0
M  V30 40 C 0.451353 0.099561 10.269967 0
M  V30 41 C -0.596094 0.091018 9.384028 0
M  V30 42 O -1.778470 -0.569259 9.607950 0
M  V30 43 C -2.363145 -1.561709 8.891506 0
M  V30 44 C -3.358423 -1.504017 7.938533 0
M  V30 45 C -3.857589 -2.616528 7.283177 0
M  V30 46 C -3.355479 -3.850743 7.576833 0
M  V30 47 C -2.353428 -3.983099 8.526234 0
M  V30 48 C -1.885806 -2.842667 9.155467 0
M  V30 49 C -2.102942 0.043322 -3.921207 0
M  V30 50 O -1.179468 0.831173 -4.300554 0
M  V30 51 N -3.394803 0.390741 -3.466739 0
M  V30 52 C -3.597159 1.826721 -3.460641 0 CFG=1
M  V30 53 C -4.913556 2.169720 -4.068064 0
M  V30 54 O -4.963156 1.727539 -5.363676 0
M  V30 55 C -3.488016 2.204194 -2.007214 0
M  V30 56 O -3.282314 0.946163 -1.949762 0
M  V30 57 N -3.558041 3.310188 -1.125226 0
M  V30 58 C -3.333428 3.002819 0.274390 0 CFG=2
M  V30 59 C -4.639645 3.189679 0.986883 0
M  V30 60 N -4.495634 2.884323 2.366835 0
M  V30 61 O -5.699343 3.564342 0.418955 0
M  V30 62 C -2.312496 3.859402 0.915583 0 CFG=1
M  V30 63 C -2.691397 5.336015 0.956343 0
M  V30 64 O -2.140932 3.497336 2.246498 0
M  V30 65 P -0.506684 3.330914 2.635264 0
M  V30 66 O -0.224836 2.153935 3.536994 0
M  V30 67 O -0.027686 4.738488 3.466491 0
M  V30 68 O 0.339901 3.157377 1.170137 0
M  V30 69 H 3.461999 -5.180092 -3.352227 0
M  V30 70 H 2.571238 -4.062711 -4.386682 0
M  V30 71 H 4.142922 -4.822479 -4.955121 0
M  V30 72 H 6.732124 -2.596274 -2.756154 0
M  V30 73 H 5.610667 -2.454386 -1.319732 0
M  V30 74 H 5.804610 -0.171930 -1.247762 0
M  V30 75 H 7.382506 -0.401499 -2.151291 0
M  V30 76 H 6.171162 -0.209299 -4.269561 0
M  V30 77 H 5.540283 1.195248 -3.250899 0
M  V30 78 H 3.863261 -0.280647 -2.272100 0
M  V30 79 H 2.633770 -1.867244 -5.147958 0
M  V30 80 H 1.652575 0.345896 -6.687994 0
M  V30 81 H 1.691416 -2.690518 -7.202425 0
M  V30 82 H 1.110751 -1.321703 -8.291835 0
M  V30 83 H 3.997375 -1.808089 -7.503618 0
M  V30 84 H 3.774105 0.643683 -7.904353 0
M  V30 85 H 2.345153 0.273707 -9.023636 0
M  V30 86 H 4.025965 -0.063378 -9.534613 0
M  V30 87 H 3.840347 -1.905322 -10.213100 0
M  V30 88 H 2.158194 -2.381399 -9.868968 0
M  V30 89 H 3.454438 -3.385165 -9.198908 0
M  V30 90 H 0.713181 -1.023574 -3.757850 0
M  V30 91 H -1.983334 -1.878045 -4.877963 0
M  V30 92 H -1.183774 -1.187746 -2.000464 0
M  V30 93 H -2.690324 -1.982060 -2.454749 0
M  V30 94 H 0.125588 -3.781960 -4.140757 0
M  V30 95 H -0.220499 -5.523522 -0.282923 0
M  V30 96 H -2.188242 -4.197448 0.597492 0
M  V30 97 H -2.835869 -2.871873 -0.447581 0
M  V30 98 H -0.280204 -2.607844 1.245198 0
M  V30 99 H -1.090484 -1.330060 0.347686 0
M  V30 100 H -2.176558 -3.058231 2.634464 0
M  V30 101 H -3.243157 -1.945067 1.731266 0
M  V30 102 H -0.674413 -1.152160 3.277262 0
M  V30 103 H -1.791147 -0.000331 2.404570 0
M  V30 104 H -3.605917 -0.746300 3.864533 0
M  V30 105 H -2.489444 -1.797951 4.784980 0
M  V30 106 H -2.094566 1.767233 6.958670 0
M  V30 107 H 2.682939 1.946856 8.721213 0
M  V30 108 H 2.452490 0.747476 10.779030 0
M  V30 109 H 0.287511 -0.458936 11.178765 0
M  V30 110 H -3.747908 -0.527482 7.720523 0
M  V30 111 H -4.644441 -2.488647 6.542194 0
M  V30 112 H -3.738824 -4.743852 7.073208 0
M  V30 113 H -1.952788 -4.958579 8.765047 0
M  V30 114 H -1.098200 -3.023900 9.889211 0
M  V30 115 H -3.961218 -0.436945 -3.218383 0
M  V30 116 H -2.784979 2.326937 -4.033714 0
M  V30 117 H -5.120167 3.252805 -3.951038 0
M  V30 118 H -5.692319 1.650954 -3.425355 0
M  V30 119 H -4.161570 1.203228 -5.603173 0
M  V30 120 H -3.758160 4.072204 -1.796691 0
M  V30 121 H -3.082571 1.937892 0.426195 0
M  V30 122 H -4.264557 3.312897 3.310587 0
M  V30 123 H -4.701726 1.863484 2.412562 0
M  V30 124 H -1.311967 3.819888 0.441838 0
M  V30 125 H -3.166116 5.601898 0.015603 0
M  V30 126 H -3.312069 5.532639 1.858883 0
M  V30 127 H -1.735450 5.892524 1.153185 0
M  V30 128 H 0.768845 5.143040 3.065327 0
M  V30 129 H 0.005805 2.312738 0.776636 0
M  V30 END ATOM
M  V30 BEGIN BOND
M  V30 1 1 1 2
M  V30 2 2 2 3
M  V30 3 1 2 4
M  V30 4 1 4 5
M  V30 5 1 5 6
M  V30 6 1 6 7
M  V30 7 1 7 8
M  V30 8 1 8 9
M  V30 9 2 9 10
M  V30 10 1 9 11
M  V30 11 1 11 12
M  V30 12 1 12 13
M  V30 13 1 13 14
M  V30 14 1 14 15
M  V30 15 1 14 16
M  V30 16 1 12 17
M  V30 17 2 17 18
M  V30 18 1 17 19
M  V30 19 1 19 20
M  V30 20 1 20 21
M  V30 21 1 21 22
M  V30 22 2 22 23
M  V30 23 1 23 24
M  V30 24 2 24 25
M  V30 25 1 25 26
M  V30 26 1 26 27
M  V30 27 1 27 28
M  V30 28 1 28 29
M  V30 29 1 29 30
M  V30 30 1 30 31
M  V30 31 1 31 32
M  V30 32 1 32 33
M  V30 33 2 33 34
M  V30 34 1 34 35
M  V30 35 2 35 36
M  V30 36 1 36 37
M  V30 37 1 36 38
M  V30 38 2 38 39
M  V30 39 1 39 40
M  V30 40 2 40 41
M  V30 41 1 41 42
M  V30 42 1 42 43
M  V30 43 2 43 44
M  V30 44 1 44 45
M  V30 45 2 45 46
M  V30 46 1 46 47
M  V30 47 2 47 48
M  V30 48 1 20 49
M  V30 49 2 49 50
M  V30 50 1 49 51
M  V30 51 1 51 52
M  V30 52 1 52 53
M  V30 53 1 53 54
M  V30 54 1 52 55
M  V30 55 2 55 56
M  V30 56 1 55 57
M  V30 57 1 57 58
M  V30 58 1 58 59
M  V30 59 1 59 60
M  V30 60 2 59 61
M  V30 61 1 58 62
M  V30 62 1 62 63
M  V30 63 1 62 64
M  V30 64 1 64 65
M  V30 65 2 65 66
M  V30 66 1 65 67
M  V30 67 1 65 68
M  V30 68 1 8 4
M  V30 69 1 26 22
M  V30 70 1 41 35
M  V30 71 1 48 43
M  V30 72 1 1 69
M  V30 73 1 1 70
M  V30 74 1 1 71
M  V30 75 1 5 72
M  V30 76 1 5 73
M  V30 77 1 6 74
M  V30 78 1 6 75
M  V30 79 1 7 76
M  V30 80 1 7 77
M  V30 81 1 8 78 CFG=1
M  V30 82 1 11 79
M  V30 83 1 12 80 CFG=3
M  V30 84 1 13 81
M  V30 85 1 13 82
M  V30 86 1 14 83
M  V30 87 1 15 84
M  V30 88 1 15 85
M  V30 89 1 15 86
M  V30 90 1 16 87
M  V30 91 1 16 88
M  V30 92 1 16 89
M  V30 93 1 19 90
M  V30 94 1 20 91 CFG=3
M  V30 95 1 21 92
M  V30 96 1 21 93
M  V30 97 1 23 94
M  V30 98 1 25 95
M  V30 99 1 27 96
M  V30 100 1 27 97
M  V30 101 1 28 98
M  V30 102 1 28 99
M  V30 103 1 29 100
M  V30 104 1 29 101
M  V30 105 1 30 102
M  V30 106 1 30 103
M  V30 107 1 31 104
M  V30 108 1 31 105
M  V30 109 1 34 106
M  V30 110 1 38 107
M  V30 111 1 39 108
M  V30 112 1 40 109
M  V30 113 1 44 110
M  V30 114 1 45 111
M  V30 115 1 46 112
M  V30 116 1 47 113
M  V30 117 1 48 114
M  V30 118 1 51 115
M  V30 119 1 52 116 CFG=3
M  V30 120 1 53 117
M  V30 121 1 53 118
M  V30 122 1 54 119
M  V30 123 1 57 120
M  V30 124 1 58 121 CFG=3
M  V30 125 1 60 122
M  V30 126 1 60 123
M  V30 127 1 62 124 CFG=3
M  V30 128 1 63 125
M  V30 129 1 63 126
M  V30 130 1 63 127
M  V30 131 1 67 128
M  V30 132 1 68 129
M  V30 END BOND
M  V30 END CTAB
M  END
>  <Dataset>  (965) 
ChEMBL_Kinases

>  <Ligand_Instance>  (965) 
nan

>  <PDB_ID>  (965) 
nan

>  <Standardized_SMILES>  (965) 
CC(=O)N1CCC[C@H]1C(=O)N[C@@H](CC(C)C)C(=O)N[C@@H](Cc1cncn1CCCCCO/N=C/c1c(F)cccc1Oc1ccccc1)C(=O)N[C@@H](CO)C(=O)N[C@H](C(N)=O)[C@@H](C)OP(=O)(O)O

>  <Name>  (965) 
nan

>  <Pocket>  (965) 
nan

>  <ATP_Site>  (965) 
nan

>  <Peripheral>  (965) 
nan

>  <Num_H_Atoms_ProtBoundConf>  (965) 
nan

>  <Num_Resolved_Atoms>  (965) 
nan

>  <Num_Not_Resolved_Atoms>  (965) 
nan

$$$$
CHEMBL3944679
     RDKit          3D

  0  0  0  0  0  0  0  0  0  0999 V3000
M  V30 BEGIN CTAB
M  V30 COUNTS 35 36 0 0 0
M  V30 BEGIN ATOM
M  V30 1 N 0.203630 -4.827398 2.867486 0
M  V30 2 S 1.916598 -4.507726 2.847214 0
M  V30 3 O 2.589103 -5.564599 2.055047 0
M  V30 4 O 2.357887 -4.449159 4.260064 0
M  V30 5 C 2.144695 -2.975153 2.043014 0
M  V30 6 C 2.126156 -1.870745 2.866883 0
M  V30 7 C 2.307663 -0.641832 2.222177 0
M  V30 8 Cl 2.295555 0.809266 3.211561 0
M  V30 9 C 2.495183 -0.535339 0.838214 0
M  V30 10 N 2.669627 0.708653 0.216052 0
M  V30 11 C 2.045091 1.793577 -0.396427 0
M  V30 12 S 3.054841 2.998603 -0.923773 0
M  V30 13 N 0.675549 1.999392 -0.625085 0
M  V30 14 C -0.424328 1.163552 -0.295171 0
M  V30 15 O -0.167592 0.085248 0.281050 0
M  V30 16 C -1.826237 1.450767 -0.568507 0
M  V30 17 C -2.755171 0.512688 -0.170708 0
M  V30 18 C -4.121273 0.718576 -0.399061 0
M  V30 19 C -4.594176 1.852910 -1.023475 0
M  V30 20 C -3.661914 2.788942 -1.419918 0
M  V30 21 C -2.320440 2.573199 -1.188727 0
M  V30 22 C 2.493700 -1.733625 0.113062 0
M  V30 23 Cl 2.725779 -1.650612 -1.626116 0
M  V30 24 C 2.321022 -2.984526 0.676095 0
M  V30 25 H -0.110900 -4.811122 1.868338 0
M  V30 26 H -0.238384 -4.070206 3.427253 0
M  V30 27 H 1.982637 -1.936451 3.934933 0
M  V30 28 H 3.708524 0.660494 0.334210 0
M  V30 29 H 0.319719 2.873977 -1.105698 0
M  V30 30 H -2.540451 -0.419769 0.326948 0
M  V30 31 H -4.877034 -0.000576 -0.098011 0
M  V30 32 H -5.649428 1.993913 -1.190607 0
M  V30 33 H -3.963137 3.691195 -1.909840 0
M  V30 34 H -1.613462 3.319402 -1.508030 0
M  V30 35 H 2.325130 -3.886969 0.088843 0
M  V30 END ATOM
M  V30 BEGIN BOND
M  V30 1 1 1 2
M  V30 2 2 2 3
M  V30 3 2 2 4
M  V30 4 1 2 5
M  V30 5 2 5 6
M  V30 6 1 6 7
M  V30 7 1 7 8
M  V30 8 2 7 9
M  V30 9 1 9 10
M  V30 10 1 10 11
M  V30 11 2 11 12
M  V30 12 1 11 13
M  V30 13 1 13 14
M  V30 14 2 14 15
M  V30 15 1 14 16
M  V30 16 2 16 17
M  V30 17 1 17 18
M  V30 18 2 18 19
M  V30 19 1 19 20
M  V30 20 2 20 21
M  V30 21 1 9 22
M  V30 22 1 22 23
M  V30 23 2 22 24
M  V30 24 1 24 5
M  V30 25 1 21 16
M  V30 26 1 1 25
M  V30 27 1 1 26
M  V30 28 1 6 27
M  V30 29 1 10 28
M  V30 30 1 13 29
M  V30 31 1 17 30
M  V30 32 1 18 31
M  V30 33 1 19 32
M  V30 34 1 20 33
M  V30 35 1 21 34
M  V30 36 1 24 35
M  V30 END BOND
M  V30 END CTAB
M  END
>  <Dataset>  (966) 
ChEMBL_Kinases

>  <Ligand_Instance>  (966) 
nan

>  <PDB_ID>  (966) 
nan

>  <Standardized_SMILES>  (966) 
NS(=O)(=O)c1cc(Cl)c(NC(=S)NC(=O)c2ccccc2)c(Cl)c1

>  <Name>  (966) 
nan

>  <Pocket>  (966) 
nan

>  <ATP_Site>  (966) 
nan

>  <Peripheral>  (966) 
nan

>  <Num_H_Atoms_ProtBoundConf>  (966) 
nan

>  <Num_Resolved_Atoms>  (966) 
nan

>  <Num_Not_Resolved_Atoms>  (966) 
nan

$$$$
CHEMBL3944650
     RDKit          3D

  0  0  0  0  0  0  0  0  0  0999 V3000
M  V30 BEGIN CTAB
M  V30 COUNTS 48 52 0 0 0
M  V30 BEGIN ATOM
M  V30 1 C -1.332759 -1.354341 1.728695 0
M  V30 2 C -0.403314 -0.466776 1.510370 0
M  V30 3 C -0.045002 0.578630 2.465154 0
M  V30 4 N -0.568257 0.817677 3.681691 0
M  V30 5 N 0.029963 1.865356 4.245705 0
M  V30 6 C 0.975743 2.359264 3.417388 0
M  V30 7 C 1.871611 3.429021 3.523057 0
M  V30 8 C 2.704926 3.613387 2.420997 0
M  V30 9 C 3.683462 4.695534 2.411542 0
M  V30 10 C 4.324968 5.179712 3.530235 0
M  V30 11 C 5.245646 6.217360 3.426224 0
M  V30 12 N 5.523544 6.763994 2.229883 0
M  V30 13 C 4.933654 6.337170 1.109239 0
M  V30 14 C 4.015139 5.305111 1.197668 0
M  V30 15 C 2.659244 2.806220 1.301258 0
M  V30 16 C 1.759607 1.762562 1.240994 0
M  V30 17 C 0.924665 1.546802 2.299182 0
M  V30 18 C -1.757812 -2.430884 0.837971 0
M  V30 19 C -1.140757 -2.572956 -0.386189 0
M  V30 20 C -1.591400 -3.623151 -1.199809 0
M  V30 21 C -2.609344 -4.495467 -0.817981 0
M  V30 22 C -2.986071 -5.549266 -1.755600 0
M  V30 23 C -2.894476 -5.338882 -3.130085 0
M  V30 24 C -3.251555 -6.336430 -4.011236 0
M  V30 25 C -3.707336 -7.566098 -3.601518 0
M  V30 26 C -3.804674 -7.792411 -2.242910 0
M  V30 27 C -3.445498 -6.789404 -1.365517 0
M  V30 28 C -3.189605 -4.302595 0.420626 0
M  V30 29 C -2.769870 -3.269578 1.259788 0
M  V30 30 H -1.817058 -1.230131 2.708746 0
M  V30 31 H 0.124192 -0.514835 0.571317 0
M  V30 32 H -0.130948 2.320367 5.183129 0
M  V30 33 H 1.907229 4.049390 4.383737 0
M  V30 34 H 4.092249 4.730026 4.489608 0
M  V30 35 H 5.750244 6.598701 4.305639 0
M  V30 36 H 5.153492 6.776747 0.129232 0
M  V30 37 H 3.540401 4.964135 0.284109 0
M  V30 38 H 3.296765 2.943560 0.451610 0
M  V30 39 H 1.708870 1.119405 0.372415 0
M  V30 40 H -0.349536 -1.947861 -0.761369 0
M  V30 41 H -1.124161 -3.755335 -2.161262 0
M  V30 42 H -2.544139 -4.395861 -3.507108 0
M  V30 43 H -3.159184 -6.114774 -5.068495 0
M  V30 44 H -3.959186 -8.276487 -4.369960 0
M  V30 45 H -4.163050 -8.756303 -1.903734 0
M  V30 46 H -3.514199 -6.947668 -0.303067 0
M  V30 47 H -3.981150 -4.978249 0.720896 0
M  V30 48 H -3.241248 -3.141600 2.222460 0
M  V30 END ATOM
M  V30 BEGIN BOND
M  V30 1 2 1 2
M  V30 2 1 2 3
M  V30 3 2 3 4
M  V30 4 1 4 5
M  V30 5 1 5 6
M  V30 6 2 6 7
M  V30 7 1 7 8
M  V30 8 1 8 9
M  V30 9 2 9 10
M  V30 10 1 10 11
M  V30 11 2 11 12
M  V30 12 1 12 13
M  V30 13 2 13 14
M  V30 14 2 8 15
M  V30 15 1 15 16
M  V30 16 2 16 17
M  V30 17 1 1 18
M  V30 18 2 18 19
M  V30 19 1 19 20
M  V30 20 2 20 21
M  V30 21 1 21 22
M  V30 22 2 22 23
M  V30 23 1 23 24
M  V30 24 2 24 25
M  V30 25 1 25 26
M  V30 26 2 26 27
M  V30 27 1 21 28
M  V30 28 2 28 29
M  V30 29 1 17 3
M  V30 30 1 29 18
M  V30 31 1 17 6
M  V30 32 1 27 22
M  V30 33 1 14 9
M  V30 34 1 1 30
M  V30 35 1 2 31
M  V30 36 1 5 32
M  V30 37 1 7 33
M  V30 38 1 10 34
M  V30 39 1 11 35
M  V30 40 1 13 36
M  V30 41 1 14 37
M  V30 42 1 15 38
M  V30 43 1 16 39
M  V30 44 1 19 40
M  V30 45 1 20 41
M  V30 46 1 23 42
M  V30 47 1 24 43
M  V30 48 1 25 44
M  V30 49 1 26 45
M  V30 50 1 27 46
M  V30 51 1 28 47
M  V30 52 1 29 48
M  V30 END BOND
M  V30 END CTAB
M  END
>  <Dataset>  (967) 
ChEMBL_Kinases

>  <Ligand_Instance>  (967) 
nan

>  <PDB_ID>  (967) 
nan

>  <Standardized_SMILES>  (967) 
C(=C/c1n[nH]c2cc(-c3ccncc3)ccc12)\c1ccc(-c2ccccc2)cc1

>  <Name>  (967) 
nan

>  <Pocket>  (967) 
nan

>  <ATP_Site>  (967) 
nan

>  <Peripheral>  (967) 
nan

>  <Num_H_Atoms_ProtBoundConf>  (967) 
nan

>  <Num_Resolved_Atoms>  (967) 
nan

>  <Num_Not_Resolved_Atoms>  (967) 
nan

$$$$
CHEMBL3944542
     RDKit          3D

  0  0  0  0  0  0  0  0  0  0999 V3000
M  V30 BEGIN CTAB
M  V30 COUNTS 41 42 0 0 0
M  V30 BEGIN ATOM
M  V30 1 C -1.457693 -1.283368 1.303035 0
M  V30 2 C -0.805246 -1.487503 0.005138 0
M  V30 3 C -1.148951 -2.321274 -0.963954 0
M  V30 4 C -0.458980 -2.480783 -2.237944 0
M  V30 5 O -0.898840 -3.304208 -3.050123 0
M  V30 6 C 0.718357 -1.657854 -2.488968 0
M  V30 7 C 1.389188 -1.845541 -3.783917 0
M  V30 8 C 0.483645 -1.548280 -4.955807 0
M  V30 9 C 2.593804 -0.921083 -3.894367 0
M  V30 10 C 1.101948 -0.804718 -1.543486 0
M  V30 11 C 0.374300 -0.674251 -0.266019 0
M  V30 12 N 0.912465 0.205164 0.508113 0
M  V30 13 O 0.300225 0.404743 1.747473 0
M  V30 14 C 1.046654 0.479169 2.905713 0
M  V30 15 O 2.152843 0.315800 2.332693 0
M  V30 16 C 0.754824 0.672824 4.316015 0
M  V30 17 C 1.920400 0.660238 5.075910 0
M  V30 18 C 1.877760 0.824337 6.431917 0
M  V30 19 C 0.650057 1.003141 7.031483 0
M  V30 20 C -0.515934 1.018672 6.296033 0
M  V30 21 C -0.462907 0.852633 4.931257 0
M  V30 22 C -1.629149 0.847586 4.013194 0
M  V30 23 H -2.338463 -1.992787 1.307166 0
M  V30 24 H -1.961541 -0.278213 1.371808 0
M  V30 25 H -0.880750 -1.560069 2.184483 0
M  V30 26 H -2.041546 -2.928595 -0.744560 0
M  V30 27 H 1.674135 -2.910486 -3.839318 0
M  V30 28 H -0.030796 -2.492173 -5.284392 0
M  V30 29 H 1.139762 -1.250546 -5.807121 0
M  V30 30 H -0.222055 -0.725247 -4.774746 0
M  V30 31 H 2.197698 0.114630 -3.811887 0
M  V30 32 H 3.319888 -1.098796 -3.089283 0
M  V30 33 H 3.041024 -1.004933 -4.903773 0
M  V30 34 H 1.984327 -0.233079 -1.811063 0
M  V30 35 H 2.942573 0.525404 4.695617 0
M  V30 36 H 2.747585 0.823990 7.075759 0
M  V30 37 H 0.521098 1.141024 8.101932 0
M  V30 38 H -1.527855 1.152728 6.677861 0
M  V30 39 H -1.422617 1.361742 3.057199 0
M  V30 40 H -2.068978 -0.159463 3.905435 0
M  V30 41 H -2.419427 1.463376 4.530577 0
M  V30 END ATOM
M  V30 BEGIN BOND
M  V30 1 1 1 2
M  V30 2 2 2 3
M  V30 3 1 3 4
M  V30 4 2 4 5
M  V30 5 1 4 6
M  V30 6 1 6 7
M  V30 7 1 7 8
M  V30 8 1 7 9
M  V30 9 2 6 10
M  V30 10 1 10 11
M  V30 11 2 11 12
M  V30 12 1 12 13
M  V30 13 1 13 14
M  V30 14 2 14 15
M  V30 15 1 14 16
M  V30 16 2 16 17
M  V30 17 1 17 18
M  V30 18 2 18 19
M  V30 19 1 19 20
M  V30 20 2 20 21
M  V30 21 1 21 22
M  V30 22 1 11 2
M  V30 23 1 21 16
M  V30 24 1 1 23
M  V30 25 1 1 24
M  V30 26 1 1 25
M  V30 27 1 3 26
M  V30 28 1 7 27
M  V30 29 1 8 28
M  V30 30 1 8 29
M  V30 31 1 8 30
M  V30 32 1 9 31
M  V30 33 1 9 32
M  V30 34 1 9 33
M  V30 35 1 10 34
M  V30 36 1 17 35
M  V30 37 1 18 36
M  V30 38 1 19 37
M  V30 39 1 20 38
M  V30 40 1 22 39
M  V30 41 1 22 40
M  V30 42 1 22 41
M  V30 END BOND
M  V30 END CTAB
M  END
>  <Dataset>  (968) 
ChEMBL_Kinases

>  <Ligand_Instance>  (968) 
nan

>  <PDB_ID>  (968) 
nan

>  <Standardized_SMILES>  (968) 
CC1=CC(=O)C(C(C)C)=C/C1=N/OC(=O)c1ccccc1C

>  <Name>  (968) 
nan

>  <Pocket>  (968) 
nan

>  <ATP_Site>  (968) 
nan

>  <Peripheral>  (968) 
nan

>  <Num_H_Atoms_ProtBoundConf>  (968) 
nan

>  <Num_Resolved_Atoms>  (968) 
nan

>  <Num_Not_Resolved_Atoms>  (968) 
nan

$$$$
CHEMBL3944471
     RDKit          3D

  0  0  0  0  0  0  0  0  0  0999 V3000
M  V30 BEGIN CTAB
M  V30 COUNTS 47 50 0 0 0
M  V30 BEGIN ATOM
M  V30 1 N -2.149058 -9.510294 -0.039862 0
M  V30 2 C -2.283131 -8.213721 0.493665 0
M  V30 3 O -3.136710 -8.279164 1.436664 0
M  V30 4 C -1.594394 -6.985296 0.079486 0
M  V30 5 C -0.670245 -6.934315 -0.947147 0
M  V30 6 C -0.085709 -5.712520 -1.245862 0
M  V30 7 C -0.411087 -4.571809 -0.542865 0
M  V30 8 N 0.001390 -3.272916 -0.624923 0
M  V30 9 C -0.645392 -2.558565 0.314670 0
M  V30 10 C -0.485350 -1.127836 0.556011 0
M  V30 11 C 0.388476 -0.384474 -0.210010 0
M  V30 12 C 0.561973 0.970270 -0.006209 0
M  V30 13 C -0.152028 1.607706 0.986748 0
M  V30 14 C -0.156524 2.992096 1.400964 0
M  V30 15 O -0.818076 3.552742 2.308977 0
M  V30 16 C 0.688311 4.058228 0.768092 0
M  V30 17 C 0.437977 5.395350 1.430035 0
M  V30 18 C 1.067923 5.478051 2.800095 0
M  V30 19 C 2.417708 4.802559 2.839426 0
M  V30 20 C 2.939186 4.760787 1.397538 0
M  V30 21 C 2.136450 3.690116 0.690719 0
M  V30 22 C -1.035271 0.841454 1.756631 0
M  V30 23 C -1.211460 -0.512503 1.556074 0
M  V30 24 N -1.450998 -3.393018 0.976751 0
M  V30 25 C -1.347467 -4.645000 0.491012 0
M  V30 26 C -1.926329 -5.864703 0.783952 0
M  V30 27 H -1.172996 -9.680866 0.318224 0
M  V30 28 H -1.508896 -10.330483 -0.129201 0
M  V30 29 H -0.446152 -7.852356 -1.470328 0
M  V30 30 H 0.640940 -5.652294 -2.047112 0
M  V30 31 H 0.694949 -2.916787 -1.301696 0
M  V30 32 H 0.983035 -0.813920 -1.006947 0
M  V30 33 H 1.212132 1.642799 -0.541603 0
M  V30 34 H 0.296229 4.142982 -0.266675 0
M  V30 35 H 0.838099 6.219296 0.816763 0
M  V30 36 H -0.648463 5.502764 1.528492 0
M  V30 37 H 1.235541 6.556061 3.013528 0
M  V30 38 H 0.413086 5.080411 3.594718 0
M  V30 39 H 2.302569 3.751185 3.169580 0
M  V30 40 H 3.159894 5.304556 3.464139 0
M  V30 41 H 2.818832 5.751850 0.958768 0
M  V30 42 H 4.026400 4.536648 1.383683 0
M  V30 43 H 2.347842 2.748134 1.258697 0
M  V30 44 H 2.495758 3.657906 -0.359303 0
M  V30 45 H -1.664512 1.219444 2.577496 0
M  V30 46 H -1.881913 -1.127941 2.130511 0
M  V30 47 H -2.632454 -5.866885 1.579229 0
M  V30 END ATOM
M  V30 BEGIN BOND
M  V30 1 1 1 2
M  V30 2 2 2 3
M  V30 3 1 2 4
M  V30 4 2 4 5
M  V30 5 1 5 6
M  V30 6 2 6 7
M  V30 7 1 7 8
M  V30 8 1 8 9
M  V30 9 1 9 10
M  V30 10 2 10 11
M  V30 11 1 11 12
M  V30 12 2 12 13
M  V30 13 1 13 14
M  V30 14 2 14 15
M  V30 15 1 14 16
M  V30 16 1 16 17
M  V30 17 1 17 18
M  V30 18 1 18 19
M  V30 19 1 19 20
M  V30 20 1 20 21
M  V30 21 1 13 22
M  V30 22 2 22 23
M  V30 23 2 9 24
M  V30 24 1 24 25
M  V30 25 2 25 26
M  V30 26 1 26 4
M  V30 27 1 25 7
M  V30 28 1 23 10
M  V30 29 1 21 16
M  V30 30 1 1 27
M  V30 31 1 1 28
M  V30 32 1 5 29
M  V30 33 1 6 30
M  V30 34 1 8 31
M  V30 35 1 11 32
M  V30 36 1 12 33
M  V30 37 1 16 34
M  V30 38 1 17 35
M  V30 39 1 17 36
M  V30 40 1 18 37
M  V30 41 1 18 38
M  V30 42 1 19 39
M  V30 43 1 19 40
M  V30 44 1 20 41
M  V30 45 1 20 42
M  V30 46 1 21 43
M  V30 47 1 21 44
M  V30 48 1 22 45
M  V30 49 1 23 46
M  V30 50 1 26 47
M  V30 END BOND
M  V30 END CTAB
M  END
>  <Dataset>  (969) 
ChEMBL_Kinases

>  <Ligand_Instance>  (969) 
nan

>  <PDB_ID>  (969) 
nan

>  <Standardized_SMILES>  (969) 
NC(=O)c1ccc2[nH]c(-c3ccc(C(=O)C4CCCCC4)cc3)nc2c1

>  <Name>  (969) 
nan

>  <Pocket>  (969) 
nan

>  <ATP_Site>  (969) 
nan

>  <Peripheral>  (969) 
nan

>  <Num_H_Atoms_ProtBoundConf>  (969) 
nan

>  <Num_Resolved_Atoms>  (969) 
nan

>  <Num_Not_Resolved_Atoms>  (969) 
nan

$$$$
CHEMBL3944369
     RDKit          3D

  0  0  0  0  0  0  0  0  0  0999 V3000
M  V30 BEGIN CTAB
M  V30 COUNTS 135 138 0 0 0
M  V30 BEGIN ATOM
M  V30 1 C 4.977186 -1.994126 2.085011 0
M  V30 2 C 3.985728 -1.077018 1.424979 0
M  V30 3 O 2.788914 -0.818834 1.691631 0
M  V30 4 N 4.487001 -0.356458 0.271082 0
M  V30 5 C 5.840648 -0.441750 -0.302527 0
M  V30 6 C 5.579374 -0.535126 -1.778547 0
M  V30 7 C 4.145142 -0.031419 -1.971083 0
M  V30 8 C 3.892596 0.600055 -0.638553 0 CFG=1
M  V30 9 C 2.527902 0.995529 -0.344367 0
M  V30 10 O 2.143927 1.498996 0.731322 0
M  V30 11 N 1.515961 0.816126 -1.319147 0
M  V30 12 C 0.120103 1.065286 -1.440621 0 CFG=1
M  V30 13 C -0.351004 1.512347 -2.782171 0
M  V30 14 C 0.350010 2.787826 -3.202416 0
M  V30 15 C 0.140179 3.915634 -2.243398 0
M  V30 16 C -0.166256 3.174949 -4.586548 0
M  V30 17 C -0.681794 -0.099771 -0.909775 0
M  V30 18 O 0.036619 -0.911155 -0.265221 0
M  V30 19 N -2.068776 -0.343623 -1.068142 0
M  V30 20 C -2.452354 -1.583787 -0.387622 0 CFG=1
M  V30 21 C -3.938033 -1.573526 -0.197783 0
M  V30 22 C -4.521145 -2.754046 0.447031 0
M  V30 23 C -4.938833 -3.884085 -0.278094 0
M  V30 24 N -5.423440 -4.779617 0.583588 0
M  V30 25 C -5.307434 -4.218966 1.787363 0
M  V30 26 N -4.755281 -2.971381 1.738173 0
M  V30 27 C -4.577084 -2.221614 2.961517 0
M  V30 28 C -5.802891 -1.368855 3.248836 0
M  V30 29 C -5.766823 -0.618276 4.519454 0
M  V30 30 C -4.611118 0.325348 4.718808 0
M  V30 31 C -4.844730 0.975217 6.070354 0
M  V30 32 C -3.784590 1.940683 6.479012 0
M  V30 33 O -2.518615 1.283944 6.608867 0
M  V30 34 N -1.409875 1.931718 6.669020 0
M  V30 35 C -0.416967 2.495059 6.931365 0
M  V30 36 C 0.366931 3.048372 5.790875 0
M  V30 37 C 1.491333 2.776503 5.110603 0
M  V30 38 N 1.764566 3.588880 4.136103 0
M  V30 39 C 1.229983 4.515150 3.723353 0
M  V30 40 N 1.401408 5.454102 2.646473 0
M  V30 41 C 2.591332 5.166636 1.887675 0
M  V30 42 C 0.573300 6.550643 2.274879 0
M  V30 43 C -0.875745 6.165267 2.111110 0
M  V30 44 C -1.786574 6.470399 3.123734 0
M  V30 45 C -3.076986 6.029546 2.904095 0
M  V30 46 C -3.542117 5.335836 1.807588 0
M  V30 47 C -2.590528 5.062566 0.832142 0
M  V30 48 C -1.285775 5.472387 0.987935 0
M  V30 49 S -0.247978 4.572009 4.895734 0
M  V30 50 C -2.053891 -2.676465 -1.367225 0
M  V30 51 O -2.260670 -3.755815 -0.714525 0
M  V30 52 N -1.556072 -2.699559 -2.709961 0
M  V30 53 C -1.305721 -4.030619 -3.213946 0 CFG=1
M  V30 54 C -2.544748 -4.397887 -4.085601 0
M  V30 55 O -2.371541 -5.671657 -4.592392 0
M  V30 56 C -0.100760 -4.076979 -4.058396 0
M  V30 57 O 0.269666 -2.876770 -4.228197 0
M  V30 58 N 0.597898 -5.131037 -4.625999 0
M  V30 59 C 1.776571 -5.167505 -5.482254 0 CFG=2
M  V30 60 C 1.651652 -6.209629 -6.500099 0
M  V30 61 N 2.573765 -6.338332 -7.605669 0
M  V30 62 O 1.009607 -7.197566 -6.929954 0
M  V30 63 C 3.015325 -5.474942 -4.627263 0 CFG=1
M  V30 64 C 3.275717 -4.302825 -3.703327 0
M  V30 65 O 2.831733 -6.669615 -4.014922 0
M  V30 66 P 3.966329 -7.851881 -4.228363 0
M  V30 67 O 4.737682 -7.615813 -5.500464 0
M  V30 68 O 4.998401 -8.033063 -2.898205 0
M  V30 69 O 3.160759 -9.344812 -4.395769 0
M  V30 70 H 5.732905 -1.376648 2.564699 0
M  V30 71 H 4.454973 -2.595812 2.869058 0
M  V30 72 H 5.382882 -2.642969 1.263673 0
M  V30 73 H 6.378733 -1.329871 0.075206 0
M  V30 74 H 6.424797 0.461282 -0.037894 0
M  V30 75 H 5.629941 -1.564717 -2.141372 0
M  V30 76 H 6.251176 0.181198 -2.300045 0
M  V30 77 H 4.124670 0.748368 -2.762212 0
M  V30 78 H 3.437050 -0.834424 -2.144899 0
M  V30 79 H 4.604766 1.482363 -0.599425 0
M  V30 80 H 1.810027 0.375445 -2.238757 0
M  V30 81 H -0.128809 1.875098 -0.690739 0
M  V30 82 H -1.464889 1.687429 -2.778358 0
M  V30 83 H -0.202136 0.751637 -3.571124 0
M  V30 84 H 1.429525 2.532608 -3.274037 0
M  V30 85 H -0.900681 3.921063 -1.895433 0
M  V30 86 H 0.804878 3.828177 -1.351047 0
M  V30 87 H 0.431487 4.872450 -2.720025 0
M  V30 88 H -1.217866 2.828302 -4.663514 0
M  V30 89 H -0.115002 4.261371 -4.714817 0
M  V30 90 H 0.427635 2.596112 -5.304874 0
M  V30 91 H -2.569392 0.375105 -1.622462 0
M  V30 92 H -1.867495 -1.711130 0.523997 0
M  V30 93 H -4.287972 -0.626482 0.292483 0
M  V30 94 H -4.369980 -1.483157 -1.244417 0
M  V30 95 H -4.906048 -4.060039 -1.357895 0
M  V30 96 H -5.644281 -4.779877 2.659570 0
M  V30 97 H -4.432109 -2.919829 3.798223 0
M  V30 98 H -3.661670 -1.563419 2.893142 0
M  V30 99 H -6.084625 -0.749745 2.369530 0
M  V30 100 H -6.650066 -2.113046 3.332761 0
M  V30 101 H -5.834800 -1.297744 5.406542 0
M  V30 102 H -6.689309 0.039679 4.619189 0
M  V30 103 H -3.666974 -0.286677 4.763480 0
M  V30 104 H -4.473486 1.030427 3.898091 0
M  V30 105 H -5.819050 1.466001 6.041984 0
M  V30 106 H -4.851378 0.134838 6.823175 0
M  V30 107 H -4.052642 2.551945 7.343760 0
M  V30 108 H -3.629452 2.662832 5.615615 0
M  V30 109 H -0.476264 2.373122 7.969608 0
M  V30 110 H 1.941375 1.895459 5.538706 0
M  V30 111 H 2.434467 5.215890 0.785544 0
M  V30 112 H 3.008901 4.156215 2.084837 0
M  V30 113 H 3.428595 5.867038 2.190076 0
M  V30 114 H 0.603218 7.407335 2.996210 0
M  V30 115 H 0.890769 6.921764 1.307381 0
M  V30 116 H -1.521843 7.028276 4.014586 0
M  V30 117 H -3.779823 6.268129 3.701738 0
M  V30 118 H -4.590701 5.071765 1.812083 0
M  V30 119 H -3.011688 4.507374 -0.013170 0
M  V30 120 H -0.598010 5.231596 0.195410 0
M  V30 121 H -1.490630 -1.711867 -3.013166 0
M  V30 122 H -1.326745 -4.740365 -2.404925 0
M  V30 123 H -3.458413 -4.292846 -3.470162 0
M  V30 124 H -2.546286 -3.675467 -4.909203 0
M  V30 125 H -2.407287 -5.652799 -5.590504 0
M  V30 126 H 0.178946 -6.066722 -4.376216 0
M  V30 127 H 1.972429 -4.184409 -5.938458 0
M  V30 128 H 2.623006 -6.202484 -8.644371 0
M  V30 129 H 3.580342 -6.623624 -7.804065 0
M  V30 130 H 3.868628 -5.544286 -5.326992 0
M  V30 131 H 4.375890 -4.334755 -3.448170 0
M  V30 132 H 2.745756 -4.377021 -2.743339 0
M  V30 133 H 3.133468 -3.340239 -4.236528 0
M  V30 134 H 4.555695 -7.673315 -2.093914 0
M  V30 135 H 2.729679 -9.612417 -3.545950 0
M  V30 END ATOM
M  V30 BEGIN BOND
M  V30 1 1 1 2
M  V30 2 2 2 3
M  V30 3 1 2 4
M  V30 4 1 4 5
M  V30 5 1 5 6
M  V30 6 1 6 7
M  V30 7 1 7 8
M  V30 8 1 8 9
M  V30 9 2 9 10
M  V30 10 1 9 11
M  V30 11 1 11 12
M  V30 12 1 12 13
M  V30 13 1 13 14
M  V30 14 1 14 15
M  V30 15 1 14 16
M  V30 16 1 12 17
M  V30 17 2 17 18
M  V30 18 1 17 19
M  V30 19 1 19 20
M  V30 20 1 20 21
M  V30 21 1 21 22
M  V30 22 2 22 23
M  V30 23 1 23 24
M  V30 24 2 24 25
M  V30 25 1 25 26
M  V30 26 1 26 27
M  V30 27 1 27 28
M  V30 28 1 28 29
M  V30 29 1 29 30
M  V30 30 1 30 31
M  V30 31 1 31 32
M  V30 32 1 32 33
M  V30 33 1 33 34
M  V30 34 2 34 35
M  V30 35 1 35 36
M  V30 36 2 36 37
M  V30 37 1 37 38
M  V30 38 2 38 39
M  V30 39 1 39 40
M  V30 40 1 40 41
M  V30 41 1 40 42
M  V30 42 1 42 43
M  V30 43 2 43 44
M  V30 44 1 44 45
M  V30 45 2 45 46
M  V30 46 1 46 47
M  V30 47 2 47 48
M  V30 48 1 39 49
M  V30 49 1 20 50
M  V30 50 2 50 51
M  V30 51 1 50 52
M  V30 52 1 52 53
M  V30 53 1 53 54
M  V30 54 1 54 55
M  V30 55 1 53 56
M  V30 56 2 56 57
M  V30 57 1 56 58
M  V30 58 1 58 59
M  V30 59 1 59 60
M  V30 60 1 60 61
M  V30 61 2 60 62
M  V30 62 1 59 63
M  V30 63 1 63 64
M  V30 64 1 63 65
M  V30 65 1 65 66
M  V30 66 2 66 67
M  V30 67 1 66 68
M  V30 68 1 66 69
M  V30 69 1 8 4
M  V30 70 1 26 22
M  V30 71 1 49 36
M  V30 72 1 48 43
M  V30 73 1 1 70
M  V30 74 1 1 71
M  V30 75 1 1 72
M  V30 76 1 5 73
M  V30 77 1 5 74
M  V30 78 1 6 75
M  V30 79 1 6 76
M  V30 80 1 7 77
M  V30 81 1 7 78
M  V30 82 1 8 79 CFG=3
M  V30 83 1 11 80
M  V30 84 1 12 81 CFG=1
M  V30 85 1 13 82
M  V30 86 1 13 83
M  V30 87 1 14 84
M  V30 88 1 15 85
M  V30 89 1 15 86
M  V30 90 1 15 87
M  V30 91 1 16 88
M  V30 92 1 16 89
M  V30 93 1 16 90
M  V30 94 1 19 91
M  V30 95 1 20 92 CFG=1
M  V30 96 1 21 93
M  V30 97 1 21 94
M  V30 98 1 23 95
M  V30 99 1 25 96
M  V30 100 1 27 97
M  V30 101 1 27 98
M  V30 102 1 28 99
M  V30 103 1 28 100
M  V30 104 1 29 101
M  V30 105 1 29 102
M  V30 106 1 30 103
M  V30 107 1 30 104
M  V30 108 1 31 105
M  V30 109 1 31 106
M  V30 110 1 32 107
M  V30 111 1 32 108
M  V30 112 1 35 109
M  V30 113 1 37 110
M  V30 114 1 41 111
M  V30 115 1 41 112
M  V30 116 1 41 113
M  V30 117 1 42 114
M  V30 118 1 42 115
M  V30 119 1 44 116
M  V30 120 1 45 117
M  V30 121 1 46 118
M  V30 122 1 47 119
M  V30 123 1 48 120
M  V30 124 1 52 121
M  V30 125 1 53 122 CFG=1
M  V30 126 1 54 123
M  V30 127 1 54 124
M  V30 128 1 55 125
M  V30 129 1 58 126
M  V30 130 1 59 127 CFG=3
M  V30 131 1 61 128
M  V30 132 1 61 129
M  V30 133 1 63 130 CFG=3
M  V30 134 1 64 131
M  V30 135 1 64 132
M  V30 136 1 64 133
M  V30 137 1 68 134
M  V30 138 1 69 135
M  V30 END BOND
M  V30 END CTAB
M  END
>  <Dataset>  (970) 
ChEMBL_Kinases

>  <Ligand_Instance>  (970) 
nan

>  <PDB_ID>  (970) 
nan

>  <Standardized_SMILES>  (970) 
CC(=O)N1CCC[C@H]1C(=O)N[C@@H](CC(C)C)C(=O)N[C@@H](Cc1cncn1CCCCCCO/N=C/c1cnc(N(C)Cc2ccccc2)s1)C(=O)N[C@@H](CO)C(=O)N[C@H](C(N)=O)[C@@H](C)OP(=O)(O)O

>  <Name>  (970) 
nan

>  <Pocket>  (970) 
nan

>  <ATP_Site>  (970) 
nan

>  <Peripheral>  (970) 
nan

>  <Num_H_Atoms_ProtBoundConf>  (970) 
nan

>  <Num_Resolved_Atoms>  (970) 
nan

>  <Num_Not_Resolved_Atoms>  (970) 
nan

$$$$
CHEMBL3944315
     RDKit          3D

  0  0  0  0  0  0  0  0  0  0999 V3000
M  V30 BEGIN CTAB
M  V30 COUNTS 67 73 0 0 0
M  V30 BEGIN ATOM
M  V30 1 C 4.670706 -0.391438 -0.713124 0
M  V30 2 C 3.923745 0.402522 -1.757685 0 CFG=1
M  V30 3 C 2.842202 -0.356472 -2.416030 0
M  V30 4 N 3.126073 -1.520482 -3.123956 0
M  V30 5 C 3.559205 -2.679557 -2.443706 0
M  V30 6 C 3.314398 -3.913241 -3.301451 0
M  V30 7 O 3.930423 -3.660060 -4.521648 0
M  V30 8 C 3.101692 -2.781434 -5.231033 0
M  V30 9 C 2.462490 -1.736448 -4.365005 0
M  V30 10 N 3.309063 1.534020 -1.044003 0
M  V30 11 C 2.416800 1.407417 0.047515 0
M  V30 12 C 1.850344 2.536889 0.651304 0
M  V30 13 C 0.984593 2.397166 1.716349 0
M  V30 14 C 0.630160 1.177033 2.241112 0
M  V30 15 C -0.231887 1.002047 3.303139 0
M  V30 16 C -0.514448 -0.300971 3.745526 0
M  V30 17 N -1.370482 -0.523258 4.818208 0
M  V30 18 C -0.867796 -0.564589 6.072759 0
M  V30 19 N -1.838980 -0.789742 6.977401 0
M  V30 20 C -3.017518 -0.899914 6.296199 0
M  V30 21 C -4.315139 -1.129072 6.715156 0
M  V30 22 N -5.284180 -1.183805 5.754442 0
M  V30 23 C -4.962181 -1.017792 4.458691 0
M  V30 24 C -5.938227 -1.072637 3.491502 0
M  V30 25 N -5.666105 -0.912696 2.185707 0
M  V30 26 C -4.404474 -0.683764 1.714535 0
M  V30 27 C -4.197678 -0.520858 0.279885 0
M  V30 28 C -2.969414 -0.286162 -0.299176 0
M  V30 29 C -2.777469 -0.133022 -1.651495 0
M  V30 30 N -3.830328 -0.212224 -2.482174 0
M  V30 31 C -5.047011 -0.442033 -1.939081 0
M  V30 32 C -5.280261 -0.602587 -0.567866 0
M  V30 33 C -3.414418 -0.626174 2.675123 0
M  V30 34 C -3.676745 -0.788068 4.015867 0
M  V30 35 C -2.686998 -0.729934 4.969016 0
M  V30 36 C 0.091369 -1.384869 3.091145 0
M  V30 37 C 0.956804 -1.208142 2.025039 0
M  V30 38 C 1.208364 0.091242 1.620037 0
M  V30 39 N 2.051790 0.230347 0.582001 0
M  V30 40 H 4.067213 -1.187492 -0.250889 0
M  V30 41 H 5.665737 -0.748143 -1.096780 0
M  V30 42 H 4.959854 0.283759 0.144913 0
M  V30 43 H 4.703351 0.788428 -2.448700 0
M  V30 44 H 2.239831 0.321980 -3.090862 0
M  V30 45 H 2.092304 -0.627490 -1.616199 0
M  V30 46 H 4.592559 -2.642970 -2.075948 0
M  V30 47 H 2.883391 -2.809827 -1.552016 0
M  V30 48 H 3.746746 -4.769410 -2.766225 0
M  V30 49 H 2.221061 -4.013513 -3.443756 0
M  V30 50 H 2.336398 -3.461159 -5.709509 0
M  V30 51 H 3.664380 -2.354551 -6.095596 0
M  V30 52 H 2.342948 -0.752254 -4.858435 0
M  V30 53 H 1.428964 -2.086229 -4.135315 0
M  V30 54 H 3.546320 2.499140 -1.363398 0
M  V30 55 H 2.129485 3.486458 0.239710 0
M  V30 56 H 0.560310 3.294424 2.164034 0
M  V30 57 H -0.665491 1.870145 3.765089 0
M  V30 58 H 0.136804 -0.457351 6.506118 0
M  V30 59 H -4.573423 -1.261268 7.743245 0
M  V30 60 H -6.956198 -1.247166 3.756543 0
M  V30 61 H -2.089343 -0.212897 0.316409 0
M  V30 62 H -1.776587 0.051290 -2.049381 0
M  V30 63 H -5.881755 -0.501006 -2.633446 0
M  V30 64 H -6.280248 -0.780966 -0.239992 0
M  V30 65 H -2.461088 -0.448238 2.278365 0
M  V30 66 H -0.144390 -2.364799 3.452475 0
M  V30 67 H 1.383148 -2.096347 1.574096 0
M  V30 END ATOM
M  V30 BEGIN BOND
M  V30 1 1 1 2
M  V30 2 1 2 3
M  V30 3 1 3 4
M  V30 4 1 4 5
M  V30 5 1 5 6
M  V30 6 1 6 7
M  V30 7 1 7 8
M  V30 8 1 8 9
M  V30 9 1 2 10
M  V30 10 1 10 11
M  V30 11 2 11 12
M  V30 12 1 12 13
M  V30 13 2 13 14
M  V30 14 1 14 15
M  V30 15 2 15 16
M  V30 16 1 16 17
M  V30 17 1 17 18
M  V30 18 2 18 19
M  V30 19 1 19 20
M  V30 20 2 20 21
M  V30 21 1 21 22
M  V30 22 2 22 23
M  V30 23 1 23 24
M  V30 24 2 24 25
M  V30 25 1 25 26
M  V30 26 1 26 27
M  V30 27 2 27 28
M  V30 28 1 28 29
M  V30 29 2 29 30
M  V30 30 1 30 31
M  V30 31 2 31 32
M  V30 32 2 26 33
M  V30 33 1 33 34
M  V30 34 2 34 35
M  V30 35 1 16 36
M  V30 36 2 36 37
M  V30 37 1 37 38
M  V30 38 2 38 39
M  V30 39 1 9 4
M  V30 40 1 39 11
M  V30 41 1 38 14
M  V30 42 1 35 17
M  V30 43 1 35 20
M  V30 44 1 34 23
M  V30 45 1 32 27
M  V30 46 1 1 40
M  V30 47 1 1 41
M  V30 48 1 1 42
M  V30 49 1 2 43 CFG=3
M  V30 50 1 3 44
M  V30 51 1 3 45
M  V30 52 1 5 46
M  V30 53 1 5 47
M  V30 54 1 6 48
M  V30 55 1 6 49
M  V30 56 1 8 50
M  V30 57 1 8 51
M  V30 58 1 9 52
M  V30 59 1 9 53
M  V30 60 1 10 54
M  V30 61 1 12 55
M  V30 62 1 13 56
M  V30 63 1 15 57
M  V30 64 1 18 58
M  V30 65 1 21 59
M  V30 66 1 24 60
M  V30 67 1 28 61
M  V30 68 1 29 62
M  V30 69 1 31 63
M  V30 70 1 32 64
M  V30 71 1 33 65
M  V30 72 1 36 66
M  V30 73 1 37 67
M  V30 END BOND
M  V30 END CTAB
M  END
>  <Dataset>  (971) 
ChEMBL_Kinases

>  <Ligand_Instance>  (971) 
nan

>  <PDB_ID>  (971) 
nan

>  <Standardized_SMILES>  (971) 
C[C@@H](CN1CCOCC1)Nc1ccc2cc(-n3cnc4cnc5cnc(-c6ccncc6)cc5c43)ccc2n1

>  <Name>  (971) 
nan

>  <Pocket>  (971) 
nan

>  <ATP_Site>  (971) 
nan

>  <Peripheral>  (971) 
nan

>  <Num_H_Atoms_ProtBoundConf>  (971) 
nan

>  <Num_Resolved_Atoms>  (971) 
nan

>  <Num_Not_Resolved_Atoms>  (971) 
nan

$$$$
CHEMBL67166
     RDKit          3D

  0  0  0  0  0  0  0  0  0  0999 V3000
M  V30 BEGIN CTAB
M  V30 COUNTS 58 57 0 0 0
M  V30 BEGIN ATOM
M  V30 1 C -0.812194 -2.090082 3.648781 0
M  V30 2 C -0.953453 -3.142915 2.605333 0
M  V30 3 C 0.255138 -3.919100 2.249514 0
M  V30 4 C 1.358642 -3.157459 1.639908 0
M  V30 5 C 1.970207 -2.029829 2.405768 0
M  V30 6 C 3.136115 -1.512347 1.519938 0
M  V30 7 C 3.830797 -0.365683 2.096257 0
M  V30 8 C 3.225811 0.971981 2.226428 0
M  V30 9 C 2.944259 1.765041 1.028658 0
M  V30 10 C 2.019401 1.485358 -0.039086 0
M  V30 11 C 0.564149 1.479577 0.110912 0
M  V30 12 C -0.153387 0.609461 1.027456 0
M  V30 13 C -1.657484 0.899570 0.912273 0
M  V30 14 C -2.057151 0.613780 -0.486144 0
M  V30 15 C -2.990819 -0.330281 -0.727773 0
M  V30 16 C -3.590235 -0.837777 -1.965453 0 CFG=1
M  V30 17 O -4.883172 -0.314274 -2.178247 0
M  V30 18 C -2.823882 -0.591855 -3.220727 0 CFG=1
M  V30 19 N -2.687768 0.782108 -3.604584 0
M  V30 20 C -1.489463 -1.289849 -3.290553 0
M  V30 21 O -1.609718 -2.637752 -2.916080 0
M  V30 22 H -1.636365 -2.253152 4.413861 0
M  V30 23 H -0.907934 -1.052899 3.278922 0
M  V30 24 H 0.113457 -2.276941 4.231978 0
M  V30 25 H -1.781548 -3.840339 2.924284 0
M  V30 26 H -1.315678 -2.657859 1.655855 0
M  V30 27 H 0.607107 -4.564127 3.109690 0
M  V30 28 H -0.094679 -4.700174 1.495806 0
M  V30 29 H 1.064559 -2.790584 0.602704 0
M  V30 30 H 2.211690 -3.868217 1.377748 0
M  V30 31 H 1.280748 -1.219735 2.542929 0
M  V30 32 H 2.431031 -2.392452 3.357998 0
M  V30 33 H 3.841575 -2.400536 1.457829 0
M  V30 34 H 2.697612 -1.442521 0.532465 0
M  V30 35 H 4.856893 -0.274163 1.618921 0
M  V30 36 H 4.126481 -0.691604 3.159965 0
M  V30 37 H 2.358909 0.927653 2.953437 0
M  V30 38 H 3.970163 1.585912 2.838308 0
M  V30 39 H 3.985059 1.881525 0.518452 0
M  V30 40 H 2.847038 2.855480 1.407323 0
M  V30 41 H 2.214726 2.291719 -0.848770 0
M  V30 42 H 2.406692 0.578277 -0.617251 0
M  V30 43 H 0.142256 1.280997 -0.934891 0
M  V30 44 H 0.163953 2.538519 0.284725 0
M  V30 45 H 0.092512 0.751930 2.103152 0
M  V30 46 H -0.110712 -0.475990 0.816521 0
M  V30 47 H -1.871761 1.951894 1.167222 0
M  V30 48 H -2.144246 0.176094 1.580684 0
M  V30 49 H -1.759501 1.018791 -1.441408 0
M  V30 50 H -3.406962 -0.838909 0.166898 0
M  V30 51 H -3.733822 -1.952643 -1.903546 0
M  V30 52 H -5.385530 -0.410809 -1.352867 0
M  V30 53 H -3.436804 -1.070191 -4.046673 0
M  V30 54 H -3.459479 1.105285 -4.255927 0
M  V30 55 H -1.791797 0.867366 -4.171924 0
M  V30 56 H -1.134934 -1.317301 -4.341277 0
M  V30 57 H -0.787526 -0.828269 -2.602489 0
M  V30 58 H -2.504371 -2.917554 -3.235970 0
M  V30 END ATOM
M  V30 BEGIN BOND
M  V30 1 1 1 2
M  V30 2 1 2 3
M  V30 3 1 3 4
M  V30 4 1 4 5
M  V30 5 1 5 6
M  V30 6 1 6 7
M  V30 7 1 7 8
M  V30 8 1 8 9
M  V30 9 1 9 10
M  V30 10 1 10 11
M  V30 11 1 11 12
M  V30 12 1 12 13
M  V30 13 1 13 14
M  V30 14 2 14 15
M  V30 15 1 15 16
M  V30 16 1 16 17
M  V30 17 1 16 18
M  V30 18 1 18 19
M  V30 19 1 18 20
M  V30 20 1 20 21
M  V30 21 1 1 22
M  V30 22 1 1 23
M  V30 23 1 1 24
M  V30 24 1 2 25
M  V30 25 1 2 26
M  V30 26 1 3 27
M  V30 27 1 3 28
M  V30 28 1 4 29
M  V30 29 1 4 30
M  V30 30 1 5 31
M  V30 31 1 5 32
M  V30 32 1 6 33
M  V30 33 1 6 34
M  V30 34 1 7 35
M  V30 35 1 7 36
M  V30 36 1 8 37
M  V30 37 1 8 38
M  V30 38 1 9 39
M  V30 39 1 9 40
M  V30 40 1 10 41
M  V30 41 1 10 42
M  V30 42 1 11 43
M  V30 43 1 11 44
M  V30 44 1 12 45
M  V30 45 1 12 46
M  V30 46 1 13 47
M  V30 47 1 13 48
M  V30 48 1 14 49
M  V30 49 1 15 50
M  V30 50 1 16 51 CFG=1
M  V30 51 1 17 52
M  V30 52 1 18 53 CFG=3
M  V30 53 1 19 54
M  V30 54 1 19 55
M  V30 55 1 20 56
M  V30 56 1 20 57
M  V30 57 1 21 58
M  V30 END BOND
M  V30 END CTAB
M  END
>  <Dataset>  (972) 
ChEMBL_Kinases

>  <Ligand_Instance>  (972) 
nan

>  <PDB_ID>  (972) 
nan

>  <Standardized_SMILES>  (972) 
CCCCCCCCCCCCC/C=C/[C@@H](O)[C@@H](N)CO

>  <Name>  (972) 
SPHINGOSINE

>  <Pocket>  (972) 
nan

>  <ATP_Site>  (972) 
nan

>  <Peripheral>  (972) 
nan

>  <Num_H_Atoms_ProtBoundConf>  (972) 
nan

>  <Num_Resolved_Atoms>  (972) 
nan

>  <Num_Not_Resolved_Atoms>  (972) 
nan

$$$$
CHEMBL66953
     RDKit          3D

  0  0  0  0  0  0  0  0  0  0999 V3000
M  V30 BEGIN CTAB
M  V30 COUNTS 24 25 0 0 0
M  V30 BEGIN ATOM
M  V30 1 O 2.270938 -0.437722 2.805125 0
M  V30 2 C 1.342073 -0.895268 2.089920 0
M  V30 3 C 0.943766 -2.184811 2.442391 0
M  V30 4 O 1.085030 -2.511263 3.805106 0
M  V30 5 C 0.432581 -3.155673 1.596277 0
M  V30 6 C 0.008788 -3.018702 0.289134 0
M  V30 7 C -0.324199 -1.822177 -0.312991 0
M  V30 8 C 0.075889 -0.536206 -0.021506 0
M  V30 9 C -0.330682 0.424361 -0.926419 0
M  V30 10 C 0.019875 1.747250 -0.723698 0
M  V30 11 O -0.390414 2.705597 -1.633957 0
M  V30 12 C 0.777095 2.168450 0.368283 0
M  V30 13 O 1.134701 3.489460 0.582771 0
M  V30 14 C 1.197552 1.224334 1.290872 0
M  V30 15 O 1.952288 1.547274 2.405288 0
M  V30 16 C 0.835434 -0.100662 1.070314 0
M  V30 17 H 0.268839 -2.326070 4.408770 0
M  V30 18 H 0.359153 -4.148796 2.023678 0
M  V30 19 H -0.066570 -3.919202 -0.304216 0
M  V30 20 H -1.005621 -1.902741 -1.144049 0
M  V30 21 H -0.920056 0.108092 -1.779499 0
M  V30 22 H -1.366823 3.031877 -1.560603 0
M  V30 23 H 1.861686 3.861525 -0.020824 0
M  V30 24 H 2.690816 2.242816 2.403844 0
M  V30 END ATOM
M  V30 BEGIN BOND
M  V30 1 2 1 2
M  V30 2 1 2 3
M  V30 3 1 3 4
M  V30 4 2 3 5
M  V30 5 1 5 6
M  V30 6 2 6 7
M  V30 7 1 7 8
M  V30 8 2 8 9
M  V30 9 1 9 10
M  V30 10 1 10 11
M  V30 11 2 10 12
M  V30 12 1 12 13
M  V30 13 1 12 14
M  V30 14 1 14 15
M  V30 15 2 14 16
M  V30 16 1 16 2
M  V30 17 1 16 8
M  V30 18 1 4 17
M  V30 19 1 5 18
M  V30 20 1 6 19
M  V30 21 1 7 20
M  V30 22 1 9 21
M  V30 23 1 11 22
M  V30 24 1 13 23
M  V30 25 1 15 24
M  V30 END BOND
M  V30 END CTAB
M  END
>  <Dataset>  (973) 
ChEMBL_Kinases

>  <Ligand_Instance>  (973) 
nan

>  <PDB_ID>  (973) 
nan

>  <Standardized_SMILES>  (973) 
O=c1c(O)cccc2cc(O)c(O)c(O)c12

>  <Name>  (973) 
PURPUROGALLIN

>  <Pocket>  (973) 
nan

>  <ATP_Site>  (973) 
nan

>  <Peripheral>  (973) 
nan

>  <Num_H_Atoms_ProtBoundConf>  (973) 
nan

>  <Num_Resolved_Atoms>  (973) 
nan

>  <Num_Not_Resolved_Atoms>  (973) 
nan

$$$$
CHEMBL3943067
     RDKit          3D

  0  0  0  0  0  0  0  0  0  0999 V3000
M  V30 BEGIN CTAB
M  V30 COUNTS 49 54 0 0 0
M  V30 BEGIN ATOM
M  V30 1 O 4.330971 -0.229556 0.461608 0
M  V30 2 C 3.673002 0.842078 0.486817 0
M  V30 3 N 4.428659 2.043454 0.453510 0
M  V30 4 C 5.841763 1.783737 0.395708 0
M  V30 5 C 6.409417 1.691243 1.652547 0
M  V30 6 C 7.775861 1.441357 1.729962 0
M  V30 7 C 8.489687 1.299598 0.555951 0
M  V30 8 O 9.855459 1.050005 0.651138 0
M  V30 9 C 7.930823 1.390480 -0.700919 0
M  V30 10 C 6.556554 1.641981 -0.758637 0
M  V30 11 C 2.217010 0.773948 0.546968 0
M  V30 12 C 1.665024 -0.491110 0.572164 0
M  V30 13 C 0.271101 -0.553963 0.629735 0
M  V30 14 C -0.501195 0.585066 0.659356 0
M  V30 15 C -1.870992 0.747138 0.715478 0
M  V30 16 C -2.868183 -0.320617 0.758665 0
M  V30 17 N -2.600046 -1.638881 0.750276 0
M  V30 18 C -3.765436 -2.338716 0.799739 0
M  V30 19 C -3.982000 -3.701877 0.811448 0
M  V30 20 C -5.284282 -4.158498 0.866088 0
M  V30 21 C -5.431475 -5.528986 0.874975 0
M  V30 22 C -6.734520 -6.022131 0.929746 0
M  V30 23 C -7.785518 -5.114950 0.971243 0
M  V30 24 C -7.595101 -3.731774 0.960545 0
M  V30 25 C -6.301779 -3.229492 0.906157 0
M  V30 26 C -6.070885 -1.875677 0.893871 0
M  V30 27 C -4.762481 -1.380617 0.838903 0
M  V30 28 N -4.198623 -0.142058 0.813152 0
M  V30 29 N -2.117380 2.068908 0.723060 0
M  V30 30 N -0.960496 2.739431 0.674096 0
M  V30 31 C 0.069487 1.844904 0.633399 0
M  V30 32 C 1.447236 1.918465 0.576476 0
M  V30 33 H 3.912189 2.947774 0.473190 0
M  V30 34 H 5.879047 1.797114 2.584262 0
M  V30 35 H 8.255289 1.362432 2.703610 0
M  V30 36 H 10.297728 0.239878 0.215947 0
M  V30 37 H 8.476044 1.281981 -1.622279 0
M  V30 38 H 6.015206 1.732642 -1.691822 0
M  V30 39 H 2.246906 -1.401868 0.549940 0
M  V30 40 H -0.184993 -1.547682 0.650446 0
M  V30 41 H -3.102821 -4.358669 0.776527 0
M  V30 42 H -4.582087 -6.195486 0.841307 0
M  V30 43 H -6.919209 -7.087934 0.939570 0
M  V30 44 H -8.812821 -5.456969 1.014324 0
M  V30 45 H -8.445442 -3.069402 0.994268 0
M  V30 46 H -6.875215 -1.169135 0.925592 0
M  V30 47 H -4.763822 0.731858 0.834685 0
M  V30 48 H -0.810149 3.787902 0.665860 0
M  V30 49 H 1.875390 2.895224 0.556949 0
M  V30 END ATOM
M  V30 BEGIN BOND
M  V30 1 2 1 2
M  V30 2 1 2 3
M  V30 3 1 3 4
M  V30 4 2 4 5
M  V30 5 1 5 6
M  V30 6 2 6 7
M  V30 7 1 7 8
M  V30 8 1 7 9
M  V30 9 2 9 10
M  V30 10 1 2 11
M  V30 11 2 11 12
M  V30 12 1 12 13
M  V30 13 2 13 14
M  V30 14 1 14 15
M  V30 15 1 15 16
M  V30 16 2 16 17
M  V30 17 1 17 18
M  V30 18 2 18 19
M  V30 19 1 19 20
M  V30 20 2 20 21
M  V30 21 1 21 22
M  V30 22 2 22 23
M  V30 23 1 23 24
M  V30 24 2 24 25
M  V30 25 1 25 26
M  V30 26 2 26 27
M  V30 27 1 27 28
M  V30 28 2 15 29
M  V30 29 1 29 30
M  V30 30 1 30 31
M  V30 31 2 31 32
M  V30 32 1 10 4
M  V30 33 1 32 11
M  V30 34 1 31 14
M  V30 35 1 28 16
M  V30 36 1 27 18
M  V30 37 1 25 20
M  V30 38 1 3 33
M  V30 39 1 5 34
M  V30 40 1 6 35
M  V30 41 1 8 36
M  V30 42 1 9 37
M  V30 43 1 10 38
M  V30 44 1 12 39
M  V30 45 1 13 40
M  V30 46 1 19 41
M  V30 47 1 21 42
M  V30 48 1 22 43
M  V30 49 1 23 44
M  V30 50 1 24 45
M  V30 51 1 26 46
M  V30 52 1 28 47
M  V30 53 1 30 48
M  V30 54 1 32 49
M  V30 END BOND
M  V30 END CTAB
M  END
>  <Dataset>  (974) 
ChEMBL_Kinases

>  <Ligand_Instance>  (974) 
nan

>  <PDB_ID>  (974) 
nan

>  <Standardized_SMILES>  (974) 
O=C(Nc1ccc(O)cc1)c1ccc2c(-c3nc4cc5ccccc5cc4[nH]3)n[nH]c2c1

>  <Name>  (974) 
nan

>  <Pocket>  (974) 
nan

>  <ATP_Site>  (974) 
nan

>  <Peripheral>  (974) 
nan

>  <Num_H_Atoms_ProtBoundConf>  (974) 
nan

>  <Num_Resolved_Atoms>  (974) 
nan

>  <Num_Not_Resolved_Atoms>  (974) 
nan

$$$$
CHEMBL3944184
     RDKit          3D

  0  0  0  0  0  0  0  0  0  0999 V3000
M  V30 BEGIN CTAB
M  V30 COUNTS 55 59 0 0 0
M  V30 BEGIN ATOM
M  V30 1 C 6.332343 -3.990936 2.761125 0
M  V30 2 O 5.702846 -3.850004 1.506878 0
M  V30 3 C 4.567152 -3.029553 1.363566 0
M  V30 4 O 4.056349 -2.388949 2.318150 0
M  V30 5 N 4.041819 -2.984828 0.041608 0
M  V30 6 C 2.879217 -2.175591 -0.224580 0
M  V30 7 N 2.245643 -1.448720 0.703913 0
M  V30 8 C 1.193163 -0.800295 0.141738 0
M  V30 9 C 0.178059 0.076562 0.541473 0
M  V30 10 C -0.743292 0.521870 -0.414661 0
M  V30 11 C -1.713386 1.466167 0.171819 0
M  V30 12 O -2.450777 2.133941 -0.804993 0
M  V30 13 C -0.901032 2.464685 0.974360 0
M  V30 14 C -0.096992 3.379732 0.338161 0
M  V30 15 C 0.692678 4.190556 1.149639 0
M  V30 16 C 0.641827 4.050034 2.541273 0
M  V30 17 C -0.183330 3.117213 3.135065 0
M  V30 18 C -0.964750 2.316757 2.339282 0
M  V30 19 C -2.005138 1.291580 2.470395 0
M  V30 20 O -2.320025 0.896287 3.649022 0
M  V30 21 N -2.529675 0.875909 1.180816 0
M  V30 22 C -3.710174 0.103196 1.177118 0
M  V30 23 C -3.645659 -1.354158 1.303523 0
M  V30 24 C -2.950573 -2.126516 0.272017 0
M  V30 25 C -3.716479 -2.420969 -0.864252 0
M  V30 26 C -3.322139 -3.165231 -1.952515 0
M  V30 27 C -2.048407 -3.687135 -1.952445 0
M  V30 28 C -1.256081 -3.424758 -0.856252 0
M  V30 29 C -1.689860 -2.674319 0.212908 0
M  V30 30 C -0.668377 0.114259 -1.729995 0
M  V30 31 C 0.322412 -0.749792 -2.152947 0
M  V30 32 C 1.245883 -1.196822 -1.200631 0
M  V30 33 N 2.276953 -2.034153 -1.411023 0
M  V30 34 H 5.544775 -4.141539 3.526841 0
M  V30 35 H 6.918425 -3.110077 3.051552 0
M  V30 36 H 6.926489 -4.941259 2.774964 0
M  V30 37 H 4.479162 -3.528906 -0.758377 0
M  V30 38 H 0.236258 0.306975 1.574254 0
M  V30 39 H -3.255413 2.478014 -0.321073 0
M  V30 40 H 0.012954 3.563694 -0.710310 0
M  V30 41 H 1.385404 4.966301 0.805962 0
M  V30 42 H 1.224021 4.639947 3.241385 0
M  V30 43 H -0.278316 2.949202 4.196894 0
M  V30 44 H -4.393860 0.479218 2.009242 0
M  V30 45 H -4.351556 0.355674 0.260002 0
M  V30 46 H -4.688597 -1.816228 1.368785 0
M  V30 47 H -3.213136 -1.648776 2.328502 0
M  V30 48 H -4.749281 -2.051285 -0.964464 0
M  V30 49 H -3.939179 -3.362311 -2.793273 0
M  V30 50 H -1.592935 -4.278423 -2.707750 0
M  V30 51 H -0.223282 -3.796591 -0.759336 0
M  V30 52 H -1.107521 -2.438898 1.105779 0
M  V30 53 H -1.425624 0.512736 -2.390170 0
M  V30 54 H 0.376559 -1.065526 -3.184443 0
M  V30 55 H 2.599538 -2.508895 -2.277272 0
M  V30 END ATOM
M  V30 BEGIN BOND
M  V30 1 1 1 2
M  V30 2 1 2 3
M  V30 3 2 3 4
M  V30 4 1 3 5
M  V30 5 1 5 6
M  V30 6 2 6 7
M  V30 7 1 7 8
M  V30 8 2 8 9
M  V30 9 1 9 10
M  V30 10 1 10 11
M  V30 11 1 11 12
M  V30 12 1 11 13
M  V30 13 2 13 14
M  V30 14 1 14 15
M  V30 15 2 15 16
M  V30 16 1 16 17
M  V30 17 2 17 18
M  V30 18 1 18 19
M  V30 19 2 19 20
M  V30 20 1 19 21
M  V30 21 1 21 22
M  V30 22 1 22 23
M  V30 23 1 23 24
M  V30 24 2 24 25
M  V30 25 1 25 26
M  V30 26 2 26 27
M  V30 27 1 27 28
M  V30 28 2 28 29
M  V30 29 2 10 30
M  V30 30 1 30 31
M  V30 31 2 31 32
M  V30 32 1 32 33
M  V30 33 1 33 6
M  V30 34 1 32 8
M  V30 35 1 21 11
M  V30 36 1 29 24
M  V30 37 1 18 13
M  V30 38 1 1 34
M  V30 39 1 1 35
M  V30 40 1 1 36
M  V30 41 1 5 37
M  V30 42 1 9 38
M  V30 43 1 12 39
M  V30 44 1 14 40
M  V30 45 1 15 41
M  V30 46 1 16 42
M  V30 47 1 17 43
M  V30 48 1 22 44
M  V30 49 1 22 45
M  V30 50 1 23 46
M  V30 51 1 23 47
M  V30 52 1 25 48
M  V30 53 1 26 49
M  V30 54 1 27 50
M  V30 55 1 28 51
M  V30 56 1 29 52
M  V30 57 1 30 53
M  V30 58 1 31 54
M  V30 59 1 33 55
M  V30 END BOND
M  V30 END CTAB
M  END
>  <Dataset>  (975) 
ChEMBL_Kinases

>  <Ligand_Instance>  (975) 
nan

>  <PDB_ID>  (975) 
nan

>  <Standardized_SMILES>  (975) 
COC(=O)Nc1nc2cc(C3(O)c4ccccc4C(=O)N3CCc3ccccc3)ccc2[nH]1

>  <Name>  (975) 
nan

>  <Pocket>  (975) 
nan

>  <ATP_Site>  (975) 
nan

>  <Peripheral>  (975) 
nan

>  <Num_H_Atoms_ProtBoundConf>  (975) 
nan

>  <Num_Resolved_Atoms>  (975) 
nan

>  <Num_Not_Resolved_Atoms>  (975) 
nan

$$$$
CHEMBL3943985
     RDKit          3D

  0  0  0  0  0  0  0  0  0  0999 V3000
M  V30 BEGIN CTAB
M  V30 COUNTS 46 50 0 0 0
M  V30 BEGIN ATOM
M  V30 1 O 0.477821 -6.058428 0.474851 0
M  V30 2 S 1.524728 -6.088546 1.517057 0 VAL=6
M  V30 3 O 2.028504 -7.506228 1.741201 0
M  V30 4 N 2.858102 -5.108012 1.012690 0
M  V30 5 C 2.512890 -3.773875 0.766018 0
M  V30 6 C 3.417514 -2.909584 1.393126 0
M  V30 7 C 3.281373 -1.518603 1.310410 0
M  V30 8 C 2.196190 -1.056068 0.569062 0
M  V30 9 C 2.030075 0.387509 0.475743 0
M  V30 10 C 3.144325 1.218210 0.493626 0
M  V30 11 C 3.054195 2.589450 0.406434 0
M  V30 12 C 1.786031 3.161252 0.294954 0
M  V30 13 N 1.671233 4.491130 0.200823 0
M  V30 14 C 0.448548 5.022813 0.088072 0
M  V30 15 N -0.626327 4.263933 0.069471 0
M  V30 16 C -0.645170 2.916211 0.156469 0
M  V30 17 N -1.795433 2.190166 0.118701 0
M  V30 18 C -2.425432 0.987166 0.245443 0
M  V30 19 C -3.067211 0.348254 -0.831374 0
M  V30 20 C -3.741135 -0.854081 -0.787851 0
M  V30 21 C -3.752942 -1.437746 0.458281 0
M  V30 22 C -3.183452 -0.960327 1.613462 0
M  V30 23 N -3.070296 -1.339003 2.892275 0
M  V30 24 N -2.372086 -0.419315 3.572745 0
M  V30 25 C -2.030139 0.573905 2.697422 0
M  V30 26 C -2.541815 0.245977 1.432776 0
M  V30 27 C 0.632127 2.411434 0.269887 0
M  V30 28 C 0.828730 1.053403 0.362601 0
M  V30 29 C 1.280524 -1.862934 -0.065390 0
M  V30 30 C 1.472319 -3.222603 0.055820 0
M  V30 31 H 0.996878 -5.620470 2.695322 0
M  V30 32 H 3.809242 -5.523740 0.915180 0
M  V30 33 H 4.295210 -3.197206 1.993379 0
M  V30 34 H 3.969735 -0.827888 1.787542 0
M  V30 35 H 4.132311 0.822511 0.577876 0
M  V30 36 H 3.885015 3.274247 0.414856 0
M  V30 37 H 0.256840 6.103499 0.003281 0
M  V30 38 H -2.661443 2.783625 -0.103693 0
M  V30 39 H -3.008038 0.882674 -1.784342 0
M  V30 40 H -4.195131 -1.257147 -1.659575 0
M  V30 41 H -4.282011 -2.387133 0.493999 0
M  V30 42 H -3.497365 -2.247847 3.247753 0
M  V30 43 H -1.446933 1.455598 3.007211 0
M  V30 44 H -0.026785 0.403369 0.332735 0
M  V30 45 H 0.439050 -1.509405 -0.640785 0
M  V30 46 H 0.827929 -3.946616 -0.397639 0
M  V30 END ATOM
M  V30 BEGIN BOND
M  V30 1 2 1 2
M  V30 2 2 2 3
M  V30 3 1 2 4
M  V30 4 1 4 5
M  V30 5 2 5 6
M  V30 6 1 6 7
M  V30 7 2 7 8
M  V30 8 1 8 9
M  V30 9 2 9 10
M  V30 10 1 10 11
M  V30 11 2 11 12
M  V30 12 1 12 13
M  V30 13 2 13 14
M  V30 14 1 14 15
M  V30 15 2 15 16
M  V30 16 1 16 17
M  V30 17 1 17 18
M  V30 18 2 18 19
M  V30 19 1 19 20
M  V30 20 2 20 21
M  V30 21 1 21 22
M  V30 22 1 22 23
M  V30 23 1 23 24
M  V30 24 2 24 25
M  V30 25 1 25 26
M  V30 26 1 16 27
M  V30 27 2 27 28
M  V30 28 1 8 29
M  V30 29 2 29 30
M  V30 30 1 30 5
M  V30 31 1 28 9
M  V30 32 1 27 12
M  V30 33 1 26 18
M  V30 34 2 26 22
M  V30 35 1 2 31
M  V30 36 1 4 32
M  V30 37 1 6 33
M  V30 38 1 7 34
M  V30 39 1 10 35
M  V30 40 1 11 36
M  V30 41 1 14 37
M  V30 42 1 17 38
M  V30 43 1 19 39
M  V30 44 1 20 40
M  V30 45 1 21 41
M  V30 46 1 23 42
M  V30 47 1 25 43
M  V30 48 1 28 44
M  V30 49 1 29 45
M  V30 50 1 30 46
M  V30 END BOND
M  V30 END CTAB
M  END
>  <Dataset>  (976) 
ChEMBL_Kinases

>  <Ligand_Instance>  (976) 
nan

>  <PDB_ID>  (976) 
nan

>  <Standardized_SMILES>  (976) 
O=[SH](=O)Nc1ccc(-c2ccc3ncnc(Nc4cccc5[nH]ncc45)c3c2)cc1

>  <Name>  (976) 
nan

>  <Pocket>  (976) 
nan

>  <ATP_Site>  (976) 
nan

>  <Peripheral>  (976) 
nan

>  <Num_H_Atoms_ProtBoundConf>  (976) 
nan

>  <Num_Resolved_Atoms>  (976) 
nan

>  <Num_Not_Resolved_Atoms>  (976) 
nan

$$$$
CHEMBL3943846
     RDKit          3D

  0  0  0  0  0  0  0  0  0  0999 V3000
M  V30 BEGIN CTAB
M  V30 COUNTS 43 46 0 0 0
M  V30 BEGIN ATOM
M  V30 1 N -2.359946 -7.182508 2.757857 0
M  V30 2 C -1.249772 -7.496145 1.937161 0
M  V30 3 O -0.977842 -8.712437 1.766884 0
M  V30 4 C -0.465020 -6.452999 1.322899 0
M  V30 5 C 0.617764 -6.741669 0.522186 0
M  V30 6 C 1.406157 -5.781863 -0.092543 0
M  V30 7 C 1.087408 -4.434376 0.108942 0
M  V30 8 N 1.596870 -3.256468 -0.303426 0
M  V30 9 C 0.863422 -2.255896 0.217117 0
M  V30 10 C 1.015688 -0.809227 0.064164 0
M  V30 11 C 0.146908 0.089717 0.688611 0
M  V30 12 C 0.291694 1.455733 0.543409 0
M  V30 13 C 1.321110 1.955988 -0.238978 0
M  V30 14 C 1.517230 3.431994 -0.425514 0
M  V30 15 O 2.834454 3.789301 -0.294617 0
M  V30 16 C 0.710133 4.203744 0.551462 0
M  V30 17 C 1.122195 4.344509 1.857223 0
M  V30 18 C 0.319531 5.083556 2.731674 0
M  V30 19 C -0.876344 5.673292 2.309583 0
M  V30 20 Cl -1.816299 6.583276 3.483721 0
M  V30 21 C -1.243855 5.503497 0.995776 0
M  V30 22 C -0.467281 4.778099 0.114739 0
M  V30 23 C 2.200736 1.101330 -0.872723 0
M  V30 24 C 2.032983 -0.278049 -0.710007 0
M  V30 25 N -0.104933 -2.827376 0.955706 0
M  V30 26 C -0.000539 -4.180110 0.914441 0
M  V30 27 C -0.792345 -5.129686 1.531444 0
M  V30 28 H -2.582396 -6.564562 3.568711 0
M  V30 29 H -2.647488 -6.591585 3.563946 0
M  V30 30 H 0.867235 -7.802243 0.364642 0
M  V30 31 H 2.245403 -5.998362 -0.713355 0
M  V30 32 H 2.420023 -3.141716 -0.921211 0
M  V30 33 H -0.663963 -0.279621 1.304234 0
M  V30 34 H -0.397973 2.119890 1.040463 0
M  V30 35 H 1.218615 3.666428 -1.465887 0
M  V30 36 H 2.952919 4.389290 0.476722 0
M  V30 37 H 2.030880 3.911725 2.230545 0
M  V30 38 H 0.654671 5.189601 3.765170 0
M  V30 39 H -2.178710 5.970726 0.686775 0
M  V30 40 H -0.762325 4.648860 -0.916142 0
M  V30 41 H 3.024184 1.471971 -1.497763 0
M  V30 42 H 2.699195 -1.004998 -1.187838 0
M  V30 43 H -1.635409 -4.820013 2.152589 0
M  V30 END ATOM
M  V30 BEGIN BOND
M  V30 1 1 1 2
M  V30 2 2 2 3
M  V30 3 1 2 4
M  V30 4 2 4 5
M  V30 5 1 5 6
M  V30 6 2 6 7
M  V30 7 1 7 8
M  V30 8 1 8 9
M  V30 9 1 9 10
M  V30 10 2 10 11
M  V30 11 1 11 12
M  V30 12 2 12 13
M  V30 13 1 13 14
M  V30 14 1 14 15
M  V30 15 1 14 16
M  V30 16 2 16 17
M  V30 17 1 17 18
M  V30 18 2 18 19
M  V30 19 1 19 20
M  V30 20 1 19 21
M  V30 21 2 21 22
M  V30 22 1 13 23
M  V30 23 2 23 24
M  V30 24 2 9 25
M  V30 25 1 25 26
M  V30 26 2 26 27
M  V30 27 1 27 4
M  V30 28 1 26 7
M  V30 29 1 24 10
M  V30 30 1 22 16
M  V30 31 1 1 28
M  V30 32 1 1 29
M  V30 33 1 5 30
M  V30 34 1 6 31
M  V30 35 1 8 32
M  V30 36 1 11 33
M  V30 37 1 12 34
M  V30 38 1 14 35
M  V30 39 1 15 36
M  V30 40 1 17 37
M  V30 41 1 18 38
M  V30 42 1 21 39
M  V30 43 1 22 40
M  V30 44 1 23 41
M  V30 45 1 24 42
M  V30 46 1 27 43
M  V30 END BOND
M  V30 END CTAB
M  END
>  <Dataset>  (977) 
ChEMBL_Kinases

>  <Ligand_Instance>  (977) 
nan

>  <PDB_ID>  (977) 
nan

>  <Standardized_SMILES>  (977) 
NC(=O)c1ccc2[nH]c(-c3ccc(C(O)c4ccc(Cl)cc4)cc3)nc2c1

>  <Name>  (977) 
nan

>  <Pocket>  (977) 
nan

>  <ATP_Site>  (977) 
nan

>  <Peripheral>  (977) 
nan

>  <Num_H_Atoms_ProtBoundConf>  (977) 
nan

>  <Num_Resolved_Atoms>  (977) 
nan

>  <Num_Not_Resolved_Atoms>  (977) 
nan

$$$$
CHEMBL3943723
     RDKit          3D

  0  0  0  0  0  0  0  0  0  0999 V3000
M  V30 BEGIN CTAB
M  V30 COUNTS 52 56 0 0 0
M  V30 BEGIN ATOM
M  V30 1 C 1.740775 -7.966812 2.538030 0
M  V30 2 O 2.581807 -7.133339 1.760200 0
M  V30 3 C 2.223061 -5.875410 1.297221 0
M  V30 4 O 1.034160 -5.682207 1.721079 0
M  V30 5 N 3.074401 -5.044536 0.516049 0
M  V30 6 C 2.409490 -3.818521 0.200351 0
M  V30 7 N 2.320070 -2.600148 0.808121 0
M  V30 8 C 1.535136 -1.800067 0.036682 0
M  V30 9 C 1.139969 -0.489088 0.209608 0
M  V30 10 C 0.327555 0.051631 -0.765486 0
M  V30 11 C -0.124256 1.468029 -0.616225 0
M  V30 12 O -1.055044 1.795217 -1.597509 0
M  V30 13 C 1.048054 2.355307 -0.625328 0
M  V30 14 C 1.980267 2.611760 -1.628170 0
M  V30 15 C 3.032570 3.503845 -1.417188 0
M  V30 16 C 3.144634 4.135652 -0.198230 0
M  V30 17 C 2.233609 3.909858 0.837065 0
M  V30 18 C 1.197773 3.014097 0.589975 0
M  V30 19 C 0.115984 2.593204 1.472391 0
M  V30 20 O -0.067863 2.983652 2.651856 0
M  V30 21 N -0.663927 1.664563 0.715346 0
M  V30 22 C -1.823062 1.055173 1.286595 0
M  V30 23 C -2.985131 1.795582 1.054506 0
M  V30 24 C -4.219284 1.390098 1.517354 0
M  V30 25 C -4.339447 0.205705 2.243837 0
M  V30 26 C -5.612529 -0.347267 2.800319 0
M  V30 27 C -3.177580 -0.505120 2.458358 0
M  V30 28 C -1.946988 -0.099450 1.996066 0
M  V30 29 C -0.091536 -0.653437 -1.876318 0
M  V30 30 C 0.302080 -1.964674 -2.051926 0
M  V30 31 C 1.119674 -2.511350 -1.071989 0
M  V30 32 N 1.672244 -3.743404 -0.941639 0
M  V30 33 H 0.885200 -8.382463 1.970957 0
M  V30 34 H 2.340820 -8.752910 3.013893 0
M  V30 35 H 1.309844 -7.287293 3.329663 0
M  V30 36 H 4.029376 -5.396481 0.272956 0
M  V30 37 H 1.477106 0.051084 1.086211 0
M  V30 38 H -1.373331 2.710092 -1.352021 0
M  V30 39 H 1.867474 2.100960 -2.575905 0
M  V30 40 H 3.742345 3.680477 -2.222026 0
M  V30 41 H 3.956566 4.836404 -0.007568 0
M  V30 42 H 2.311012 4.402286 1.804198 0
M  V30 43 H -3.020466 2.719037 0.511422 0
M  V30 44 H -5.135760 1.938587 1.355400 0
M  V30 45 H -5.350910 -0.832614 3.765797 0
M  V30 46 H -6.356447 0.431882 3.024316 0
M  V30 47 H -6.003240 -1.143330 2.123835 0
M  V30 48 H -3.199221 -1.432023 3.013960 0
M  V30 49 H -1.011563 -0.621896 2.139974 0
M  V30 50 H -0.729836 -0.173694 -2.608408 0
M  V30 51 H -0.006127 -2.548232 -2.908718 0
M  V30 52 H 1.504834 -4.494961 -1.675247 0
M  V30 END ATOM
M  V30 BEGIN BOND
M  V30 1 1 1 2
M  V30 2 1 2 3
M  V30 3 2 3 4
M  V30 4 1 3 5
M  V30 5 1 5 6
M  V30 6 2 6 7
M  V30 7 1 7 8
M  V30 8 2 8 9
M  V30 9 1 9 10
M  V30 10 1 10 11
M  V30 11 1 11 12
M  V30 12 1 11 13
M  V30 13 2 13 14
M  V30 14 1 14 15
M  V30 15 2 15 16
M  V30 16 1 16 17
M  V30 17 2 17 18
M  V30 18 1 18 19
M  V30 19 2 19 20
M  V30 20 1 19 21
M  V30 21 1 21 22
M  V30 22 2 22 23
M  V30 23 1 23 24
M  V30 24 2 24 25
M  V30 25 1 25 26
M  V30 26 1 25 27
M  V30 27 2 27 28
M  V30 28 2 10 29
M  V30 29 1 29 30
M  V30 30 2 30 31
M  V30 31 1 31 32
M  V30 32 1 32 6
M  V30 33 1 31 8
M  V30 34 1 21 11
M  V30 35 1 28 22
M  V30 36 1 18 13
M  V30 37 1 1 33
M  V30 38 1 1 34
M  V30 39 1 1 35
M  V30 40 1 5 36
M  V30 41 1 9 37
M  V30 42 1 12 38
M  V30 43 1 14 39
M  V30 44 1 15 40
M  V30 45 1 16 41
M  V30 46 1 17 42
M  V30 47 1 23 43
M  V30 48 1 24 44
M  V30 49 1 26 45
M  V30 50 1 26 46
M  V30 51 1 26 47
M  V30 52 1 27 48
M  V30 53 1 28 49
M  V30 54 1 29 50
M  V30 55 1 30 51
M  V30 56 1 32 52
M  V30 END BOND
M  V30 END CTAB
M  END
>  <Dataset>  (978) 
ChEMBL_Kinases

>  <Ligand_Instance>  (978) 
nan

>  <PDB_ID>  (978) 
nan

>  <Standardized_SMILES>  (978) 
COC(=O)Nc1nc2cc(C3(O)c4ccccc4C(=O)N3c3ccc(C)cc3)ccc2[nH]1

>  <Name>  (978) 
nan

>  <Pocket>  (978) 
nan

>  <ATP_Site>  (978) 
nan

>  <Peripheral>  (978) 
nan

>  <Num_H_Atoms_ProtBoundConf>  (978) 
nan

>  <Num_Resolved_Atoms>  (978) 
nan

>  <Num_Not_Resolved_Atoms>  (978) 
nan

$$$$
CHEMBL3943675
     RDKit          3D

  0  0  0  0  0  0  0  0  0  0999 V3000
M  V30 BEGIN CTAB
M  V30 COUNTS 66 70 0 0 0
M  V30 BEGIN ATOM
M  V30 1 C 3.554582 -4.468628 4.424765 0
M  V30 2 C 3.297140 -3.057190 3.982701 0
M  V30 3 C 3.813572 -1.975384 4.704997 0
M  V30 4 C 3.577378 -0.661709 4.298843 0
M  V30 5 C 2.823077 -0.406831 3.166940 0
M  V30 6 C 2.611037 0.966860 2.794398 0
M  V30 7 O 3.104269 1.881177 3.489780 0
M  V30 8 N 1.856569 1.305713 1.658378 0
M  V30 9 C 1.504317 2.558139 1.082594 0
M  V30 10 C 0.381635 3.333175 1.350595 0
M  V30 11 C 0.450270 4.474448 0.557171 0
M  V30 12 C -0.585583 5.533629 0.579477 0
M  V30 13 C -0.294119 6.662149 -0.358875 0
M  V30 14 C -0.641756 6.102936 1.984491 0
M  V30 15 C -1.962455 4.939866 0.274045 0
M  V30 16 N 1.583770 4.364940 -0.153344 0
M  V30 17 N 2.217059 3.234617 0.148576 0
M  V30 18 C 2.350210 -1.493102 2.509569 0
M  V30 19 C 2.549825 -2.812607 2.861585 0
M  V30 20 N 1.989474 -3.858644 2.072452 0
M  V30 21 C 1.034018 -3.683987 1.131358 0
M  V30 22 C 0.757512 -4.923681 0.592495 0
M  V30 23 C -0.197517 -5.272873 -0.456190 0
M  V30 24 C -0.299596 -6.595317 -0.833781 0
M  V30 25 N -1.191842 -6.868122 -1.802160 0
M  V30 26 C -1.960727 -5.940069 -2.396321 0
M  V30 27 C -1.893097 -4.607310 -2.051771 0
M  V30 28 N -2.692612 -3.600504 -2.659544 0
M  V30 29 C -2.652859 -2.182689 -2.357430 0
M  V30 30 C -3.997390 -1.794819 -1.758685 0
M  V30 31 O -5.021664 -2.377216 -2.466097 0
M  V30 32 C -4.686471 -2.831551 -3.725201 0
M  V30 33 C -3.654496 -3.964625 -3.681488 0
M  V30 34 C -0.984533 -4.315690 -1.062849 0
M  V30 35 N 1.551849 -5.807210 1.222358 0
M  V30 36 N 2.294424 -5.143911 2.118837 0
M  V30 37 H 4.127094 -5.012545 3.649681 0
M  V30 38 H 2.560636 -4.985431 4.480326 0
M  V30 39 H 4.022315 -4.500945 5.408641 0
M  V30 40 H 4.404835 -2.199887 5.593336 0
M  V30 41 H 3.996772 0.146499 4.888308 0
M  V30 42 H 1.411608 0.602769 1.025861 0
M  V30 43 H -0.393842 3.068186 2.058899 0
M  V30 44 H 0.425482 7.384393 0.084631 0
M  V30 45 H -1.257423 7.239097 -0.454798 0
M  V30 46 H -0.030491 6.347923 -1.386097 0
M  V30 47 H -0.903440 7.195458 1.964678 0
M  V30 48 H -1.405664 5.597228 2.605944 0
M  V30 49 H 0.371001 6.070798 2.468602 0
M  V30 50 H -2.002040 4.748124 -0.816021 0
M  V30 51 H -2.087115 3.982928 0.837173 0
M  V30 52 H -2.741183 5.679217 0.527271 0
M  V30 53 H 3.114514 2.882989 -0.240819 0
M  V30 54 H 1.754484 -1.321699 1.616864 0
M  V30 55 H 0.537782 -2.785637 0.809444 0
M  V30 56 H 0.272857 -7.409409 -0.416853 0
M  V30 57 H -2.644599 -6.267396 -3.163651 0
M  V30 58 H -2.584599 -1.641203 -3.342542 0
M  V30 59 H -1.814736 -1.866948 -1.737935 0
M  V30 60 H -4.101423 -0.677852 -1.707481 0
M  V30 61 H -4.034142 -2.150681 -0.712514 0
M  V30 62 H -4.338408 -1.968533 -4.323797 0
M  V30 63 H -5.607651 -3.281797 -4.151369 0
M  V30 64 H -4.138765 -4.936986 -3.523314 0
M  V30 65 H -3.108619 -3.915355 -4.667029 0
M  V30 66 H -0.833727 -3.311589 -0.700872 0
M  V30 END ATOM
M  V30 BEGIN BOND
M  V30 1 1 1 2
M  V30 2 2 2 3
M  V30 3 1 3 4
M  V30 4 2 4 5
M  V30 5 1 5 6
M  V30 6 2 6 7
M  V30 7 1 6 8
M  V30 8 1 8 9
M  V30 9 2 9 10
M  V30 10 1 10 11
M  V30 11 1 11 12
M  V30 12 1 12 13
M  V30 13 1 12 14
M  V30 14 1 12 15
M  V30 15 2 11 16
M  V30 16 1 16 17
M  V30 17 1 5 18
M  V30 18 2 18 19
M  V30 19 1 19 20
M  V30 20 1 20 21
M  V30 21 2 21 22
M  V30 22 1 22 23
M  V30 23 2 23 24
M  V30 24 1 24 25
M  V30 25 2 25 26
M  V30 26 1 26 27
M  V30 27 1 27 28
M  V30 28 1 28 29
M  V30 29 1 29 30
M  V30 30 1 30 31
M  V30 31 1 31 32
M  V30 32 1 32 33
M  V30 33 2 27 34
M  V30 34 1 22 35
M  V30 35 2 35 36
M  V30 36 1 19 2
M  V30 37 1 36 20
M  V30 38 1 17 9
M  V30 39 1 34 23
M  V30 40 1 33 28
M  V30 41 1 1 37
M  V30 42 1 1 38
M  V30 43 1 1 39
M  V30 44 1 3 40
M  V30 45 1 4 41
M  V30 46 1 8 42
M  V30 47 1 10 43
M  V30 48 1 13 44
M  V30 49 1 13 45
M  V30 50 1 13 46
M  V30 51 1 14 47
M  V30 52 1 14 48
M  V30 53 1 14 49
M  V30 54 1 15 50
M  V30 55 1 15 51
M  V30 56 1 15 52
M  V30 57 1 17 53
M  V30 58 1 18 54
M  V30 59 1 21 55
M  V30 60 1 24 56
M  V30 61 1 26 57
M  V30 62 1 29 58
M  V30 63 1 29 59
M  V30 64 1 30 60
M  V30 65 1 30 61
M  V30 66 1 32 62
M  V30 67 1 32 63
M  V30 68 1 33 64
M  V30 69 1 33 65
M  V30 70 1 34 66
M  V30 END BOND
M  V30 END CTAB
M  END
>  <Dataset>  (979) 
ChEMBL_Kinases

>  <Ligand_Instance>  (979) 
nan

>  <PDB_ID>  (979) 
nan

>  <Standardized_SMILES>  (979) 
Cc1ccc(C(=O)Nc2cc(C(C)(C)C)n[nH]2)cc1-n1cc(-c2cncc(N3CCOCC3)c2)nn1

>  <Name>  (979) 
nan

>  <Pocket>  (979) 
nan

>  <ATP_Site>  (979) 
nan

>  <Peripheral>  (979) 
nan

>  <Num_H_Atoms_ProtBoundConf>  (979) 
nan

>  <Num_Resolved_Atoms>  (979) 
nan

>  <Num_Not_Resolved_Atoms>  (979) 
nan

$$$$
CHEMBL3943495
     RDKit          3D

  0  0  0  0  0  0  0  0  0  0999 V3000
M  V30 BEGIN CTAB
M  V30 COUNTS 44 47 0 0 0
M  V30 BEGIN ATOM
M  V30 1 C 0.869255 -2.617866 -0.315613 0
M  V30 2 C 1.857765 -2.002842 -1.269323 0
M  V30 3 C 3.278160 -2.247102 -0.884371 0 CFG=2
M  V30 4 C 3.436644 -3.775089 -0.881206 0
M  V30 5 N 3.700607 -1.768844 0.380488 0
M  V30 6 C 4.524419 -2.384447 1.255605 0
M  V30 7 N 4.709174 -1.650076 2.348624 0
M  V30 8 N 4.001799 -0.543360 2.191435 0
M  V30 9 C 3.377392 -0.603074 0.987154 0
M  V30 10 C 2.505651 0.447533 0.471449 0
M  V30 11 C 2.882689 1.425208 -0.431042 0
M  V30 12 C 1.915317 2.335574 -0.802480 0
M  V30 13 C 0.647100 2.230144 -0.268574 0
M  V30 14 C 0.265452 1.258526 0.630790 0
M  V30 15 N -1.042134 1.148725 1.182119 0
M  V30 16 C -1.417069 0.113579 2.129181 0
M  V30 17 C -2.846017 0.430597 2.388379 0
M  V30 18 C -3.657262 -0.293370 3.246181 0
M  V30 19 C -4.981644 0.063757 3.436581 0
M  V30 20 C -5.436058 1.162241 2.734614 0
M  V30 21 C -4.637405 1.892721 1.876174 0
M  V30 22 C -3.306360 1.528792 1.688754 0
M  V30 23 C -2.155924 1.992987 0.914576 0
M  V30 24 O -2.246354 2.985950 0.166097 0
M  V30 25 N 1.248143 0.407127 0.950442 0
M  V30 26 H 0.488316 -3.618802 -0.657093 0
M  V30 27 H 1.294986 -2.778824 0.682133 0
M  V30 28 H -0.066587 -1.992588 -0.237394 0
M  V30 29 H 1.730033 -2.556038 -2.241346 0
M  V30 30 H 1.617817 -0.952221 -1.532418 0
M  V30 31 H 3.921254 -1.917182 -1.733667 0
M  V30 32 H 3.351840 -4.160555 0.154953 0
M  V30 33 H 2.669492 -4.270586 -1.501341 0
M  V30 34 H 4.433746 -4.069205 -1.254305 0
M  V30 35 H 4.982791 -3.355924 1.096028 0
M  V30 36 H 3.906707 1.407058 -0.780979 0
M  V30 37 H 2.192917 3.106821 -1.507354 0
M  V30 38 H -0.059180 2.966872 -0.596397 0
M  V30 39 H -0.821205 0.268756 3.063431 0
M  V30 40 H -1.284440 -0.909996 1.726002 0
M  V30 41 H -3.342085 -1.160654 3.815928 0
M  V30 42 H -5.685651 -0.441659 4.084402 0
M  V30 43 H -6.467461 1.472492 2.857635 0
M  V30 44 H -4.958746 2.754027 1.313335 0
M  V30 END ATOM
M  V30 BEGIN BOND
M  V30 1 1 1 2
M  V30 2 1 2 3
M  V30 3 1 3 4
M  V30 4 1 3 5
M  V30 5 1 5 6
M  V30 6 2 6 7
M  V30 7 1 7 8
M  V30 8 2 8 9
M  V30 9 1 9 10
M  V30 10 2 10 11
M  V30 11 1 11 12
M  V30 12 2 12 13
M  V30 13 1 13 14
M  V30 14 1 14 15
M  V30 15 1 15 16
M  V30 16 1 16 17
M  V30 17 2 17 18
M  V30 18 1 18 19
M  V30 19 2 19 20
M  V30 20 1 20 21
M  V30 21 2 21 22
M  V30 22 1 22 23
M  V30 23 2 23 24
M  V30 24 2 14 25
M  V30 25 1 9 5
M  V30 26 1 25 10
M  V30 27 1 23 15
M  V30 28 1 22 17
M  V30 29 1 1 26
M  V30 30 1 1 27
M  V30 31 1 1 28
M  V30 32 1 2 29
M  V30 33 1 2 30
M  V30 34 1 3 31 CFG=3
M  V30 35 1 4 32
M  V30 36 1 4 33
M  V30 37 1 4 34
M  V30 38 1 6 35
M  V30 39 1 11 36
M  V30 40 1 12 37
M  V30 41 1 13 38
M  V30 42 1 16 39
M  V30 43 1 16 40
M  V30 44 1 18 41
M  V30 45 1 19 42
M  V30 46 1 20 43
M  V30 47 1 21 44
M  V30 END BOND
M  V30 END CTAB
M  END
>  <Dataset>  (980) 
ChEMBL_Kinases

>  <Ligand_Instance>  (980) 
nan

>  <PDB_ID>  (980) 
nan

>  <Standardized_SMILES>  (980) 
CC[C@H](C)n1cnnc1-c1cccc(N2Cc3ccccc3C2=O)n1

>  <Name>  (980) 
nan

>  <Pocket>  (980) 
nan

>  <ATP_Site>  (980) 
nan

>  <Peripheral>  (980) 
nan

>  <Num_H_Atoms_ProtBoundConf>  (980) 
nan

>  <Num_Resolved_Atoms>  (980) 
nan

>  <Num_Not_Resolved_Atoms>  (980) 
nan

$$$$
CHEMBL3943487
     RDKit          3D

  0  0  0  0  0  0  0  0  0  0999 V3000
M  V30 BEGIN CTAB
M  V30 COUNTS 71 75 0 0 0
M  V30 BEGIN ATOM
M  V30 1 C 4.040698 1.753554 1.081783 0
M  V30 2 C 3.369421 0.725547 0.187815 0 CFG=1
M  V30 3 C 3.958389 -0.655059 0.351397 0
M  V30 4 N 2.956799 -1.550282 0.724532 0
M  V30 5 C 2.725663 -2.757448 0.114360 0
M  V30 6 C 2.180301 -2.691901 -1.280236 0
M  V30 7 C 2.005357 -4.136583 -1.746183 0
M  V30 8 C 1.402672 -4.147637 -3.111975 0
M  V30 9 O 2.321792 -3.574548 -3.989250 0
M  V30 10 C 2.418005 -2.244861 -3.661564 0
M  V30 11 C 3.044424 -2.007374 -2.280627 0
M  V30 12 C 2.388481 -1.272862 1.996287 0
M  V30 13 C 1.927584 0.169188 1.942083 0
M  V30 14 N 1.949252 0.714905 0.582265 0
M  V30 15 C 1.038856 1.219070 -0.421488 0
M  V30 16 O 1.548236 1.608317 -1.531016 0
M  V30 17 N -0.393088 1.306007 -0.242908 0
M  V30 18 C -1.168699 0.926419 0.930342 0
M  V30 19 C -2.563361 1.240316 0.495914 0
M  V30 20 C -3.861433 1.186645 0.963255 0
M  V30 21 N -4.331050 0.724664 2.243578 0
M  V30 22 C -4.582869 -0.667667 2.115507 0
M  V30 23 O -4.347896 -1.143608 0.970493 0
M  V30 24 C -5.074767 -1.560573 3.167154 0
M  V30 25 C -5.240033 -2.878711 2.815141 0
M  V30 26 C -5.699957 -3.808973 3.734986 0
M  V30 27 C -5.993756 -3.396890 5.020571 0
M  V30 28 C -5.810749 -2.062601 5.323400 0
M  V30 29 C -5.353674 -1.106804 4.430951 0
M  V30 30 N -4.651807 1.667211 -0.037850 0
M  V30 31 N -3.880818 1.996637 -1.060894 0
M  V30 32 C -2.593313 1.751645 -0.777796 0
M  V30 33 C -1.230380 1.830258 -1.333229 0
M  V30 34 C -0.807476 3.235807 -1.694197 0
M  V30 35 C -1.172761 0.949781 -2.558266 0
M  V30 36 H 4.792947 2.341688 0.515797 0
M  V30 37 H 4.635218 1.234068 1.876760 0
M  V30 38 H 3.311608 2.455668 1.490900 0
M  V30 39 H 3.507292 1.100873 -0.850623 0
M  V30 40 H 4.661882 -0.550631 1.240773 0
M  V30 41 H 4.642080 -0.956205 -0.466515 0
M  V30 42 H 1.964058 -3.342269 0.711053 0
M  V30 43 H 3.595555 -3.468925 0.063662 0
M  V30 44 H 1.172435 -2.230404 -1.330145 0
M  V30 45 H 1.343409 -4.639638 -1.015254 0
M  V30 46 H 3.025247 -4.580952 -1.804219 0
M  V30 47 H 0.444983 -3.593698 -3.063137 0
M  V30 48 H 1.218776 -5.182643 -3.446267 0
M  V30 49 H 3.011917 -1.673636 -4.427901 0
M  V30 50 H 1.437135 -1.730740 -3.633069 0
M  V30 51 H 3.009312 -0.881006 -2.186532 0
M  V30 52 H 4.054592 -2.421469 -2.254537 0
M  V30 53 H 1.620738 -1.984961 2.310547 0
M  V30 54 H 3.195604 -1.307725 2.783979 0
M  V30 55 H 0.923087 0.238700 2.397798 0
M  V30 56 H 2.585027 0.854382 2.549746 0
M  V30 57 H -1.089440 -0.131863 1.193859 0
M  V30 58 H -0.934992 1.556455 1.813231 0
M  V30 59 H -4.519136 1.142760 3.184493 0
M  V30 60 H -5.025483 -3.272909 1.811972 0
M  V30 61 H -5.828683 -4.851236 3.450147 0
M  V30 62 H -6.351063 -4.109703 5.742503 0
M  V30 63 H -6.048717 -1.755347 6.347177 0
M  V30 64 H -5.220245 -0.070250 4.696641 0
M  V30 65 H -4.275465 2.391120 -1.948443 0
M  V30 66 H -0.034653 3.158223 -2.465995 0
M  V30 67 H -0.442804 3.731409 -0.770322 0
M  V30 68 H -1.711028 3.776613 -2.035895 0
M  V30 69 H -1.570374 1.547305 -3.398257 0
M  V30 70 H -0.141446 0.669875 -2.812224 0
M  V30 71 H -1.840140 0.066050 -2.466436 0
M  V30 END ATOM
M  V30 BEGIN BOND
M  V30 1 1 1 2
M  V30 2 1 2 3
M  V30 3 1 3 4
M  V30 4 1 4 5
M  V30 5 1 5 6
M  V30 6 1 6 7
M  V30 7 1 7 8
M  V30 8 1 8 9
M  V30 9 1 9 10
M  V30 10 1 10 11
M  V30 11 1 4 12
M  V30 12 1 12 13
M  V30 13 1 13 14
M  V30 14 1 14 15
M  V30 15 2 15 16
M  V30 16 1 15 17
M  V30 17 1 17 18
M  V30 18 1 18 19
M  V30 19 1 19 20
M  V30 20 1 20 21
M  V30 21 1 21 22
M  V30 22 2 22 23
M  V30 23 1 22 24
M  V30 24 2 24 25
M  V30 25 1 25 26
M  V30 26 2 26 27
M  V30 27 1 27 28
M  V30 28 2 28 29
M  V30 29 2 20 30
M  V30 30 1 30 31
M  V30 31 1 31 32
M  V30 32 1 32 33
M  V30 33 1 33 34
M  V30 34 1 33 35
M  V30 35 1 14 2
M  V30 36 1 33 17
M  V30 37 1 11 6
M  V30 38 2 32 19
M  V30 39 1 29 24
M  V30 40 1 1 36
M  V30 41 1 1 37
M  V30 42 1 1 38
M  V30 43 1 2 39 CFG=3
M  V30 44 1 3 40
M  V30 45 1 3 41
M  V30 46 1 5 42
M  V30 47 1 5 43
M  V30 48 1 6 44
M  V30 49 1 7 45
M  V30 50 1 7 46
M  V30 51 1 8 47
M  V30 52 1 8 48
M  V30 53 1 10 49
M  V30 54 1 10 50
M  V30 55 1 11 51
M  V30 56 1 11 52
M  V30 57 1 12 53
M  V30 58 1 12 54
M  V30 59 1 13 55
M  V30 60 1 13 56
M  V30 61 1 18 57
M  V30 62 1 18 58
M  V30 63 1 21 59
M  V30 64 1 25 60
M  V30 65 1 26 61
M  V30 66 1 27 62
M  V30 67 1 28 63
M  V30 68 1 29 64
M  V30 69 1 31 65
M  V30 70 1 34 66
M  V30 71 1 34 67
M  V30 72 1 34 68
M  V30 73 1 35 69
M  V30 74 1 35 70
M  V30 75 1 35 71
M  V30 END BOND
M  V30 END CTAB
M  END
>  <Dataset>  (981) 
ChEMBL_Kinases

>  <Ligand_Instance>  (981) 
nan

>  <PDB_ID>  (981) 
nan

>  <Standardized_SMILES>  (981) 
C[C@H]1CN(CC2CCOCC2)CCN1C(=O)N1Cc2c(NC(=O)c3ccccc3)n[nH]c2C1(C)C

>  <Name>  (981) 
nan

>  <Pocket>  (981) 
nan

>  <ATP_Site>  (981) 
nan

>  <Peripheral>  (981) 
nan

>  <Num_H_Atoms_ProtBoundConf>  (981) 
nan

>  <Num_Resolved_Atoms>  (981) 
nan

>  <Num_Not_Resolved_Atoms>  (981) 
nan

$$$$
CHEMBL3943400
     RDKit          3D

  0  0  0  0  0  0  0  0  0  0999 V3000
M  V30 BEGIN CTAB
M  V30 COUNTS 39 42 0 0 0
M  V30 BEGIN ATOM
M  V30 1 C 1.631304 1.070311 1.097070 0
M  V30 2 C 1.370723 -0.153107 1.466837 0
M  V30 3 C 0.562991 -1.258690 1.023837 0
M  V30 4 N 0.568026 -2.432388 1.725631 0
M  V30 5 N -0.227845 -3.294838 1.156699 0
M  V30 6 C -0.819543 -2.794866 0.058117 0
M  V30 7 C -1.716657 -3.263847 -0.880618 0
M  V30 8 C -2.109630 -2.429013 -1.907705 0
M  V30 9 C -3.057973 -2.906239 -2.909453 0
M  V30 10 C -3.000065 -2.437019 -4.209176 0
M  V30 11 C -3.884747 -2.870556 -5.177269 0
M  V30 12 C -4.863996 -3.806458 -4.838776 0
M  V30 13 C -4.888860 -4.252146 -3.525598 0
M  V30 14 C -4.009166 -3.826135 -2.547410 0
M  V30 15 C -1.594374 -1.146730 -1.968395 0
M  V30 16 C -0.701264 -0.711442 -1.015131 0
M  V30 17 C -0.306494 -1.518007 -0.002124 0
M  V30 18 C 2.500294 2.073558 1.683697 0
M  V30 19 C 3.263259 1.909547 2.815272 0
M  V30 20 C 4.081324 2.872982 3.357841 0
M  V30 21 C 4.132542 4.085742 2.713248 0
M  V30 22 C 3.378217 4.294632 1.566866 0
M  V30 23 C 2.575944 3.298674 1.064984 0
M  V30 24 H 1.083335 1.318291 0.205925 0
M  V30 25 H 1.982902 -0.281330 2.374357 0
M  V30 26 H -0.356905 -4.249943 1.547486 0
M  V30 27 H -2.083006 -4.292117 -0.768923 0
M  V30 28 H -2.234510 -1.704062 -4.477852 0
M  V30 29 H -3.854236 -2.509461 -6.214601 0
M  V30 30 H -5.570814 -4.164435 -5.576191 0
M  V30 31 H -5.628495 -4.972881 -3.227696 0
M  V30 32 H -4.089810 -4.220173 -1.539342 0
M  V30 33 H -1.922172 -0.532583 -2.776576 0
M  V30 34 H -0.333587 0.288808 -1.109078 0
M  V30 35 H 3.236589 0.967373 3.333826 0
M  V30 36 H 4.658252 2.688887 4.248926 0
M  V30 37 H 4.761206 4.874655 3.101806 0
M  V30 38 H 3.410244 5.253343 1.046347 0
M  V30 39 H 2.004884 3.522002 0.158949 0
M  V30 END ATOM
M  V30 BEGIN BOND
M  V30 1 2 1 2
M  V30 2 1 2 3
M  V30 3 2 3 4
M  V30 4 1 4 5
M  V30 5 1 5 6
M  V30 6 2 6 7
M  V30 7 1 7 8
M  V30 8 1 8 9
M  V30 9 2 9 10
M  V30 10 1 10 11
M  V30 11 2 11 12
M  V30 12 1 12 13
M  V30 13 2 13 14
M  V30 14 2 8 15
M  V30 15 1 15 16
M  V30 16 2 16 17
M  V30 17 1 1 18
M  V30 18 2 18 19
M  V30 19 1 19 20
M  V30 20 2 20 21
M  V30 21 1 21 22
M  V30 22 2 22 23
M  V30 23 1 17 3
M  V30 24 1 23 18
M  V30 25 1 17 6
M  V30 26 1 14 9
M  V30 27 1 1 24
M  V30 28 1 2 25
M  V30 29 1 5 26
M  V30 30 1 7 27
M  V30 31 1 10 28
M  V30 32 1 11 29
M  V30 33 1 12 30
M  V30 34 1 13 31
M  V30 35 1 14 32
M  V30 36 1 15 33
M  V30 37 1 16 34
M  V30 38 1 19 35
M  V30 39 1 20 36
M  V30 40 1 21 37
M  V30 41 1 22 38
M  V30 42 1 23 39
M  V30 END BOND
M  V30 END CTAB
M  END
>  <Dataset>  (982) 
ChEMBL_Kinases

>  <Ligand_Instance>  (982) 
nan

>  <PDB_ID>  (982) 
nan

>  <Standardized_SMILES>  (982) 
C(=C/c1n[nH]c2cc(-c3ccccc3)ccc12)\c1ccccc1

>  <Name>  (982) 
nan

>  <Pocket>  (982) 
nan

>  <ATP_Site>  (982) 
nan

>  <Peripheral>  (982) 
nan

>  <Num_H_Atoms_ProtBoundConf>  (982) 
nan

>  <Num_Resolved_Atoms>  (982) 
nan

>  <Num_Not_Resolved_Atoms>  (982) 
nan

$$$$
CHEMBL3943352
     RDKit          3D

  0  0  0  0  0  0  0  0  0  0999 V3000
M  V30 BEGIN CTAB
M  V30 COUNTS 53 57 0 0 0
M  V30 BEGIN ATOM
M  V30 1 O -1.738405 -3.809684 1.633131 0
M  V30 2 C -1.517940 -2.561852 1.672483 0
M  V30 3 C -0.138004 -2.099374 1.563601 0
M  V30 4 C 0.358944 -0.890814 1.572055 0
M  V30 5 C 1.767201 -0.558238 1.454253 0
M  V30 6 C 2.776528 -1.452852 1.362062 0
M  V30 7 N 4.077909 -1.099675 1.231110 0
M  V30 8 C 4.461291 0.180510 1.182604 0
M  V30 9 N 5.622293 0.862096 1.056494 0
M  V30 10 C 5.383834 2.183755 1.064738 0
M  V30 11 C 4.025726 2.393275 1.200282 0
M  V30 12 C 3.323841 3.675418 1.253302 0
M  V30 13 C 3.745371 4.532439 0.252297 0
M  V30 14 C 3.174269 5.784057 0.168748 0
M  V30 15 C 2.206390 6.269533 1.003962 0
M  V30 16 C 1.815047 5.361553 2.000031 0
M  V30 17 C 2.353504 4.099592 2.127445 0
M  V30 18 C 3.475071 1.134110 1.272155 0
M  V30 19 C 2.137482 0.768848 1.407118 0
M  V30 20 N -2.669934 -1.740084 1.821246 0
M  V30 21 C -4.045414 -2.011634 1.915500 0
M  V30 22 C -4.816681 -2.575251 0.810070 0
M  V30 23 C -4.490862 -3.819535 0.172929 0
M  V30 24 C -5.007021 -5.096796 0.400359 0
M  V30 25 N -4.414462 -5.987308 -0.411276 0
M  V30 26 C -3.503565 -5.396646 -1.201531 0
M  V30 27 C -2.625897 -5.763482 -2.185654 0
M  V30 28 C -1.778583 -4.908217 -2.853715 0
M  V30 29 C -1.885812 -3.577767 -2.434094 0
M  V30 30 C -2.741728 -3.137306 -1.455431 0
M  V30 31 C -3.567756 -4.075005 -0.827443 0
M  V30 32 H 0.631237 -2.850027 1.455813 0
M  V30 33 H -0.394189 -0.103757 1.679937 0
M  V30 34 H 2.593972 -2.498189 1.389145 0
M  V30 35 H 6.493579 0.308613 0.974234 0
M  V30 36 H 6.171541 2.943963 0.975639 0
M  V30 37 H 4.507616 4.327828 -0.509343 0
M  V30 38 H 3.483463 6.488597 -0.610977 0
M  V30 39 H 1.762023 7.251573 0.933460 0
M  V30 40 H 1.053826 5.665518 2.704089 0
M  V30 41 H 2.088243 3.377808 2.866490 0
M  V30 42 H 1.377239 1.543344 1.475361 0
M  V30 43 H -2.325939 -0.724230 1.858393 0
M  V30 44 H -4.555671 -1.034956 2.197665 0
M  V30 45 H -4.195459 -2.608450 2.883873 0
M  V30 46 H -4.922537 -1.806571 -0.037031 0
M  V30 47 H -5.902169 -2.623050 1.174137 0
M  V30 48 H -5.778270 -5.368901 1.123303 0
M  V30 49 H -4.553728 -7.035243 -0.514819 0
M  V30 50 H -2.609685 -6.806712 -2.446016 0
M  V30 51 H -1.102240 -5.221416 -3.618036 0
M  V30 52 H -1.245740 -2.829912 -2.917134 0
M  V30 53 H -2.753682 -2.093479 -1.199411 0
M  V30 END ATOM
M  V30 BEGIN BOND
M  V30 1 2 1 2
M  V30 2 1 2 3
M  V30 3 2 3 4
M  V30 4 1 4 5
M  V30 5 2 5 6
M  V30 6 1 6 7
M  V30 7 2 7 8
M  V30 8 1 8 9
M  V30 9 1 9 10
M  V30 10 2 10 11
M  V30 11 1 11 12
M  V30 12 2 12 13
M  V30 13 1 13 14
M  V30 14 2 14 15
M  V30 15 1 15 16
M  V30 16 2 16 17
M  V30 17 1 11 18
M  V30 18 2 18 19
M  V30 19 1 2 20
M  V30 20 1 20 21
M  V30 21 1 21 22
M  V30 22 1 22 23
M  V30 23 2 23 24
M  V30 24 1 24 25
M  V30 25 1 25 26
M  V30 26 2 26 27
M  V30 27 1 27 28
M  V30 28 2 28 29
M  V30 29 1 29 30
M  V30 30 2 30 31
M  V30 31 1 19 5
M  V30 32 1 31 23
M  V30 33 1 18 8
M  V30 34 1 31 26
M  V30 35 1 17 12
M  V30 36 1 3 32
M  V30 37 1 4 33
M  V30 38 1 6 34
M  V30 39 1 9 35
M  V30 40 1 10 36
M  V30 41 1 13 37
M  V30 42 1 14 38
M  V30 43 1 15 39
M  V30 44 1 16 40
M  V30 45 1 17 41
M  V30 46 1 19 42
M  V30 47 1 20 43
M  V30 48 1 21 44
M  V30 49 1 21 45
M  V30 50 1 22 46
M  V30 51 1 22 47
M  V30 52 1 24 48
M  V30 53 1 25 49
M  V30 54 1 27 50
M  V30 55 1 28 51
M  V30 56 1 29 52
M  V30 57 1 30 53
M  V30 END BOND
M  V30 END CTAB
M  END
>  <Dataset>  (983) 
ChEMBL_Kinases

>  <Ligand_Instance>  (983) 
nan

>  <PDB_ID>  (983) 
nan

>  <Standardized_SMILES>  (983) 
O=C(/C=C/c1cnc2[nH]cc(-c3ccccc3)c2c1)NCCc1c[nH]c2ccccc12

>  <Name>  (983) 
nan

>  <Pocket>  (983) 
nan

>  <ATP_Site>  (983) 
nan

>  <Peripheral>  (983) 
nan

>  <Num_H_Atoms_ProtBoundConf>  (983) 
nan

>  <Num_Resolved_Atoms>  (983) 
nan

>  <Num_Not_Resolved_Atoms>  (983) 
nan

$$$$
CHEMBL3943237
     RDKit          3D

  0  0  0  0  0  0  0  0  0  0999 V3000
M  V30 BEGIN CTAB
M  V30 COUNTS 60 64 0 0 0
M  V30 BEGIN ATOM
M  V30 1 C 1.864323 1.720992 5.327851 0
M  V30 2 O 1.700585 2.123630 3.961045 0
M  V30 3 C 2.732531 1.711159 3.099125 0
M  V30 4 C 3.835253 0.978159 3.483411 0
M  V30 5 C 4.774733 0.644273 2.513722 0
M  V30 6 C 4.609768 1.039271 1.182735 0
M  V30 7 F 5.593281 0.657804 0.306517 0
M  V30 8 C 3.484154 1.780379 0.822421 0
M  V30 9 C 2.556094 2.107709 1.791570 0
M  V30 10 C 1.440967 2.879083 1.255218 0
M  V30 11 C 1.395817 4.272369 1.181855 0
M  V30 12 C 2.517758 4.991886 1.667165 0
M  V30 13 N 3.447448 5.576618 2.068297 0
M  V30 14 C 0.272565 4.851240 0.648280 0
M  V30 15 N -0.802584 4.165914 0.184404 0
M  V30 16 C -0.815020 2.813047 0.229898 0
M  V30 17 N -1.672777 1.837116 -0.125010 0
M  V30 18 C -1.162595 0.623709 0.152559 0
M  V30 19 C -1.797939 -0.686581 -0.087349 0
M  V30 20 C -2.999489 -0.701532 -0.632999 0
M  V30 21 C -3.592338 -2.014834 -0.987932 0
M  V30 22 C -4.214505 -2.654034 0.227996 0
M  V30 23 C -3.012108 -3.123724 1.004679 0
M  V30 24 C -1.884730 -3.115067 -0.025357 0
M  V30 25 C -1.040213 -1.907043 0.304261 0
M  V30 26 N -2.506535 -2.916063 -1.293702 0
M  V30 27 C -2.978509 -4.142734 -1.907237 0
M  V30 28 C -1.826394 -4.939456 -2.345449 0
M  V30 29 O -2.437409 -5.973913 -2.811045 0
M  V30 30 N -0.421268 -5.045424 -2.466135 0
M  V30 31 C 0.593163 -4.085764 -2.099078 0
M  V30 32 C 0.168757 -6.270398 -3.025499 0
M  V30 33 C 0.079066 0.862904 0.709789 0
M  V30 34 C 0.310724 2.228738 0.764808 0
M  V30 35 H 2.808387 2.098549 5.755384 0
M  V30 36 H 1.900347 0.613935 5.363896 0
M  V30 37 H 1.056055 2.126297 5.942374 0
M  V30 38 H 3.916008 0.699263 4.520499 0
M  V30 39 H 5.647729 0.059962 2.835590 0
M  V30 40 H 3.421712 2.053688 -0.229012 0
M  V30 41 H 0.254119 5.945068 0.598934 0
M  V30 42 H -2.611007 2.026760 -0.560808 0
M  V30 43 H -3.558826 0.222932 -0.825817 0
M  V30 44 H -4.314543 -1.926913 -1.828704 0
M  V30 45 H -4.841731 -3.523751 -0.077838 0
M  V30 46 H -4.808870 -1.919493 0.820507 0
M  V30 47 H -3.163682 -4.122276 1.462125 0
M  V30 48 H -2.848846 -2.383485 1.820073 0
M  V30 49 H -1.308826 -4.054442 0.082518 0
M  V30 50 H -0.139602 -1.917051 -0.337201 0
M  V30 51 H -0.773796 -1.879737 1.389094 0
M  V30 52 H -3.538487 -3.813647 -2.832390 0
M  V30 53 H -3.643557 -4.705602 -1.206988 0
M  V30 54 H 1.574504 -4.266359 -2.622228 0
M  V30 55 H 0.782052 -4.181866 -1.016317 0
M  V30 56 H 0.229793 -3.063597 -2.358120 0
M  V30 57 H 0.520615 -6.107479 -4.063604 0
M  V30 58 H 1.040296 -6.585274 -2.426848 0
M  V30 59 H -0.582454 -7.085366 -3.055650 0
M  V30 60 H 0.726712 0.055485 1.034588 0
M  V30 END ATOM
M  V30 BEGIN BOND
M  V30 1 1 1 2
M  V30 2 1 2 3
M  V30 3 2 3 4
M  V30 4 1 4 5
M  V30 5 2 5 6
M  V30 6 1 6 7
M  V30 7 1 6 8
M  V30 8 2 8 9
M  V30 9 1 9 10
M  V30 10 2 10 11
M  V30 11 1 11 12
M  V30 12 3 12 13
M  V30 13 1 11 14
M  V30 14 2 14 15
M  V30 15 1 15 16
M  V30 16 1 16 17
M  V30 17 1 17 18
M  V30 18 1 18 19
M  V30 19 2 19 20
M  V30 20 1 20 21
M  V30 21 1 21 22
M  V30 22 1 22 23
M  V30 23 1 23 24
M  V30 24 1 24 25
M  V30 25 1 24 26
M  V30 26 1 26 27
M  V30 27 1 27 28
M  V30 28 2 28 29
M  V30 29 1 28 30
M  V30 30 1 30 31
M  V30 31 1 30 32
M  V30 32 2 18 33
M  V30 33 1 33 34
M  V30 34 1 9 3
M  V30 35 1 34 10
M  V30 36 2 34 16
M  V30 37 1 25 19
M  V30 38 1 26 21
M  V30 39 1 1 35
M  V30 40 1 1 36
M  V30 41 1 1 37
M  V30 42 1 4 38
M  V30 43 1 5 39
M  V30 44 1 8 40
M  V30 45 1 14 41
M  V30 46 1 17 42
M  V30 47 1 20 43
M  V30 48 1 21 44
M  V30 49 1 22 45
M  V30 50 1 22 46
M  V30 51 1 23 47
M  V30 52 1 23 48
M  V30 53 1 24 49
M  V30 54 1 25 50
M  V30 55 1 25 51
M  V30 56 1 27 52
M  V30 57 1 27 53
M  V30 58 1 31 54
M  V30 59 1 31 55
M  V30 60 1 31 56
M  V30 61 1 32 57
M  V30 62 1 32 58
M  V30 63 1 32 59
M  V30 64 1 33 60
M  V30 END BOND
M  V30 END CTAB
M  END
>  <Dataset>  (984) 
ChEMBL_Kinases

>  <Ligand_Instance>  (984) 
nan

>  <PDB_ID>  (984) 
nan

>  <Standardized_SMILES>  (984) 
COc1ccc(F)cc1-c1c(C#N)cnc2[nH]c(C3=CC4CCC(C3)N4CC(=O)N(C)C)cc12

>  <Name>  (984) 
nan

>  <Pocket>  (984) 
nan

>  <ATP_Site>  (984) 
nan

>  <Peripheral>  (984) 
nan

>  <Num_H_Atoms_ProtBoundConf>  (984) 
nan

>  <Num_Resolved_Atoms>  (984) 
nan

>  <Num_Not_Resolved_Atoms>  (984) 
nan

$$$$
CHEMBL4875570
     RDKit          3D

  0  0  0  0  0  0  0  0  0  0999 V3000
M  V30 BEGIN CTAB
M  V30 COUNTS 61 65 0 0 0
M  V30 BEGIN ATOM
M  V30 1 C 2.063271 -6.743716 4.142555 0
M  V30 2 C 1.578467 -5.869697 3.263657 0
M  V30 3 C 0.442279 -4.928825 3.188247 0
M  V30 4 N 0.869157 -3.554788 3.014425 0
M  V30 5 C 1.132116 -2.702941 4.038857 0
M  V30 6 O 1.066683 -2.910504 5.265661 0
M  V30 7 C 1.507807 -1.492018 3.488691 0
M  V30 8 C 1.886451 -0.268066 3.999108 0
M  V30 9 N 2.202449 0.749548 3.145994 0
M  V30 10 C 2.137917 0.537266 1.816515 0
M  V30 11 N 2.425994 1.465777 0.778356 0
M  V30 12 C 1.382982 2.286312 0.266149 0
M  V30 13 C 1.619148 3.204254 -0.752669 0
M  V30 14 C 0.623627 4.008313 -1.263267 0
M  V30 15 C -0.630366 3.898074 -0.751931 0
M  V30 16 C -0.919898 2.996910 0.266570 0
M  V30 17 C 0.089697 2.180696 0.785358 0
M  V30 18 C -2.281570 2.889678 0.811285 0
M  V30 19 N -3.333020 3.000778 -0.152268 0
M  V30 20 C -2.912796 3.565465 -1.412038 0
M  V30 21 C -1.876312 4.633934 -1.115238 0
M  V30 22 N 1.769112 -0.654951 1.313341 0
M  V30 23 C 1.442592 -1.706678 2.113686 0
M  V30 24 N 1.047105 -2.983747 1.855184 0
M  V30 25 C 0.904292 -3.443101 0.531737 0
M  V30 26 C 1.579894 -4.420053 -0.169914 0
M  V30 27 C 1.255214 -4.690516 -1.469797 0
M  V30 28 C 0.250175 -4.010653 -2.137281 0
M  V30 29 C -0.415372 -3.028798 -1.403186 0
M  V30 30 C -1.503912 -2.281910 -2.106419 0
M  V30 31 C -0.959395 -1.050136 -2.795677 0
M  V30 32 C -2.478595 -1.789902 -1.049431 0
M  V30 33 O -2.092953 -3.135649 -3.027427 0
M  V30 34 N -0.084809 -2.771435 -0.119456 0
M  V30 35 H 1.198063 -6.353706 4.670200 0
M  V30 36 H 1.796961 -7.093944 5.147500 0
M  V30 37 H 2.343311 -6.062274 2.522176 0
M  V30 38 H -0.260254 -5.168987 2.364382 0
M  V30 39 H -0.152274 -5.039404 4.117549 0
M  V30 40 H 1.936539 -0.103338 5.056653 0
M  V30 41 H 3.379208 1.574799 0.369272 0
M  V30 42 H 2.600129 3.320742 -1.183667 0
M  V30 43 H 0.715191 4.735410 -2.039797 0
M  V30 44 H -0.073855 1.456670 1.581714 0
M  V30 45 H -2.389146 3.671558 1.596920 0
M  V30 46 H -2.407646 1.917110 1.353004 0
M  V30 47 H -3.759056 2.055525 -0.347426 0
M  V30 48 H -3.817101 4.013458 -1.903986 0
M  V30 49 H -2.466051 2.786653 -2.073626 0
M  V30 50 H -2.246585 5.250947 -0.259527 0
M  V30 51 H -1.746535 5.253060 -2.004637 0
M  V30 52 H 2.343958 -4.893617 0.431543 0
M  V30 53 H 1.846084 -5.484690 -1.949685 0
M  V30 54 H 0.026415 -4.252535 -3.156115 0
M  V30 55 H -1.617341 -0.729086 -3.626348 0
M  V30 56 H 0.046064 -1.207284 -3.231563 0
M  V30 57 H -0.889059 -0.181245 -2.103049 0
M  V30 58 H -2.431143 -2.480348 -0.182224 0
M  V30 59 H -3.516611 -1.807695 -1.450438 0
M  V30 60 H -2.194082 -0.787542 -0.669150 0
M  V30 61 H -3.080436 -3.029774 -2.953623 0
M  V30 END ATOM
M  V30 BEGIN BOND
M  V30 1 2 1 2
M  V30 2 1 2 3
M  V30 3 1 3 4
M  V30 4 1 4 5
M  V30 5 2 5 6
M  V30 6 1 5 7
M  V30 7 2 7 8
M  V30 8 1 8 9
M  V30 9 2 9 10
M  V30 10 1 10 11
M  V30 11 1 11 12
M  V30 12 2 12 13
M  V30 13 1 13 14
M  V30 14 2 14 15
M  V30 15 1 15 16
M  V30 16 2 16 17
M  V30 17 1 16 18
M  V30 18 1 18 19
M  V30 19 1 19 20
M  V30 20 1 20 21
M  V30 21 1 10 22
M  V30 22 2 22 23
M  V30 23 1 23 24
M  V30 24 1 24 25
M  V30 25 2 25 26
M  V30 26 1 26 27
M  V30 27 2 27 28
M  V30 28 1 28 29
M  V30 29 1 29 30
M  V30 30 1 30 31
M  V30 31 1 30 32
M  V30 32 1 30 33
M  V30 33 2 29 34
M  V30 34 1 24 4
M  V30 35 1 34 25
M  V30 36 1 23 7
M  V30 37 1 17 12
M  V30 38 1 21 15
M  V30 39 1 1 35
M  V30 40 1 1 36
M  V30 41 1 2 37
M  V30 42 1 3 38
M  V30 43 1 3 39
M  V30 44 1 8 40
M  V30 45 1 11 41
M  V30 46 1 13 42
M  V30 47 1 14 43
M  V30 48 1 17 44
M  V30 49 1 18 45
M  V30 50 1 18 46
M  V30 51 1 19 47
M  V30 52 1 20 48
M  V30 53 1 20 49
M  V30 54 1 21 50
M  V30 55 1 21 51
M  V30 56 1 26 52
M  V30 57 1 27 53
M  V30 58 1 28 54
M  V30 59 1 31 55
M  V30 60 1 31 56
M  V30 61 1 31 57
M  V30 62 1 32 58
M  V30 63 1 32 59
M  V30 64 1 32 60
M  V30 65 1 33 61
M  V30 END BOND
M  V30 END CTAB
M  END
>  <Dataset>  (985) 
ChEMBL_Kinases

>  <Ligand_Instance>  (985) 
nan

>  <PDB_ID>  (985) 
nan

>  <Standardized_SMILES>  (985) 
C=CCn1c(=O)c2cnc(Nc3ccc4c(c3)CNCC4)nc2n1-c1cccc(C(C)(C)O)n1

>  <Name>  (985) 
nan

>  <Pocket>  (985) 
nan

>  <ATP_Site>  (985) 
nan

>  <Peripheral>  (985) 
nan

>  <Num_H_Atoms_ProtBoundConf>  (985) 
nan

>  <Num_Resolved_Atoms>  (985) 
nan

>  <Num_Not_Resolved_Atoms>  (985) 
nan

$$$$
CHEMBL3944193
     RDKit          3D

  0  0  0  0  0  0  0  0  0  0999 V3000
M  V30 BEGIN CTAB
M  V30 COUNTS 50 55 0 0 0
M  V30 BEGIN ATOM
M  V30 1 O 1.008949 -7.243288 2.315038 0
M  V30 2 C 0.892781 -5.882420 2.087650 0
M  V30 3 C 1.811844 -4.946400 2.521441 0
M  V30 4 C 1.678428 -3.595783 2.285057 0
M  V30 5 C 0.566123 -3.135687 1.574229 0
M  V30 6 C 0.529622 -1.688692 1.383850 0
M  V30 7 C 1.643593 -0.975683 0.992832 0
M  V30 8 C 1.587586 0.387288 0.819175 0
M  V30 9 C 0.459708 1.113894 1.014891 0
M  V30 10 C 0.201240 2.459187 0.896836 0
M  V30 11 C 1.023322 3.594214 0.524137 0
M  V30 12 N 0.519719 4.840586 0.484140 0
M  V30 13 C 1.449243 5.727323 0.117551 0
M  V30 14 C 1.414749 7.105091 -0.063778 0
M  V30 15 C 2.573590 7.780137 -0.461335 0
M  V30 16 C 3.725390 7.042628 -0.661849 0
M  V30 17 C 3.787171 5.667321 -0.488024 0
M  V30 18 C 2.619735 5.049228 -0.096081 0
M  V30 19 N 2.292788 3.776409 0.165643 0
M  V30 20 N -1.120489 2.527183 1.234466 0
M  V30 21 N -1.604193 1.339290 1.525631 0
M  V30 22 C -0.651811 0.398460 1.405601 0
M  V30 23 C -0.629608 -0.968488 1.588682 0
M  V30 24 C -0.367596 -4.050446 1.129299 0
M  V30 25 O -1.430228 -3.513952 0.438906 0
M  V30 26 C -2.472268 -4.216418 -0.094792 0
M  V30 27 C -3.606827 -4.454376 0.656975 0
M  V30 28 C -4.698864 -5.166820 0.157684 0
M  V30 29 C -4.569964 -5.619842 -1.142138 0
M  V30 30 C -3.451606 -5.414019 -1.955866 0
M  V30 31 C -2.409043 -4.698023 -1.388558 0
M  V30 32 C -0.209525 -5.398941 1.380001 0
M  V30 33 H 1.477570 -7.490849 3.187815 0
M  V30 34 H 2.673937 -5.303319 3.072408 0
M  V30 35 H 2.450557 -2.918651 2.662241 0
M  V30 36 H 2.542561 -1.547339 0.835806 0
M  V30 37 H 2.498690 0.865270 0.513905 0
M  V30 38 H 0.496328 7.649881 0.102088 0
M  V30 39 H 2.562727 8.858291 -0.607469 0
M  V30 40 H 4.656192 7.522483 -0.972557 0
M  V30 41 H 4.665424 5.068428 -0.635866 0
M  V30 42 H 2.995570 3.021274 0.085458 0
M  V30 43 H -2.600332 1.213333 1.804578 0
M  V30 44 H -1.542555 -1.455699 1.895716 0
M  V30 45 H -3.676388 -4.086089 1.671639 0
M  V30 46 H -5.597748 -5.369897 0.716484 0
M  V30 47 H -5.372376 -6.184229 -1.612465 0
M  V30 48 H -3.405356 -5.787741 -2.956465 0
M  V30 49 H -1.501116 -4.487188 -1.938526 0
M  V30 50 H -0.985721 -6.048360 0.997182 0
M  V30 END ATOM
M  V30 BEGIN BOND
M  V30 1 1 1 2
M  V30 2 2 2 3
M  V30 3 1 3 4
M  V30 4 2 4 5
M  V30 5 1 5 6
M  V30 6 2 6 7
M  V30 7 1 7 8
M  V30 8 2 8 9
M  V30 9 1 9 10
M  V30 10 1 10 11
M  V30 11 2 11 12
M  V30 12 1 12 13
M  V30 13 2 13 14
M  V30 14 1 14 15
M  V30 15 2 15 16
M  V30 16 1 16 17
M  V30 17 2 17 18
M  V30 18 1 18 19
M  V30 19 2 10 20
M  V30 20 1 20 21
M  V30 21 1 21 22
M  V30 22 2 22 23
M  V30 23 1 5 24
M  V30 24 1 24 25
M  V30 25 1 25 26
M  V30 26 2 26 27
M  V30 27 1 27 28
M  V30 28 2 28 29
M  V30 29 1 29 30
M  V30 30 2 30 31
M  V30 31 2 24 32
M  V30 32 1 32 2
M  V30 33 1 23 6
M  V30 34 1 31 26
M  V30 35 1 22 9
M  V30 36 1 19 11
M  V30 37 1 18 13
M  V30 38 1 1 33
M  V30 39 1 3 34
M  V30 40 1 4 35
M  V30 41 1 7 36
M  V30 42 1 8 37
M  V30 43 1 14 38
M  V30 44 1 15 39
M  V30 45 1 16 40
M  V30 46 1 17 41
M  V30 47 1 19 42
M  V30 48 1 21 43
M  V30 49 1 23 44
M  V30 50 1 27 45
M  V30 51 1 28 46
M  V30 52 1 29 47
M  V30 53 1 30 48
M  V30 54 1 31 49
M  V30 55 1 32 50
M  V30 END BOND
M  V30 END CTAB
M  END
>  <Dataset>  (986) 
ChEMBL_Kinases

>  <Ligand_Instance>  (986) 
nan

>  <PDB_ID>  (986) 
nan

>  <Standardized_SMILES>  (986) 
Oc1ccc(-c2ccc3c(-c4nc5ccccc5[nH]4)n[nH]c3c2)c(Oc2ccccc2)c1

>  <Name>  (986) 
nan

>  <Pocket>  (986) 
nan

>  <ATP_Site>  (986) 
nan

>  <Peripheral>  (986) 
nan

>  <Num_H_Atoms_ProtBoundConf>  (986) 
nan

>  <Num_Resolved_Atoms>  (986) 
nan

>  <Num_Not_Resolved_Atoms>  (986) 
nan

$$$$
CHEMBL393993
     RDKit          3D

  0  0  0  0  0  0  0  0  0  0999 V3000
M  V30 BEGIN CTAB
M  V30 COUNTS 65 70 0 0 0
M  V30 BEGIN ATOM
M  V30 1 C 5.253716 2.515661 2.466301 0
M  V30 2 O 4.330456 1.589259 2.992505 0
M  V30 3 C 3.341795 0.989530 2.232886 0
M  V30 4 C 3.196375 1.270421 0.869329 0
M  V30 5 C 2.208121 0.669295 0.113153 0
M  V30 6 C 1.367927 -0.220430 0.754513 0
M  V30 7 C 1.484940 -0.519126 2.098589 0
M  V30 8 C 2.484174 0.085582 2.873410 0
M  V30 9 C 2.604391 -0.240774 4.315186 0
M  V30 10 N 2.116741 0.766221 5.183017 0
M  V30 11 C 2.181347 0.495350 6.583108 0
M  V30 12 C 0.789211 0.115923 7.089833 0
M  V30 13 N -0.165458 1.174077 6.956590 0
M  V30 14 C -1.497317 0.695422 6.658081 0
M  V30 15 C 0.224125 2.120039 5.949907 0
M  V30 16 C 0.879058 1.359116 4.834617 0
M  V30 17 C 0.352882 -0.785884 -0.200860 0
M  V30 18 C 0.691803 -0.124573 -1.489358 0
M  V30 19 C 0.336712 -0.030060 -2.821228 0
M  V30 20 C -0.762146 -0.761917 -3.458643 0
M  V30 21 C -0.824712 -2.101117 -3.122497 0
M  V30 22 C -1.804563 -2.928533 -3.642796 0
M  V30 23 C -2.740804 -2.374387 -4.526092 0
M  V30 24 C -3.791858 -3.209728 -5.099686 0
M  V30 25 C -3.652268 -4.551015 -5.386058 0
M  V30 26 C -4.657287 -5.322373 -5.928072 0
M  V30 27 C -5.873718 -4.724507 -6.201764 0
M  V30 28 O -6.874927 -5.499252 -6.743399 0
M  V30 29 C -5.991062 -3.382539 -5.907506 0
M  V30 30 C -5.000861 -2.591509 -5.365676 0
M  V30 31 C -2.683022 -1.019560 -4.870629 0
M  V30 32 C -1.688945 -0.214907 -4.332790 0
M  V30 33 N 1.197134 0.852636 -3.381541 0
M  V30 34 N 2.055928 1.304498 -2.479224 0
M  V30 35 C 1.781997 0.725943 -1.287715 0
M  V30 36 H 4.755862 3.378834 1.958623 0
M  V30 37 H 5.879234 2.053263 1.654191 0
M  V30 38 H 5.881428 2.948616 3.259335 0
M  V30 39 H 3.865637 1.969602 0.393430 0
M  V30 40 H 0.823211 -1.215795 2.592968 0
M  V30 41 H 2.043318 -1.181282 4.489681 0
M  V30 42 H 3.669504 -0.503915 4.552491 0
M  V30 43 H 2.648493 1.300367 7.150648 0
M  V30 44 H 2.777432 -0.454866 6.717275 0
M  V30 45 H 0.839433 -0.165062 8.149452 0
M  V30 46 H 0.459021 -0.749763 6.476318 0
M  V30 47 H -2.006379 1.460635 6.038863 0
M  V30 48 H -1.479511 -0.253728 6.062390 0
M  V30 49 H -2.007692 0.521114 7.616808 0
M  V30 50 H -0.631973 2.686709 5.507243 0
M  V30 51 H 0.904810 2.852157 6.437842 0
M  V30 52 H 0.918851 2.040304 3.964399 0
M  V30 53 H 0.163761 0.551036 4.545372 0
M  V30 54 H -0.676350 -0.479551 0.102435 0
M  V30 55 H 0.371086 -1.876472 -0.241360 0
M  V30 56 H -0.175026 -2.662471 -2.458716 0
M  V30 57 H -1.931587 -3.985875 -3.437280 0
M  V30 58 H -2.688340 -5.021799 -5.168105 0
M  V30 59 H -4.461425 -6.381293 -6.124707 0
M  V30 60 H -7.191709 -6.348085 -6.288766 0
M  V30 61 H -6.971885 -2.950763 -6.140560 0
M  V30 62 H -5.187060 -1.555201 -5.171186 0
M  V30 63 H -3.381204 -0.548831 -5.546111 0
M  V30 64 H -1.583421 0.840666 -4.555121 0
M  V30 65 H 2.821532 1.996857 -2.658551 0
M  V30 END ATOM
M  V30 BEGIN BOND
M  V30 1 1 1 2
M  V30 2 1 2 3
M  V30 3 2 3 4
M  V30 4 1 4 5
M  V30 5 2 5 6
M  V30 6 1 6 7
M  V30 7 2 7 8
M  V30 8 1 8 9
M  V30 9 1 9 10
M  V30 10 1 10 11
M  V30 11 1 11 12
M  V30 12 1 12 13
M  V30 13 1 13 14
M  V30 14 1 13 15
M  V30 15 1 15 16
M  V30 16 1 6 17
M  V30 17 1 17 18
M  V30 18 1 18 19
M  V30 19 1 19 20
M  V30 20 2 20 21
M  V30 21 1 21 22
M  V30 22 2 22 23
M  V30 23 1 23 24
M  V30 24 2 24 25
M  V30 25 1 25 26
M  V30 26 2 26 27
M  V30 27 1 27 28
M  V30 28 1 27 29
M  V30 29 2 29 30
M  V30 30 1 23 31
M  V30 31 2 31 32
M  V30 32 2 19 33
M  V30 33 1 33 34
M  V30 34 1 34 35
M  V30 35 1 8 3
M  V30 36 1 16 10
M  V30 37 2 35 18
M  V30 38 1 35 5
M  V30 39 1 32 20
M  V30 40 1 30 24
M  V30 41 1 1 36
M  V30 42 1 1 37
M  V30 43 1 1 38
M  V30 44 1 4 39
M  V30 45 1 7 40
M  V30 46 1 9 41
M  V30 47 1 9 42
M  V30 48 1 11 43
M  V30 49 1 11 44
M  V30 50 1 12 45
M  V30 51 1 12 46
M  V30 52 1 14 47
M  V30 53 1 14 48
M  V30 54 1 14 49
M  V30 55 1 15 50
M  V30 56 1 15 51
M  V30 57 1 16 52
M  V30 58 1 16 53
M  V30 59 1 17 54
M  V30 60 1 17 55
M  V30 61 1 21 56
M  V30 62 1 22 57
M  V30 63 1 25 58
M  V30 64 1 26 59
M  V30 65 1 28 60
M  V30 66 1 29 61
M  V30 67 1 30 62
M  V30 68 1 31 63
M  V30 69 1 32 64
M  V30 70 1 34 65
M  V30 END BOND
M  V30 END CTAB
M  END
>  <Dataset>  (987) 
ChEMBL_Kinases

>  <Ligand_Instance>  (987) 
nan

>  <PDB_ID>  (987) 
nan

>  <Standardized_SMILES>  (987) 
COc1cc2c(cc1CN1CCN(C)CC1)Cc1c(-c3ccc(-c4ccc(O)cc4)cc3)n[nH]c1-2

>  <Name>  (987) 
nan

>  <Pocket>  (987) 
nan

>  <ATP_Site>  (987) 
nan

>  <Peripheral>  (987) 
nan

>  <Num_H_Atoms_ProtBoundConf>  (987) 
nan

>  <Num_Resolved_Atoms>  (987) 
nan

>  <Num_Not_Resolved_Atoms>  (987) 
nan

$$$$
CHEMBL3702153
     RDKit          3D

  0  0  0  0  0  0  0  0  0  0999 V3000
M  V30 BEGIN CTAB
M  V30 COUNTS 70 76 0 0 0
M  V30 BEGIN ATOM
M  V30 1 C 5.863742 0.607181 5.304633 0
M  V30 2 N 5.634080 -0.721762 4.826834 0
M  V30 3 C 5.078724 -1.599704 5.825877 0
M  V30 4 C 4.093107 -2.526183 5.144332 0
M  V30 5 O 3.040514 -1.828297 4.566650 0
M  V30 6 C 3.475495 -0.893987 3.630075 0
M  V30 7 C 2.821227 0.402775 3.970608 0
M  V30 8 C 2.885642 1.407139 2.837103 0
M  V30 9 N 2.035988 0.878251 1.793866 0
M  V30 10 C 0.795428 1.362474 1.326475 0
M  V30 11 C 0.242842 2.513694 1.841822 0
M  V30 12 C -0.972269 2.895225 1.315744 0
M  V30 13 C -1.582322 2.130855 0.313246 0
M  V30 14 N -2.842771 2.529920 -0.236409 0
M  V30 15 C -3.548837 1.816043 -1.258232 0
M  V30 16 N -4.729250 2.292244 -1.722058 0
M  V30 17 C -5.383897 1.615175 -2.678025 0
M  V30 18 C -4.815971 0.451614 -3.149361 0
M  V30 19 C -5.345519 -0.374444 -4.133217 0
M  V30 20 C -6.467482 -0.396647 -4.930237 0
M  V30 21 C -6.681853 -1.417807 -5.842813 0
M  V30 22 N -5.734140 -2.341826 -5.874689 0
M  V30 23 C -4.622624 -2.375231 -5.126431 0
M  V30 24 C -4.402261 -1.371805 -4.222618 0
M  V30 25 N -3.359001 -1.236706 -3.396920 0
M  V30 26 C -2.161541 -1.872131 -3.035699 0
M  V30 27 C -2.246285 -2.175161 -1.532686 0
M  V30 28 C -2.711050 -3.602375 -1.434344 0
M  V30 29 C -2.626679 -4.223404 -2.811870 0
M  V30 30 C -1.810067 -3.198532 -3.564461 0
M  V30 31 C -3.619641 -0.074907 -2.712394 0
M  V30 32 N -3.034940 0.686650 -1.741342 0
M  V30 33 N -0.977854 1.001713 -0.150027 0
M  V30 34 N 0.208418 0.629463 0.363936 0
M  V30 35 C 2.713307 -0.275845 1.300531 0
M  V30 36 C 2.948965 -1.362946 2.292268 0
M  V30 37 C 4.974154 -0.810270 3.558244 0
M  V30 38 H 5.171855 0.811326 6.163349 0
M  V30 39 H 6.881633 0.599080 5.790425 0
M  V30 40 H 5.852918 1.385927 4.537598 0
M  V30 41 H 5.895029 -2.231011 6.229851 0
M  V30 42 H 4.621116 -1.076316 6.674296 0
M  V30 43 H 3.661038 -3.175446 5.933367 0
M  V30 44 H 4.630441 -3.191400 4.440495 0
M  V30 45 H 1.719790 0.169663 4.075310 0
M  V30 46 H 3.126228 0.869202 4.905371 0
M  V30 47 H 2.476143 2.349091 3.260260 0
M  V30 48 H 3.916366 1.617156 2.492586 0
M  V30 49 H 0.701880 3.097586 2.601094 0
M  V30 50 H -1.487469 3.783761 1.654735 0
M  V30 51 H -3.272211 3.402426 0.136792 0
M  V30 52 H -6.321090 1.974450 -3.061783 0
M  V30 53 H -7.168964 0.430035 -4.799493 0
M  V30 54 H -7.568417 -1.423339 -6.463268 0
M  V30 55 H -3.960152 -3.197807 -5.282338 0
M  V30 56 H -1.310546 -1.141014 -3.107870 0
M  V30 57 H -1.271530 -1.998640 -1.038215 0
M  V30 58 H -3.000164 -1.563591 -1.016319 0
M  V30 59 H -3.795636 -3.665731 -1.138798 0
M  V30 60 H -2.172722 -4.193094 -0.693677 0
M  V30 61 H -2.067064 -5.181414 -2.770495 0
M  V30 62 H -3.596495 -4.355244 -3.276163 0
M  V30 63 H -1.848212 -3.391078 -4.623338 0
M  V30 64 H -0.740640 -3.405550 -3.173916 0
M  V30 65 H 2.056161 -0.711289 0.501875 0
M  V30 66 H 3.663132 -0.006918 0.785437 0
M  V30 67 H 2.060824 -2.018194 2.432085 0
M  V30 68 H 3.720450 -2.049889 1.842155 0
M  V30 69 H 5.334000 -1.724140 3.032051 0
M  V30 70 H 5.238698 0.036631 2.916636 0
M  V30 END ATOM
M  V30 BEGIN BOND
M  V30 1 1 1 2
M  V30 2 1 2 3
M  V30 3 1 3 4
M  V30 4 1 4 5
M  V30 5 1 5 6
M  V30 6 1 6 7
M  V30 7 1 7 8
M  V30 8 1 8 9
M  V30 9 1 9 10
M  V30 10 2 10 11
M  V30 11 1 11 12
M  V30 12 2 12 13
M  V30 13 1 13 14
M  V30 14 1 14 15
M  V30 15 2 15 16
M  V30 16 1 16 17
M  V30 17 2 17 18
M  V30 18 1 18 19
M  V30 19 2 19 20
M  V30 20 1 20 21
M  V30 21 2 21 22
M  V30 22 1 22 23
M  V30 23 2 23 24
M  V30 24 1 24 25
M  V30 25 1 25 26
M  V30 26 1 26 27
M  V30 27 1 27 28
M  V30 28 1 28 29
M  V30 29 1 29 30
M  V30 30 1 25 31
M  V30 31 2 31 32
M  V30 32 1 13 33
M  V30 33 2 33 34
M  V30 34 1 9 35
M  V30 35 1 35 36
M  V30 36 1 6 37
M  V30 37 1 37 2
M  V30 38 1 36 6
M  V30 39 1 34 10
M  V30 40 1 32 15
M  V30 41 1 31 18
M  V30 42 1 24 19
M  V30 43 1 30 26
M  V30 44 1 1 38
M  V30 45 1 1 39
M  V30 46 1 1 40
M  V30 47 1 3 41
M  V30 48 1 3 42
M  V30 49 1 4 43
M  V30 50 1 4 44
M  V30 51 1 7 45
M  V30 52 1 7 46
M  V30 53 1 8 47
M  V30 54 1 8 48
M  V30 55 1 11 49
M  V30 56 1 12 50
M  V30 57 1 14 51
M  V30 58 1 17 52
M  V30 59 1 20 53
M  V30 60 1 21 54
M  V30 61 1 23 55
M  V30 62 1 26 56
M  V30 63 1 27 57
M  V30 64 1 27 58
M  V30 65 1 28 59
M  V30 66 1 28 60
M  V30 67 1 29 61
M  V30 68 1 29 62
M  V30 69 1 30 63
M  V30 70 1 30 64
M  V30 71 1 35 65
M  V30 72 1 35 66
M  V30 73 1 36 67
M  V30 74 1 36 68
M  V30 75 1 37 69
M  V30 76 1 37 70
M  V30 END BOND
M  V30 END CTAB
M  END
>  <Dataset>  (988) 
ChEMBL_Kinases

>  <Ligand_Instance>  (988) 
nan

>  <PDB_ID>  (988) 
nan

>  <Standardized_SMILES>  (988) 
CN1CCOC2(CCN(c3ccc(Nc4ncc5c6ccncc6n(C6CCCC6)c5n4)nn3)CC2)C1

>  <Name>  (988) 
nan

>  <Pocket>  (988) 
nan

>  <ATP_Site>  (988) 
nan

>  <Peripheral>  (988) 
nan

>  <Num_H_Atoms_ProtBoundConf>  (988) 
nan

>  <Num_Resolved_Atoms>  (988) 
nan

>  <Num_Not_Resolved_Atoms>  (988) 
nan

$$$$
CHEMBL3939843
     RDKit          3D

  0  0  0  0  0  0  0  0  0  0999 V3000
M  V30 BEGIN CTAB
M  V30 COUNTS 47 50 0 0 0
M  V30 BEGIN ATOM
M  V30 1 C -2.365484 -6.841166 -1.497077 0
M  V30 2 C -1.421196 -5.722688 -1.721627 0
M  V30 3 C -1.046969 -5.106510 -0.529243 0
M  V30 4 C -0.170303 -4.030786 -0.473558 0
M  V30 5 C 0.352057 -3.554200 -1.667404 0
M  V30 6 C 1.247753 -2.417561 -1.822101 0
M  V30 7 O 2.054248 -2.278370 -2.761204 0
M  V30 8 C 1.328280 -1.279795 -0.902862 0
M  V30 9 C 0.172536 -1.029897 -0.178943 0
M  V30 10 C 0.091497 0.002213 0.745699 0
M  V30 11 C 1.226890 0.800688 0.932727 0
M  V30 12 C 1.220527 1.916297 1.910365 0
M  V30 13 N 0.147940 2.197263 2.692742 0
M  V30 14 C 0.435834 3.255138 3.485794 0
M  V30 15 C -0.333555 3.890511 4.436082 0
M  V30 16 C 0.216536 4.958690 5.112659 0
M  V30 17 C -0.491609 5.732139 6.157624 0
M  V30 18 N -1.844085 5.283456 6.394142 0
M  V30 19 O -0.058057 6.699796 6.833698 0
M  V30 20 C 1.512761 5.326418 4.791906 0
M  V30 21 C 2.282305 4.678288 3.830254 0
M  V30 22 C 1.725447 3.601895 3.150559 0
M  V30 23 N 2.227897 2.799511 2.190082 0
M  V30 24 C 2.394902 0.565174 0.214510 0
M  V30 25 C 2.425447 -0.475034 -0.694219 0
M  V30 26 C -0.015128 -4.162737 -2.857851 0
M  V30 27 C -0.885408 -5.227627 -2.893421 0
M  V30 28 C -1.339205 -5.927405 -4.122838 0
M  V30 29 H -3.186718 -6.522985 -0.807366 0
M  V30 30 H -1.821153 -7.657582 -0.943864 0
M  V30 31 H -2.787736 -7.268729 -2.406782 0
M  V30 32 H -1.394769 -5.395290 0.457679 0
M  V30 33 H 0.135651 -3.559188 0.428646 0
M  V30 34 H -0.803338 -1.541702 -0.210178 0
M  V30 35 H -0.776452 0.264490 1.351492 0
M  V30 36 H -1.332410 3.597894 4.675659 0
M  V30 37 H -2.573304 5.269606 5.630952 0
M  V30 38 H -2.805460 4.983336 6.488173 0
M  V30 39 H 1.890332 6.170454 5.352723 0
M  V30 40 H 3.293150 4.997902 3.606385 0
M  V30 41 H 3.153227 2.811101 1.738931 0
M  V30 42 H 3.271594 1.184025 0.357876 0
M  V30 43 H 3.296918 -0.716834 -1.283885 0
M  V30 44 H 0.329316 -3.877535 -3.834842 0
M  V30 45 H -0.799860 -6.892701 -4.176867 0
M  V30 46 H -2.411808 -6.132256 -4.021467 0
M  V30 47 H -1.178950 -5.311978 -5.038167 0
M  V30 END ATOM
M  V30 BEGIN BOND
M  V30 1 1 1 2
M  V30 2 2 2 3
M  V30 3 1 3 4
M  V30 4 2 4 5
M  V30 5 1 5 6
M  V30 6 2 6 7
M  V30 7 1 6 8
M  V30 8 2 8 9
M  V30 9 1 9 10
M  V30 10 2 10 11
M  V30 11 1 11 12
M  V30 12 2 12 13
M  V30 13 1 13 14
M  V30 14 2 14 15
M  V30 15 1 15 16
M  V30 16 1 16 17
M  V30 17 1 17 18
M  V30 18 2 17 19
M  V30 19 2 16 20
M  V30 20 1 20 21
M  V30 21 2 21 22
M  V30 22 1 22 23
M  V30 23 1 11 24
M  V30 24 2 24 25
M  V30 25 1 5 26
M  V30 26 2 26 27
M  V30 27 1 27 28
M  V30 28 1 27 2
M  V30 29 1 25 8
M  V30 30 1 23 12
M  V30 31 1 22 14
M  V30 32 1 1 29
M  V30 33 1 1 30
M  V30 34 1 1 31
M  V30 35 1 3 32
M  V30 36 1 4 33
M  V30 37 1 9 34
M  V30 38 1 10 35
M  V30 39 1 15 36
M  V30 40 1 18 37
M  V30 41 1 18 38
M  V30 42 1 20 39
M  V30 43 1 21 40
M  V30 44 1 23 41
M  V30 45 1 24 42
M  V30 46 1 25 43
M  V30 47 1 26 44
M  V30 48 1 28 45
M  V30 49 1 28 46
M  V30 50 1 28 47
M  V30 END BOND
M  V30 END CTAB
M  END
>  <Dataset>  (989) 
ChEMBL_Kinases

>  <Ligand_Instance>  (989) 
nan

>  <PDB_ID>  (989) 
nan

>  <Standardized_SMILES>  (989) 
Cc1ccc(C(=O)c2ccc(-c3nc4cc(C(N)=O)ccc4[nH]3)cc2)cc1C

>  <Name>  (989) 
nan

>  <Pocket>  (989) 
nan

>  <ATP_Site>  (989) 
nan

>  <Peripheral>  (989) 
nan

>  <Num_H_Atoms_ProtBoundConf>  (989) 
nan

>  <Num_Resolved_Atoms>  (989) 
nan

>  <Num_Not_Resolved_Atoms>  (989) 
nan

$$$$
CHEMBL3939592
     RDKit          3D

  0  0  0  0  0  0  0  0  0  0999 V3000
M  V30 BEGIN CTAB
M  V30 COUNTS 67 73 0 0 0
M  V30 BEGIN ATOM
M  V30 1 C 4.414238 -2.083440 -0.931041 0
M  V30 2 C 3.835261 -1.141057 -1.949065 0
M  V30 3 C 2.532753 -1.571870 -2.517473 0
M  V30 4 N 2.464099 -2.787095 -3.204913 0
M  V30 5 C 2.611425 -4.004125 -2.536501 0
M  V30 6 C 2.050449 -5.205280 -3.265020 0
M  V30 7 O 2.475332 -5.115823 -4.593911 0
M  V30 8 C 1.708766 -4.091483 -5.149762 0
M  V30 9 C 1.953517 -2.763245 -4.526436 0
M  V30 10 N 3.691451 0.204754 -1.377032 0
M  V30 11 C 2.885684 0.483859 -0.214849 0
M  V30 12 C 2.732734 1.753504 0.346680 0
M  V30 13 C 1.939483 1.929344 1.460672 0
M  V30 14 C 1.296097 0.855324 2.022996 0
M  V30 15 C 0.519884 1.108352 3.133653 0
M  V30 16 C -0.155231 0.034222 3.735725 0
M  V30 17 N -0.950806 0.204310 4.869384 0
M  V30 18 C -0.411203 0.088346 6.093754 0
M  V30 19 N -1.306516 0.281410 7.072188 0
M  V30 20 C -2.494045 0.537067 6.450918 0
M  V30 21 C -3.767214 0.812733 6.939685 0
M  V30 22 N -4.784221 1.032175 6.054322 0
M  V30 23 C -4.520593 0.974667 4.735210 0
M  V30 24 C -5.509408 1.188348 3.803087 0
M  V30 25 N -5.315617 1.146862 2.474270 0
M  V30 26 C -4.078437 0.879857 1.955267 0
M  V30 27 C -3.946670 0.852110 0.505218 0
M  V30 28 C -5.069999 1.095723 -0.253883 0
M  V30 29 C -5.055312 1.095066 -1.631557 0
M  V30 30 N -3.898062 0.846420 -2.293504 0
M  V30 31 C -2.783111 0.604090 -1.547298 0
M  V30 32 C -2.795074 0.604633 -0.167764 0
M  V30 33 C -3.054451 0.658043 2.855247 0
M  V30 34 C -3.269812 0.704011 4.212447 0
M  V30 35 C -2.242478 0.482302 5.096292 0
M  V30 36 C 0.011433 -1.232877 3.156049 0
M  V30 37 C 0.793580 -1.465953 2.042929 0
M  V30 38 C 1.449503 -0.397305 1.465220 0
M  V30 39 N 2.229136 -0.534059 0.380805 0
M  V30 40 H 4.873358 -1.451077 -0.130669 0
M  V30 41 H 5.232548 -2.729837 -1.365565 0
M  V30 42 H 3.706876 -2.735926 -0.429138 0
M  V30 43 H 4.632013 -1.014229 -2.725510 0
M  V30 44 H 2.176750 -0.760454 -3.217723 0
M  V30 45 H 1.789049 -1.584390 -1.692904 0
M  V30 46 H 2.019613 -3.955809 -1.575299 0
M  V30 47 H 3.640102 -4.292931 -2.237625 0
M  V30 48 H 2.456651 -6.130563 -2.834243 0
M  V30 49 H 0.952433 -5.137583 -3.227342 0
M  V30 50 H 0.639428 -4.413920 -4.998573 0
M  V30 51 H 1.843016 -4.086181 -6.247864 0
M  V30 52 H 0.964136 -2.236749 -4.487360 0
M  V30 53 H 2.550330 -2.169928 -5.254989 0
M  V30 54 H 4.160837 1.065634 -1.765714 0
M  V30 55 H 3.263912 2.559055 -0.139625 0
M  V30 56 H 1.878942 2.933919 1.822831 0
M  V30 57 H 0.411470 2.094475 3.556327 0
M  V30 58 H 0.597174 -0.129412 6.434287 0
M  V30 59 H -3.915366 0.846266 8.009615 0
M  V30 60 H -6.526299 1.409371 4.096668 0
M  V30 61 H -6.027526 1.298983 0.201190 0
M  V30 62 H -5.936607 1.285127 -2.241604 0
M  V30 63 H -1.898783 0.414332 -2.145581 0
M  V30 64 H -1.894946 0.410875 0.364031 0
M  V30 65 H -2.144235 0.462343 2.378468 0
M  V30 66 H -0.514521 -2.056244 3.627949 0
M  V30 67 H 0.893842 -2.459286 1.628729 0
M  V30 END ATOM
M  V30 BEGIN BOND
M  V30 1 1 1 2
M  V30 2 1 2 3
M  V30 3 1 3 4
M  V30 4 1 4 5
M  V30 5 1 5 6
M  V30 6 1 6 7
M  V30 7 1 7 8
M  V30 8 1 8 9
M  V30 9 1 2 10
M  V30 10 1 10 11
M  V30 11 2 11 12
M  V30 12 1 12 13
M  V30 13 2 13 14
M  V30 14 1 14 15
M  V30 15 2 15 16
M  V30 16 1 16 17
M  V30 17 1 17 18
M  V30 18 2 18 19
M  V30 19 1 19 20
M  V30 20 2 20 21
M  V30 21 1 21 22
M  V30 22 2 22 23
M  V30 23 1 23 24
M  V30 24 2 24 25
M  V30 25 1 25 26
M  V30 26 1 26 27
M  V30 27 2 27 28
M  V30 28 1 28 29
M  V30 29 2 29 30
M  V30 30 1 30 31
M  V30 31 2 31 32
M  V30 32 2 26 33
M  V30 33 1 33 34
M  V30 34 2 34 35
M  V30 35 1 16 36
M  V30 36 2 36 37
M  V30 37 1 37 38
M  V30 38 2 38 39
M  V30 39 1 9 4
M  V30 40 1 39 11
M  V30 41 1 38 14
M  V30 42 1 35 17
M  V30 43 1 35 20
M  V30 44 1 34 23
M  V30 45 1 32 27
M  V30 46 1 1 40
M  V30 47 1 1 41
M  V30 48 1 1 42
M  V30 49 1 2 43
M  V30 50 1 3 44
M  V30 51 1 3 45
M  V30 52 1 5 46
M  V30 53 1 5 47
M  V30 54 1 6 48
M  V30 55 1 6 49
M  V30 56 1 8 50
M  V30 57 1 8 51
M  V30 58 1 9 52
M  V30 59 1 9 53
M  V30 60 1 10 54
M  V30 61 1 12 55
M  V30 62 1 13 56
M  V30 63 1 15 57
M  V30 64 1 18 58
M  V30 65 1 21 59
M  V30 66 1 24 60
M  V30 67 1 28 61
M  V30 68 1 29 62
M  V30 69 1 31 63
M  V30 70 1 32 64
M  V30 71 1 33 65
M  V30 72 1 36 66
M  V30 73 1 37 67
M  V30 END BOND
M  V30 END CTAB
M  END
>  <Dataset>  (990) 
ChEMBL_Kinases

>  <Ligand_Instance>  (990) 
nan

>  <PDB_ID>  (990) 
nan

>  <Standardized_SMILES>  (990) 
CC(CN1CCOCC1)Nc1ccc2cc(-n3cnc4cnc5cnc(-c6ccncc6)cc5c43)ccc2n1

>  <Name>  (990) 
nan

>  <Pocket>  (990) 
nan

>  <ATP_Site>  (990) 
nan

>  <Peripheral>  (990) 
nan

>  <Num_H_Atoms_ProtBoundConf>  (990) 
nan

>  <Num_Resolved_Atoms>  (990) 
nan

>  <Num_Not_Resolved_Atoms>  (990) 
nan

$$$$
CHEMBL3939513
     RDKit          3D

  0  0  0  0  0  0  0  0  0  0999 V3000
M  V30 BEGIN CTAB
M  V30 COUNTS 38 41 0 0 0
M  V30 BEGIN ATOM
M  V30 1 C 2.014791 -4.058761 2.425062 0
M  V30 2 N 2.770716 -2.853553 2.076355 0
M  V30 3 C 3.977850 -2.795148 1.475108 0
M  V30 4 C 4.287252 -1.453253 1.341081 0
M  V30 5 C 3.260895 -0.699863 1.865949 0
M  V30 6 N 2.924192 0.694991 2.039115 0
M  V30 7 C 2.001193 0.965221 0.975610 0
M  V30 8 C 0.732602 0.511396 1.325089 0
M  V30 9 C -0.390610 0.615835 0.485281 0
M  V30 10 C -1.684499 0.097062 0.926120 0
M  V30 11 C -1.886905 -1.225672 0.507344 0
M  V30 12 C -3.051868 -1.879135 0.836284 0
M  V30 13 C -4.071320 -1.305845 1.573115 0
M  V30 14 C -3.831213 0.008247 1.969875 0
M  V30 15 C -2.679037 0.689023 1.659232 0
M  V30 16 C -0.121398 1.213488 -0.728034 0
M  V30 17 C -1.007974 1.461732 -1.767601 0
M  V30 18 C -2.428644 1.143928 -1.811516 0
M  V30 19 N -3.566407 0.869345 -1.850673 0
M  V30 20 C -0.244782 2.072293 -2.742677 0
M  V30 21 N 1.037245 2.199270 -2.340069 0
M  V30 22 C 1.124967 1.668918 -1.091724 0
M  V30 23 N 2.168278 1.535440 -0.229840 0
M  V30 24 N 2.360131 -1.622670 2.303184 0
M  V30 25 H 1.428462 -4.408904 1.538475 0
M  V30 26 H 1.307960 -3.870782 3.237656 0
M  V30 27 H 2.677724 -4.893997 2.703329 0
M  V30 28 H 4.604241 -3.606729 1.149557 0
M  V30 29 H 5.139192 -0.933203 0.929443 0
M  V30 30 H 3.343077 1.283398 2.818235 0
M  V30 31 H 0.500302 0.040208 2.275434 0
M  V30 32 H -1.188921 -1.831561 -0.084914 0
M  V30 33 H -3.257411 -2.920142 0.527426 0
M  V30 34 H -4.993406 -1.803156 1.842567 0
M  V30 35 H -4.583738 0.530605 2.556517 0
M  V30 36 H -2.438014 1.702425 1.937723 0
M  V30 37 H -0.606937 2.422374 -3.725325 0
M  V30 38 H 1.846736 2.616044 -2.845610 0
M  V30 END ATOM
M  V30 BEGIN BOND
M  V30 1 1 1 2
M  V30 2 1 2 3
M  V30 3 2 3 4
M  V30 4 1 4 5
M  V30 5 1 5 6
M  V30 6 1 6 7
M  V30 7 2 7 8
M  V30 8 1 8 9
M  V30 9 1 9 10
M  V30 10 2 10 11
M  V30 11 1 11 12
M  V30 12 2 12 13
M  V30 13 1 13 14
M  V30 14 2 14 15
M  V30 15 2 9 16
M  V30 16 1 16 17
M  V30 17 1 17 18
M  V30 18 3 18 19
M  V30 19 2 17 20
M  V30 20 1 20 21
M  V30 21 1 21 22
M  V30 22 2 22 23
M  V30 23 2 5 24
M  V30 24 1 24 2
M  V30 25 1 23 7
M  V30 26 1 15 10
M  V30 27 1 22 16
M  V30 28 1 1 25
M  V30 29 1 1 26
M  V30 30 1 1 27
M  V30 31 1 3 28
M  V30 32 1 4 29
M  V30 33 1 6 30
M  V30 34 1 8 31
M  V30 35 1 11 32
M  V30 36 1 12 33
M  V30 37 1 13 34
M  V30 38 1 14 35
M  V30 39 1 15 36
M  V30 40 1 20 37
M  V30 41 1 21 38
M  V30 END BOND
M  V30 END CTAB
M  END
>  <Dataset>  (991) 
ChEMBL_Kinases

>  <Ligand_Instance>  (991) 
nan

>  <PDB_ID>  (991) 
nan

>  <Standardized_SMILES>  (991) 
Cn1ccc(Nc2cc(-c3ccccc3)c3c(C#N)c[nH]c3n2)n1

>  <Name>  (991) 
nan

>  <Pocket>  (991) 
nan

>  <ATP_Site>  (991) 
nan

>  <Peripheral>  (991) 
nan

>  <Num_H_Atoms_ProtBoundConf>  (991) 
nan

>  <Num_Resolved_Atoms>  (991) 
nan

>  <Num_Not_Resolved_Atoms>  (991) 
nan

$$$$
CHEMBL3939511
     RDKit          3D

  0  0  0  0  0  0  0  0  0  0999 V3000
M  V30 BEGIN CTAB
M  V30 COUNTS 58 62 0 0 0
M  V30 BEGIN ATOM
M  V30 1 N 8.588847 0.991559 5.057831 0
M  V30 2 C 8.422426 -0.360966 4.663303 0
M  V30 3 O 9.500189 -0.837931 5.069640 0
M  V30 4 C 7.257431 -0.894622 3.979970 0
M  V30 5 C 7.243799 -2.232306 3.657044 0
M  V30 6 C 6.081816 -2.632341 3.005688 0
M  V30 7 C 5.040967 -1.772244 2.710474 0
M  V30 8 N 3.859658 -1.985802 2.093691 0
M  V30 9 C 3.199797 -0.803123 2.057204 0
M  V30 10 C 1.876365 -0.585635 1.472385 0
M  V30 11 C 1.275385 0.657864 1.482036 0
M  V30 12 C 0.028256 0.847846 0.925318 0
M  V30 13 C -0.678071 -0.180074 0.335956 0
M  V30 14 O -1.891992 -0.246869 -0.266906 0
M  V30 15 C -2.828358 0.786274 -0.468790 0
M  V30 16 C -4.100846 0.593172 0.282621 0
M  V30 17 C -5.159840 1.471914 -0.349998 0
M  V30 18 C -5.418557 0.825385 -1.718174 0
M  V30 19 N -4.250033 0.818782 -2.510511 0
M  V30 20 C -4.117538 -0.254215 -3.451461 0
M  V30 21 C -4.129729 -1.603892 -2.896840 0
M  V30 22 C -3.049217 -2.319105 -2.465067 0
M  V30 23 C -3.104453 -3.593141 -1.951918 0
M  V30 24 C -4.303092 -4.227138 -1.848025 0
M  V30 25 C -5.449062 -3.571638 -2.263945 0
M  V30 26 C -5.337621 -2.294589 -2.771079 0
M  V30 27 C -3.008871 1.113158 -1.910783 0
M  V30 28 C -0.066594 -1.443277 0.326759 0
M  V30 29 C 1.200522 -1.640434 0.891456 0
M  V30 30 N 3.967256 0.133293 2.646639 0
M  V30 31 C 5.130101 -0.438565 3.068694 0
M  V30 32 C 6.261005 0.020223 3.719007 0
M  V30 33 H 8.648835 1.788749 4.402093 0
M  V30 34 H 8.684436 1.506782 5.969058 0
M  V30 35 H 8.056219 -2.894258 3.889779 0
M  V30 36 H 5.976782 -3.667854 2.710454 0
M  V30 37 H 3.540495 -2.901871 1.724030 0
M  V30 38 H 1.763202 1.505737 1.921830 0
M  V30 39 H -0.517488 1.779552 0.886122 0
M  V30 40 H -2.341287 1.693727 0.006264 0
M  V30 41 H -4.476210 -0.445227 0.268211 0
M  V30 42 H -4.033098 0.938265 1.351645 0
M  V30 43 H -4.830415 2.499269 -0.549620 0
M  V30 44 H -6.095846 1.429579 0.232495 0
M  V30 45 H -5.678523 -0.241186 -1.450145 0
M  V30 46 H -6.327397 1.228108 -2.190254 0
M  V30 47 H -3.122437 -0.097088 -3.964680 0
M  V30 48 H -4.888800 -0.178464 -4.261879 0
M  V30 49 H -2.075894 -1.852818 -2.529912 0
M  V30 50 H -2.199889 -4.085256 -1.633616 0
M  V30 51 H -4.357864 -5.224230 -1.448055 0
M  V30 52 H -6.364648 -4.104039 -2.164793 0
M  V30 53 H -6.303216 -1.881941 -3.066960 0
M  V30 54 H -2.717771 2.187568 -2.134784 0
M  V30 55 H -2.202115 0.540538 -2.464626 0
M  V30 56 H -0.468734 -2.370141 -0.091193 0
M  V30 57 H 1.699665 -2.594198 0.902552 0
M  V30 58 H 6.336661 1.061280 4.001032 0
M  V30 END ATOM
M  V30 BEGIN BOND
M  V30 1 1 1 2
M  V30 2 2 2 3
M  V30 3 1 2 4
M  V30 4 2 4 5
M  V30 5 1 5 6
M  V30 6 2 6 7
M  V30 7 1 7 8
M  V30 8 1 8 9
M  V30 9 1 9 10
M  V30 10 2 10 11
M  V30 11 1 11 12
M  V30 12 2 12 13
M  V30 13 1 13 14
M  V30 14 1 14 15
M  V30 15 1 15 16
M  V30 16 1 16 17
M  V30 17 1 17 18
M  V30 18 1 18 19
M  V30 19 1 19 20
M  V30 20 1 20 21
M  V30 21 2 21 22
M  V30 22 1 22 23
M  V30 23 2 23 24
M  V30 24 1 24 25
M  V30 25 2 25 26
M  V30 26 1 19 27
M  V30 27 1 13 28
M  V30 28 2 28 29
M  V30 29 2 9 30
M  V30 30 1 30 31
M  V30 31 2 31 32
M  V30 32 1 32 4
M  V30 33 1 31 7
M  V30 34 1 29 10
M  V30 35 1 27 15
M  V30 36 1 26 21
M  V30 37 1 1 33
M  V30 38 1 1 34
M  V30 39 1 5 35
M  V30 40 1 6 36
M  V30 41 1 8 37
M  V30 42 1 11 38
M  V30 43 1 12 39
M  V30 44 1 15 40
M  V30 45 1 16 41
M  V30 46 1 16 42
M  V30 47 1 17 43
M  V30 48 1 17 44
M  V30 49 1 18 45
M  V30 50 1 18 46
M  V30 51 1 20 47
M  V30 52 1 20 48
M  V30 53 1 22 49
M  V30 54 1 23 50
M  V30 55 1 24 51
M  V30 56 1 25 52
M  V30 57 1 26 53
M  V30 58 1 27 54
M  V30 59 1 27 55
M  V30 60 1 28 56
M  V30 61 1 29 57
M  V30 62 1 32 58
M  V30 END BOND
M  V30 END CTAB
M  END
>  <Dataset>  (992) 
ChEMBL_Kinases

>  <Ligand_Instance>  (992) 
nan

>  <PDB_ID>  (992) 
nan

>  <Standardized_SMILES>  (992) 
NC(=O)c1ccc2[nH]c(-c3ccc(OC4CCCN(Cc5ccccc5)C4)cc3)nc2c1

>  <Name>  (992) 
nan

>  <Pocket>  (992) 
nan

>  <ATP_Site>  (992) 
nan

>  <Peripheral>  (992) 
nan

>  <Num_H_Atoms_ProtBoundConf>  (992) 
nan

>  <Num_Resolved_Atoms>  (992) 
nan

>  <Num_Not_Resolved_Atoms>  (992) 
nan

$$$$
CHEMBL3939506
     RDKit          3D

  0  0  0  0  0  0  0  0  0  0999 V3000
M  V30 BEGIN CTAB
M  V30 COUNTS 65 69 0 0 0
M  V30 BEGIN ATOM
M  V30 1 C 8.268343 -0.780260 2.718086 0
M  V30 2 O 7.228011 -0.595807 3.476104 0
M  V30 3 C 6.155851 -0.374909 4.138263 0
M  V30 4 C 6.124475 -0.714865 5.497608 0
M  V30 5 C 4.968966 -0.487173 6.250969 0
M  V30 6 C 3.882115 0.074907 5.613310 0
M  V30 7 C 3.879396 0.420887 4.278967 0
M  V30 8 C 2.664670 1.009011 3.721891 0
M  V30 9 O 1.693073 1.166828 4.478423 0
M  V30 10 N 2.558133 1.401909 2.361050 0
M  V30 11 C 1.254034 1.942522 2.110023 0
M  V30 12 N 0.739480 3.174518 2.181877 0
M  V30 13 N -0.538571 3.167195 1.845467 0
M  V30 14 C -0.906907 1.919749 1.539298 0
M  V30 15 C 0.202429 1.116376 1.695395 0
M  V30 16 C -0.198384 -0.297604 1.351599 0
M  V30 17 N -1.261320 -0.033590 0.414993 0
M  V30 18 C -1.499914 -0.632939 -0.817627 0
M  V30 19 O -0.472077 -1.250234 -0.473256 0
M  V30 20 N -2.050984 -0.984086 -2.061356 0
M  V30 21 C -3.264617 -0.370083 -2.629100 0
M  V30 22 C -3.946653 -1.456126 -3.422229 0 CFG=2
M  V30 23 C -5.459955 -1.384658 -3.363483 0
M  V30 24 C -5.819274 -2.792585 -3.830878 0
M  V30 25 C -4.777709 -3.621240 -3.118755 0
M  V30 26 N -3.738352 -2.710134 -2.700325 0
M  V30 27 C -2.414453 -3.203063 -3.030678 0
M  V30 28 C -1.499181 -1.987871 -2.938831 0 CFG=2
M  V30 29 C -0.138774 -2.473524 -2.587157 0
M  V30 30 C -2.004099 1.010562 1.098645 0
M  V30 31 C -2.648031 0.407474 2.316234 0
M  V30 32 C -2.992397 1.721856 0.212834 0
M  V30 33 C 5.032696 0.185088 3.560934 0
M  V30 34 H 8.509158 -1.876707 2.587713 0
M  V30 35 H 9.190219 -0.259354 3.109402 0
M  V30 36 H 8.081854 -0.385436 1.666453 0
M  V30 37 H 7.009707 -1.160109 5.969106 0
M  V30 38 H 4.961383 -0.756356 7.303717 0
M  V30 39 H 3.038872 0.221112 6.241020 0
M  V30 40 H 3.369171 1.273392 1.716363 0
M  V30 41 H -1.211394 3.942210 1.799462 0
M  V30 42 H 0.641438 -0.874930 0.986650 0
M  V30 43 H -0.630138 -0.769496 2.277789 0
M  V30 44 H -3.983176 -0.068042 -1.838546 0
M  V30 45 H -3.007870 0.506858 -3.260313 0
M  V30 46 H -3.638697 -1.508255 -4.477907 0
M  V30 47 H -5.894371 -0.653808 -4.074599 0
M  V30 48 H -5.757845 -1.250790 -2.319256 0
M  V30 49 H -6.851974 -3.083072 -3.567512 0
M  V30 50 H -5.600972 -2.875607 -4.922192 0
M  V30 51 H -4.374744 -4.431417 -3.781694 0
M  V30 52 H -5.248986 -4.027591 -2.199403 0
M  V30 53 H -2.411206 -3.580918 -4.054279 0
M  V30 54 H -2.036587 -3.973555 -2.344804 0
M  V30 55 H -1.455830 -1.550352 -3.970552 0
M  V30 56 H 0.201745 -3.089059 -3.476437 0
M  V30 57 H -0.161473 -3.163773 -1.747905 0
M  V30 58 H 0.579277 -1.632596 -2.503846 0
M  V30 59 H -2.820355 -0.684479 2.152383 0
M  V30 60 H -3.580911 0.932266 2.596623 0
M  V30 61 H -1.984924 0.477940 3.203706 0
M  V30 62 H -3.166180 2.733003 0.651535 0
M  V30 63 H -3.955193 1.174158 0.274480 0
M  V30 64 H -2.562615 1.771563 -0.799904 0
M  V30 65 H 5.051530 0.447261 2.519241 0
M  V30 END ATOM
M  V30 BEGIN BOND
M  V30 1 1 1 2
M  V30 2 1 2 3
M  V30 3 2 3 4
M  V30 4 1 4 5
M  V30 5 2 5 6
M  V30 6 1 6 7
M  V30 7 1 7 8
M  V30 8 2 8 9
M  V30 9 1 8 10
M  V30 10 1 10 11
M  V30 11 2 11 12
M  V30 12 1 12 13
M  V30 13 1 13 14
M  V30 14 2 14 15
M  V30 15 1 15 16
M  V30 16 1 16 17
M  V30 17 1 17 18
M  V30 18 2 18 19
M  V30 19 1 18 20
M  V30 20 1 20 21
M  V30 21 1 21 22
M  V30 22 1 22 23
M  V30 23 1 23 24
M  V30 24 1 24 25
M  V30 25 1 25 26
M  V30 26 1 26 27
M  V30 27 1 27 28
M  V30 28 1 28 29
M  V30 29 1 17 30
M  V30 30 1 30 31
M  V30 31 1 30 32
M  V30 32 2 7 33
M  V30 33 1 33 3
M  V30 34 1 15 11
M  V30 35 1 28 20
M  V30 36 1 30 14
M  V30 37 1 26 22
M  V30 38 1 1 34
M  V30 39 1 1 35
M  V30 40 1 1 36
M  V30 41 1 4 37
M  V30 42 1 5 38
M  V30 43 1 6 39
M  V30 44 1 10 40
M  V30 45 1 13 41
M  V30 46 1 16 42
M  V30 47 1 16 43
M  V30 48 1 21 44
M  V30 49 1 21 45
M  V30 50 1 22 46 CFG=3
M  V30 51 1 23 47
M  V30 52 1 23 48
M  V30 53 1 24 49
M  V30 54 1 24 50
M  V30 55 1 25 51
M  V30 56 1 25 52
M  V30 57 1 27 53
M  V30 58 1 27 54
M  V30 59 1 28 55 CFG=3
M  V30 60 1 29 56
M  V30 61 1 29 57
M  V30 62 1 29 58
M  V30 63 1 31 59
M  V30 64 1 31 60
M  V30 65 1 31 61
M  V30 66 1 32 62
M  V30 67 1 32 63
M  V30 68 1 32 64
M  V30 69 1 33 65
M  V30 END BOND
M  V30 END CTAB
M  END
>  <Dataset>  (993) 
ChEMBL_Kinases

>  <Ligand_Instance>  (993) 
nan

>  <PDB_ID>  (993) 
nan

>  <Standardized_SMILES>  (993) 
COc1cccc(C(=O)Nc2n[nH]c3c2CN(C(=O)N2C[C@@H]4CCCN4C[C@@H]2C)C3(C)C)c1

>  <Name>  (993) 
nan

>  <Pocket>  (993) 
nan

>  <ATP_Site>  (993) 
nan

>  <Peripheral>  (993) 
nan

>  <Num_H_Atoms_ProtBoundConf>  (993) 
nan

>  <Num_Resolved_Atoms>  (993) 
nan

>  <Num_Not_Resolved_Atoms>  (993) 
nan

$$$$
CHEMBL3939478
     RDKit          3D

  0  0  0  0  0  0  0  0  0  0999 V3000
M  V30 BEGIN CTAB
M  V30 COUNTS 37 39 0 0 0
M  V30 BEGIN ATOM
M  V30 1 C 3.463700 -3.146455 2.917863 0
M  V30 2 N 2.850776 -2.247036 1.959710 0
M  V30 3 C 3.625015 -1.476131 1.056970 0
M  V30 4 O 4.902096 -1.465254 0.965449 0
M  V30 5 C 2.897645 -0.600110 0.133350 0
M  V30 6 C 3.125192 0.484935 -0.536128 0
M  V30 7 C 2.134620 1.112267 -1.399911 0
M  V30 8 C 1.412974 0.304278 -2.291459 0
M  V30 9 C 0.442020 0.714099 -3.154187 0
M  V30 10 N 0.138179 2.017541 -3.160190 0
M  V30 11 C 0.791394 2.876152 -2.322563 0
M  V30 12 C 1.769723 2.416814 -1.464386 0
M  V30 13 S 1.269189 -1.416859 0.107607 0
M  V30 14 C 1.438740 -2.031664 1.813401 0
M  V30 15 N 0.501803 -2.227819 2.696643 0
M  V30 16 C -0.870240 -1.950580 2.365920 0
M  V30 17 C -0.977885 -0.617806 1.946782 0
M  V30 18 C -2.205299 -0.058138 1.569061 0
M  V30 19 C -3.333766 -0.815599 1.603453 0
M  V30 20 C -4.626861 -0.238717 1.212472 0
M  V30 21 F -5.625890 -0.915300 1.881157 0
M  V30 22 F -4.801110 -0.439784 -0.138856 0
M  V30 23 F -4.749788 1.102976 1.524514 0
M  V30 24 C -3.179551 -2.113535 2.019149 0
M  V30 25 C -2.019595 -2.731285 2.403448 0
M  V30 26 H 3.655862 -2.639056 3.884871 0
M  V30 27 H 4.476980 -3.486271 2.576272 0
M  V30 28 H 2.876575 -4.080412 3.007051 0
M  V30 29 H 4.137439 0.868836 -0.373367 0
M  V30 30 H 1.634685 -0.772028 -2.314991 0
M  V30 31 H -0.058681 0.020742 -3.805366 0
M  V30 32 H 0.513566 3.908973 -2.361227 0
M  V30 33 H 2.301837 3.082810 -0.789006 0
M  V30 34 H -0.159520 0.112578 1.865840 0
M  V30 35 H -2.294828 0.984581 1.242524 0
M  V30 36 H -4.054494 -2.780208 2.069219 0
M  V30 37 H -1.804851 -3.713959 2.731884 0
M  V30 END ATOM
M  V30 BEGIN BOND
M  V30 1 1 1 2
M  V30 2 1 2 3
M  V30 3 2 3 4
M  V30 4 1 3 5
M  V30 5 2 5 6
M  V30 6 1 6 7
M  V30 7 2 7 8
M  V30 8 1 8 9
M  V30 9 2 9 10
M  V30 10 1 10 11
M  V30 11 2 11 12
M  V30 12 1 5 13
M  V30 13 1 13 14
M  V30 14 2 14 15
M  V30 15 1 15 16
M  V30 16 2 16 17
M  V30 17 1 17 18
M  V30 18 2 18 19
M  V30 19 1 19 20
M  V30 20 1 20 21
M  V30 21 1 20 22
M  V30 22 1 20 23
M  V30 23 1 19 24
M  V30 24 2 24 25
M  V30 25 1 14 2
M  V30 26 1 25 16
M  V30 27 1 12 7
M  V30 28 1 1 26
M  V30 29 1 1 27
M  V30 30 1 1 28
M  V30 31 1 6 29
M  V30 32 1 8 30
M  V30 33 1 9 31
M  V30 34 1 11 32
M  V30 35 1 12 33
M  V30 36 1 17 34
M  V30 37 1 18 35
M  V30 38 1 24 36
M  V30 39 1 25 37
M  V30 END BOND
M  V30 END CTAB
M  END
>  <Dataset>  (994) 
ChEMBL_Kinases

>  <Ligand_Instance>  (994) 
nan

>  <PDB_ID>  (994) 
nan

>  <Standardized_SMILES>  (994) 
CN1C(=O)/C(=C/c2ccncc2)S/C1=N\c1ccc(C(F)(F)F)cc1

>  <Name>  (994) 
nan

>  <Pocket>  (994) 
nan

>  <ATP_Site>  (994) 
nan

>  <Peripheral>  (994) 
nan

>  <Num_H_Atoms_ProtBoundConf>  (994) 
nan

>  <Num_Resolved_Atoms>  (994) 
nan

>  <Num_Not_Resolved_Atoms>  (994) 
nan

$$$$
CHEMBL3939390
     RDKit          3D

  0  0  0  0  0  0  0  0  0  0999 V3000
M  V30 BEGIN CTAB
M  V30 COUNTS 53 57 0 0 0
M  V30 BEGIN ATOM
M  V30 1 N 6.626366 -4.636119 5.811482 0
M  V30 2 C 6.614514 -3.252554 6.050581 0
M  V30 3 O 7.345550 -2.803102 6.965060 0
M  V30 4 C 5.770249 -2.385184 5.247633 0
M  V30 5 C 5.736768 -1.021121 5.457068 0
M  V30 6 C 4.934953 -0.195919 4.693938 0
M  V30 7 C 4.137543 -0.752696 3.685036 0
M  V30 8 N 3.296455 -0.119312 2.842220 0
M  V30 9 C 2.770668 -1.085413 2.068427 0
M  V30 10 C 1.794971 -0.851421 1.000811 0
M  V30 11 C 1.361603 0.435000 0.742502 0
M  V30 12 C 0.440775 0.670672 -0.261707 0
M  V30 13 C -0.071502 -0.348795 -1.030243 0
M  V30 14 N -1.014145 -0.090200 -2.058294 0
M  V30 15 C -1.465757 1.220060 -2.474805 0
M  V30 16 C -2.828303 1.479541 -1.830570 0
M  V30 17 N -3.624099 0.305096 -2.182718 0
M  V30 18 C -5.007487 0.438640 -1.915346 0
M  V30 19 C -5.545345 1.581972 -1.361834 0
M  V30 20 C -6.884278 1.769902 -1.079475 0
M  V30 21 C -7.771278 0.744062 -1.366462 0
M  V30 22 C -7.297323 -0.425115 -1.920804 0
M  V30 23 Cl -8.390108 -1.762459 -2.304813 0
M  V30 24 C -5.947451 -0.543103 -2.176042 0
M  V30 25 C -3.201820 -0.946511 -2.753234 0
M  V30 26 C -1.693211 -1.083985 -2.862821 0
M  V30 27 C 0.373895 -1.620305 -0.755633 0
M  V30 28 C 1.292263 -1.886776 0.240249 0
M  V30 29 N 3.286285 -2.271337 2.440433 0
M  V30 30 C 4.159300 -2.123512 3.461113 0
M  V30 31 C 4.975215 -2.914612 4.246429 0
M  V30 32 H 6.821258 -5.453998 6.427384 0
M  V30 33 H 6.599549 -5.623826 5.498413 0
M  V30 34 H 6.395934 -0.717061 6.262489 0
M  V30 35 H 4.963596 0.861843 4.918419 0
M  V30 36 H 3.124509 0.919307 2.834936 0
M  V30 37 H 1.766241 1.241206 1.349534 0
M  V30 38 H 0.170636 1.707514 -0.377947 0
M  V30 39 H -1.567245 1.329975 -3.578078 0
M  V30 40 H -0.802776 2.019492 -2.103540 0
M  V30 41 H -2.679811 1.545728 -0.734422 0
M  V30 42 H -3.232932 2.415978 -2.249348 0
M  V30 43 H -4.925241 2.421593 -1.110604 0
M  V30 44 H -7.271673 2.680051 -0.645053 0
M  V30 45 H -8.835029 0.779599 -1.188904 0
M  V30 46 H -5.609495 -1.481009 -2.614078 0
M  V30 47 H -3.609400 -1.794168 -2.134024 0
M  V30 48 H -3.663181 -1.044940 -3.751742 0
M  V30 49 H -1.433741 -2.123907 -2.608879 0
M  V30 50 H -1.443357 -0.855465 -3.941233 0
M  V30 51 H 0.039733 -2.492351 -1.295726 0
M  V30 52 H 1.638555 -2.894556 0.450305 0
M  V30 53 H 4.964668 -3.980380 4.041522 0
M  V30 END ATOM
M  V30 BEGIN BOND
M  V30 1 1 1 2
M  V30 2 2 2 3
M  V30 3 1 2 4
M  V30 4 2 4 5
M  V30 5 1 5 6
M  V30 6 2 6 7
M  V30 7 1 7 8
M  V30 8 1 8 9
M  V30 9 1 9 10
M  V30 10 2 10 11
M  V30 11 1 11 12
M  V30 12 2 12 13
M  V30 13 1 13 14
M  V30 14 1 14 15
M  V30 15 1 15 16
M  V30 16 1 16 17
M  V30 17 1 17 18
M  V30 18 2 18 19
M  V30 19 1 19 20
M  V30 20 2 20 21
M  V30 21 1 21 22
M  V30 22 1 22 23
M  V30 23 2 22 24
M  V30 24 1 17 25
M  V30 25 1 25 26
M  V30 26 1 13 27
M  V30 27 2 27 28
M  V30 28 2 9 29
M  V30 29 1 29 30
M  V30 30 2 30 31
M  V30 31 1 31 4
M  V30 32 1 30 7
M  V30 33 1 28 10
M  V30 34 1 26 14
M  V30 35 1 24 18
M  V30 36 1 1 32
M  V30 37 1 1 33
M  V30 38 1 5 34
M  V30 39 1 6 35
M  V30 40 1 8 36
M  V30 41 1 11 37
M  V30 42 1 12 38
M  V30 43 1 15 39
M  V30 44 1 15 40
M  V30 45 1 16 41
M  V30 46 1 16 42
M  V30 47 1 19 43
M  V30 48 1 20 44
M  V30 49 1 21 45
M  V30 50 1 24 46
M  V30 51 1 25 47
M  V30 52 1 25 48
M  V30 53 1 26 49
M  V30 54 1 26 50
M  V30 55 1 27 51
M  V30 56 1 28 52
M  V30 57 1 31 53
M  V30 END BOND
M  V30 END CTAB
M  END
>  <Dataset>  (995) 
ChEMBL_Kinases

>  <Ligand_Instance>  (995) 
nan

>  <PDB_ID>  (995) 
nan

>  <Standardized_SMILES>  (995) 
NC(=O)c1ccc2[nH]c(-c3ccc(N4CCN(c5cccc(Cl)c5)CC4)cc3)nc2c1

>  <Name>  (995) 
nan

>  <Pocket>  (995) 
nan

>  <ATP_Site>  (995) 
nan

>  <Peripheral>  (995) 
nan

>  <Num_H_Atoms_ProtBoundConf>  (995) 
nan

>  <Num_Resolved_Atoms>  (995) 
nan

>  <Num_Not_Resolved_Atoms>  (995) 
nan

$$$$
CHEMBL4875677
     RDKit          3D

  0  0  0  0  0  0  0  0  0  0999 V3000
M  V30 BEGIN CTAB
M  V30 COUNTS 53 56 0 0 0
M  V30 BEGIN ATOM
M  V30 1 C -2.733651 -1.221740 4.046591 0
M  V30 2 C -1.342600 -0.672717 4.116397 0
M  V30 3 C -0.308674 -1.590715 3.566905 0
M  V30 4 C 0.097400 -1.603013 2.229504 0
M  V30 5 C 1.075178 -2.560127 2.006478 0
M  V30 6 N 1.741221 -2.871316 0.771839 0
M  V30 7 C 1.241560 -2.064214 -0.299993 0
M  V30 8 N 1.728680 -0.838191 -0.420886 0
M  V30 9 C 1.343710 0.021132 -1.379808 0
M  V30 10 N 1.930851 1.333114 -1.415287 0
M  V30 11 C 2.884532 1.672669 -0.382291 0
M  V30 12 C 2.311189 1.651498 1.001689 0
M  V30 13 C 1.199954 2.595422 1.211833 0
M  V30 14 C 1.382725 3.899724 1.671063 0
M  V30 15 C 0.380458 4.827733 1.883955 0
M  V30 16 C -0.910468 4.397607 1.608867 0
M  V30 17 F -1.963670 5.254216 1.792247 0
M  V30 18 C -1.198366 3.131121 1.151634 0
M  V30 19 C -0.128507 2.262673 0.965424 0
M  V30 20 N 0.415113 -0.390043 -2.260782 0
M  V30 21 C -0.114582 -1.611363 -2.194385 0
M  V30 22 C -1.067919 -2.094810 -3.062500 0
M  V30 23 C -1.600987 -3.369491 -2.968381 0
M  V30 24 C -1.184882 -4.218020 -1.977950 0
M  V30 25 O -1.602889 -5.522068 -1.727579 0
M  V30 26 C -2.583797 -6.084989 -2.579041 0
M  V30 27 C -0.223280 -3.802155 -1.061078 0
M  V30 28 C 0.280422 -2.512024 -1.199535 0
M  V30 29 N 1.242457 -3.111885 3.219446 0
M  V30 30 N 0.456887 -2.565871 4.118152 0
M  V30 31 H -2.949648 -1.942207 4.860228 0
M  V30 32 H -2.937994 -1.701467 3.062717 0
M  V30 33 H -3.450626 -0.369032 4.179883 0
M  V30 34 H -1.125541 -0.403374 5.169811 0
M  V30 35 H -1.290305 0.288186 3.541371 0
M  V30 36 H -0.333366 -0.926127 1.494653 0
M  V30 37 H 2.464262 -3.599958 0.793709 0
M  V30 38 H 1.609847 1.952741 -2.208556 0
M  V30 39 H 3.331042 2.653811 -0.568690 0
M  V30 40 H 3.709666 0.909844 -0.395117 0
M  V30 41 H 2.052954 0.659568 1.394006 0
M  V30 42 H 3.141020 2.023668 1.673000 0
M  V30 43 H 2.382080 4.242433 1.888834 0
M  V30 44 H 0.606113 5.821006 2.243319 0
M  V30 45 H -2.195937 2.801552 0.939395 0
M  V30 46 H -0.368594 1.281724 0.605660 0
M  V30 47 H -1.406506 -1.437208 -3.849118 0
M  V30 48 H -2.339863 -3.767803 -3.627565 0
M  V30 49 H -2.755066 -7.159441 -2.356241 0
M  V30 50 H -3.509905 -5.480912 -2.444703 0
M  V30 51 H -2.321458 -6.036580 -3.654804 0
M  V30 52 H 0.171289 -4.392394 -0.245740 0
M  V30 53 H 0.354536 -2.774169 5.139020 0
M  V30 END ATOM
M  V30 BEGIN BOND
M  V30 1 1 1 2
M  V30 2 1 2 3
M  V30 3 2 3 4
M  V30 4 1 4 5
M  V30 5 1 5 6
M  V30 6 1 6 7
M  V30 7 2 7 8
M  V30 8 1 8 9
M  V30 9 1 9 10
M  V30 10 1 10 11
M  V30 11 1 11 12
M  V30 12 1 12 13
M  V30 13 2 13 14
M  V30 14 1 14 15
M  V30 15 2 15 16
M  V30 16 1 16 17
M  V30 17 1 16 18
M  V30 18 2 18 19
M  V30 19 2 9 20
M  V30 20 1 20 21
M  V30 21 2 21 22
M  V30 22 1 22 23
M  V30 23 2 23 24
M  V30 24 1 24 25
M  V30 25 1 25 26
M  V30 26 1 24 27
M  V30 27 2 27 28
M  V30 28 2 5 29
M  V30 29 1 29 30
M  V30 30 1 30 3
M  V30 31 1 28 7
M  V30 32 1 19 13
M  V30 33 1 28 21
M  V30 34 1 1 31
M  V30 35 1 1 32
M  V30 36 1 1 33
M  V30 37 1 2 34
M  V30 38 1 2 35
M  V30 39 1 4 36
M  V30 40 1 6 37
M  V30 41 1 10 38
M  V30 42 1 11 39
M  V30 43 1 11 40
M  V30 44 1 12 41
M  V30 45 1 12 42
M  V30 46 1 14 43
M  V30 47 1 15 44
M  V30 48 1 18 45
M  V30 49 1 19 46
M  V30 50 1 22 47
M  V30 51 1 23 48
M  V30 52 1 26 49
M  V30 53 1 26 50
M  V30 54 1 26 51
M  V30 55 1 27 52
M  V30 56 1 30 53
M  V30 END BOND
M  V30 END CTAB
M  END
>  <Dataset>  (996) 
ChEMBL_Kinases

>  <Ligand_Instance>  (996) 
nan

>  <PDB_ID>  (996) 
nan

>  <Standardized_SMILES>  (996) 
CCc1cc(Nc2nc(NCCc3ccc(F)cc3)nc3ccc(OC)cc23)n[nH]1

>  <Name>  (996) 
nan

>  <Pocket>  (996) 
nan

>  <ATP_Site>  (996) 
nan

>  <Peripheral>  (996) 
nan

>  <Num_H_Atoms_ProtBoundConf>  (996) 
nan

>  <Num_Resolved_Atoms>  (996) 
nan

>  <Num_Not_Resolved_Atoms>  (996) 
nan

$$$$
CHEMBL65
     RDKit          3D

  0  0  0  0  0  0  0  0  0  0999 V3000
M  V30 BEGIN CTAB
M  V30 COUNTS 42 46 0 0 0
M  V30 BEGIN ATOM
M  V30 1 C 5.732643 -1.752354 0.222278 0
M  V30 2 C 4.330258 -1.241900 -0.029525 0
M  V30 3 C 3.840651 -0.483742 1.187184 0 CFG=1
M  V30 4 O 3.861775 -1.394020 2.242863 0
M  V30 5 C 4.801255 0.585093 1.510283 0
M  V30 6 O 5.961191 0.226936 1.893512 0
M  V30 7 O 4.573270 1.950603 1.440393 0
M  V30 8 C 3.440256 2.373942 0.705099 0
M  V30 9 C 2.315273 1.427465 0.746810 0
M  V30 10 C 2.476288 0.064003 0.974004 0
M  V30 11 C 1.376979 -0.738549 0.995721 0
M  V30 12 C 0.128291 -0.184982 0.792482 0
M  V30 13 N -0.013532 1.135488 0.573777 0
M  V30 14 C 1.041285 1.969781 0.542947 0
M  V30 15 O 0.903807 3.223109 0.335095 0
M  V30 16 C -1.425893 1.491079 0.385973 0
M  V30 17 C -2.149247 0.201720 0.518710 0
M  V30 18 C -3.512615 0.009480 0.420760 0
M  V30 19 C -3.970342 -1.289298 0.579883 0
M  V30 20 C -5.302143 -1.617506 0.506040 0
M  V30 21 C -5.724983 -2.921978 0.669321 0
M  V30 22 C -4.797100 -3.915211 0.910859 0
M  V30 23 C -3.433262 -3.616186 0.992245 0
M  V30 24 C -3.029261 -2.292685 0.824236 0
M  V30 25 N -1.707716 -2.018946 0.905584 0
M  V30 26 C -1.206281 -0.779322 0.759762 0
M  V30 27 H 6.517400 -1.018411 -0.006722 0
M  V30 28 H 5.875740 -2.039000 1.304821 0
M  V30 29 H 5.867183 -2.707760 -0.328084 0
M  V30 30 H 4.379042 -0.546061 -0.889389 0
M  V30 31 H 3.688509 -2.124261 -0.242232 0
M  V30 32 H 2.922178 -1.530080 2.524207 0
M  V30 33 H 3.123964 3.335779 1.204571 0
M  V30 34 H 3.716419 2.642474 -0.350592 0
M  V30 35 H 1.424660 -1.788908 1.163544 0
M  V30 36 H -1.761901 2.166264 1.223159 0
M  V30 37 H -1.601607 2.006702 -0.570937 0
M  V30 38 H -4.206154 0.796437 0.233292 0
M  V30 39 H -5.999385 -0.833906 0.318741 0
M  V30 40 H -6.779561 -3.188213 0.611837 0
M  V30 41 H -5.080463 -4.954270 1.045928 0
M  V30 42 H -2.731981 -4.421351 1.183273 0
M  V30 END ATOM
M  V30 BEGIN BOND
M  V30 1 1 1 2
M  V30 2 1 2 3
M  V30 3 1 3 4 CFG=1
M  V30 4 1 3 5
M  V30 5 2 5 6
M  V30 6 1 5 7
M  V30 7 1 7 8
M  V30 8 1 8 9
M  V30 9 2 9 10
M  V30 10 1 10 11
M  V30 11 2 11 12
M  V30 12 1 12 13
M  V30 13 1 13 14
M  V30 14 2 14 15
M  V30 15 1 13 16
M  V30 16 1 16 17
M  V30 17 2 17 18
M  V30 18 1 18 19
M  V30 19 2 19 20
M  V30 20 1 20 21
M  V30 21 2 21 22
M  V30 22 1 22 23
M  V30 23 2 23 24
M  V30 24 1 24 25
M  V30 25 2 25 26
M  V30 26 1 10 3
M  V30 27 1 26 12
M  V30 28 1 14 9
M  V30 29 1 26 17
M  V30 30 1 24 19
M  V30 31 1 1 27
M  V30 32 1 1 28
M  V30 33 1 1 29
M  V30 34 1 2 30
M  V30 35 1 2 31
M  V30 36 1 4 32
M  V30 37 1 8 33
M  V30 38 1 8 34
M  V30 39 1 11 35
M  V30 40 1 16 36
M  V30 41 1 16 37
M  V30 42 1 18 38
M  V30 43 1 20 39
M  V30 44 1 21 40
M  V30 45 1 22 41
M  V30 46 1 23 42
M  V30 END BOND
M  V30 END CTAB
M  END
>  <Dataset>  (997) 
ChEMBL_Kinases

>  <Ligand_Instance>  (997) 
nan

>  <PDB_ID>  (997) 
nan

>  <Standardized_SMILES>  (997) 
CC[C@@]1(O)C(=O)OCc2c1cc1n(c2=O)Cc2cc3ccccc3nc2-1

>  <Name>  (997) 
CAMPTOTHECIN

>  <Pocket>  (997) 
nan

>  <ATP_Site>  (997) 
nan

>  <Peripheral>  (997) 
nan

>  <Num_H_Atoms_ProtBoundConf>  (997) 
nan

>  <Num_Resolved_Atoms>  (997) 
nan

>  <Num_Not_Resolved_Atoms>  (997) 
nan

$$$$
CHEMBL3942173
     RDKit          3D

  0  0  0  0  0  0  0  0  0  0999 V3000
M  V30 BEGIN CTAB
M  V30 COUNTS 73 76 0 0 0
M  V30 BEGIN ATOM
M  V30 1 C 3.738948 1.030615 3.140820 0
M  V30 2 C 4.133903 1.683092 1.836721 0
M  V30 3 N 2.975419 2.137612 1.074330 0
M  V30 4 C 3.088689 2.771073 -0.219463 0
M  V30 5 C 2.672341 4.095129 -0.358486 0
M  V30 6 C 2.724849 4.838079 -1.527475 0
M  V30 7 C 2.247211 6.246360 -1.547734 0
M  V30 8 O 0.896125 6.327372 -1.871779 0
M  V30 9 C 3.238906 4.173047 -2.620932 0
M  V30 10 C 3.663121 2.859556 -2.526677 0
M  V30 11 C 3.585610 2.170217 -1.332996 0
M  V30 12 C 4.036117 0.771072 -1.265180 0
M  V30 13 C 1.547204 2.114654 1.317069 0
M  V30 14 N 0.717085 1.440901 0.490244 0
M  V30 15 C -0.618981 1.396859 0.682543 0
M  V30 16 N -1.271468 0.627830 -0.316835 0
M  V30 17 C -1.535085 -0.757461 -0.139607 0
M  V30 18 C -1.183508 -1.381377 1.062227 0
M  V30 19 C -1.460650 -2.742809 1.198101 0
M  V30 20 C -2.071774 -3.471157 0.168488 0
M  V30 21 N -2.249178 -4.826258 0.552927 0
M  V30 22 C -3.391346 -5.697321 0.756036 0
M  V30 23 C -3.239228 -6.578623 1.978311 0
M  V30 24 N -2.236729 -6.129710 2.899801 0
M  V30 25 C -2.632913 -5.038899 3.732621 0
M  V30 26 C -0.937091 -5.982590 2.287228 0
M  V30 27 C -1.042786 -5.600067 0.826248 0
M  V30 28 C -2.397982 -2.816110 -0.992553 0
M  V30 29 S -3.140065 -3.836381 -2.190694 0
M  V30 30 O -2.251685 -4.962319 -2.604241 0
M  V30 31 O -4.489231 -4.318549 -1.682023 0
M  V30 32 C -3.527647 -2.899475 -3.675023 0
M  V30 33 C -4.488195 -1.793469 -3.306192 0
M  V30 34 C -2.135114 -1.474980 -1.150167 0
M  V30 35 N -1.178149 2.037817 1.728566 0
M  V30 36 C -0.401823 2.739913 2.607014 0
M  V30 37 C 0.956730 2.748533 2.358567 0
M  V30 38 F 1.694204 3.441627 3.229365 0
M  V30 39 H 2.724257 0.583580 3.092176 0
M  V30 40 H 3.718840 1.809766 3.923698 0
M  V30 41 H 4.501349 0.274610 3.465377 0
M  V30 42 H 4.767528 2.564909 2.142895 0
M  V30 43 H 4.734825 0.928242 1.300741 0
M  V30 44 H 2.269820 4.582361 0.541749 0
M  V30 45 H 2.850252 6.775809 -2.325744 0
M  V30 46 H 2.480476 6.760751 -0.580577 0
M  V30 47 H 0.363435 6.542783 -1.060843 0
M  V30 48 H 3.287750 4.750177 -3.558463 0
M  V30 49 H 4.058224 2.385456 -3.416204 0
M  V30 50 H 5.115718 0.637605 -1.254783 0
M  V30 51 H 3.723475 0.325969 -2.262285 0
M  V30 52 H 3.462637 0.137156 -0.548800 0
M  V30 53 H -1.558323 1.106084 -1.196689 0
M  V30 54 H -0.723279 -0.767251 1.799447 0
M  V30 55 H -1.143044 -3.100156 2.164738 0
M  V30 56 H -4.313272 -5.091517 0.929016 0
M  V30 57 H -3.543262 -6.362246 -0.115794 0
M  V30 58 H -2.995413 -7.627644 1.698067 0
M  V30 59 H -4.192643 -6.640261 2.558181 0
M  V30 60 H -3.421013 -4.436792 3.205168 0
M  V30 61 H -3.131817 -5.431058 4.640553 0
M  V30 62 H -1.813484 -4.398954 4.065189 0
M  V30 63 H -0.359962 -5.255618 2.861270 0
M  V30 64 H -0.428584 -6.957501 2.382774 0
M  V30 65 H -0.109453 -5.016728 0.606170 0
M  V30 66 H -0.968096 -6.508373 0.193017 0
M  V30 67 H -4.009718 -3.589373 -4.375391 0
M  V30 68 H -2.572751 -2.477281 -4.100878 0
M  V30 69 H -4.672423 -1.774452 -2.217851 0
M  V30 70 H -4.143653 -0.813299 -3.720415 0
M  V30 71 H -5.464582 -1.986256 -3.810717 0
M  V30 72 H -2.410061 -1.011469 -2.079864 0
M  V30 73 H -0.878855 3.231540 3.419031 0
M  V30 END ATOM
M  V30 BEGIN BOND
M  V30 1 1 1 2
M  V30 2 1 2 3
M  V30 3 1 3 4
M  V30 4 2 4 5
M  V30 5 1 5 6
M  V30 6 1 6 7
M  V30 7 1 7 8
M  V30 8 2 6 9
M  V30 9 1 9 10
M  V30 10 2 10 11
M  V30 11 1 11 12
M  V30 12 1 3 13
M  V30 13 2 13 14
M  V30 14 1 14 15
M  V30 15 1 15 16
M  V30 16 1 16 17
M  V30 17 2 17 18
M  V30 18 1 18 19
M  V30 19 2 19 20
M  V30 20 1 20 21
M  V30 21 1 21 22
M  V30 22 1 22 23
M  V30 23 1 23 24
M  V30 24 1 24 25
M  V30 25 1 24 26
M  V30 26 1 26 27
M  V30 27 1 20 28
M  V30 28 1 28 29
M  V30 29 2 29 30
M  V30 30 2 29 31
M  V30 31 1 29 32
M  V30 32 1 32 33
M  V30 33 2 28 34
M  V30 34 2 15 35
M  V30 35 1 35 36
M  V30 36 2 36 37
M  V30 37 1 37 38
M  V30 38 1 11 4
M  V30 39 1 37 13
M  V30 40 1 34 17
M  V30 41 1 27 21
M  V30 42 1 1 39
M  V30 43 1 1 40
M  V30 44 1 1 41
M  V30 45 1 2 42
M  V30 46 1 2 43
M  V30 47 1 5 44
M  V30 48 1 7 45
M  V30 49 1 7 46
M  V30 50 1 8 47
M  V30 51 1 9 48
M  V30 52 1 10 49
M  V30 53 1 12 50
M  V30 54 1 12 51
M  V30 55 1 12 52
M  V30 56 1 16 53
M  V30 57 1 18 54
M  V30 58 1 19 55
M  V30 59 1 22 56
M  V30 60 1 22 57
M  V30 61 1 23 58
M  V30 62 1 23 59
M  V30 63 1 25 60
M  V30 64 1 25 61
M  V30 65 1 25 62
M  V30 66 1 26 63
M  V30 67 1 26 64
M  V30 68 1 27 65
M  V30 69 1 27 66
M  V30 70 1 32 67
M  V30 71 1 32 68
M  V30 72 1 33 69
M  V30 73 1 33 70
M  V30 74 1 33 71
M  V30 75 1 34 72
M  V30 76 1 36 73
M  V30 END BOND
M  V30 END CTAB
M  END
>  <Dataset>  (998) 
ChEMBL_Kinases

>  <Ligand_Instance>  (998) 
nan

>  <PDB_ID>  (998) 
nan

>  <Standardized_SMILES>  (998) 
CCN(c1cc(CO)ccc1C)c1nc(Nc2ccc(N3CCN(C)CC3)c(S(=O)(=O)CC)c2)ncc1F

>  <Name>  (998) 
nan

>  <Pocket>  (998) 
nan

>  <ATP_Site>  (998) 
nan

>  <Peripheral>  (998) 
nan

>  <Num_H_Atoms_ProtBoundConf>  (998) 
nan

>  <Num_Resolved_Atoms>  (998) 
nan

>  <Num_Not_Resolved_Atoms>  (998) 
nan

$$$$
CHEMBL3939277
     RDKit          3D

  0  0  0  0  0  0  0  0  0  0999 V3000
M  V30 BEGIN CTAB
M  V30 COUNTS 55 59 0 0 0
M  V30 BEGIN ATOM
M  V30 1 F 2.155624 2.398354 3.707952 0
M  V30 2 C 2.649030 3.168754 2.706271 0
M  V30 3 C 3.161318 4.388613 3.138787 0
M  V30 4 Cl 3.161590 4.869354 4.822434 0
M  V30 5 C 3.701310 5.289110 2.243509 0
M  V30 6 C 3.713535 4.934947 0.909869 0
M  V30 7 C 3.208209 3.728322 0.471587 0
M  V30 8 C 2.664580 2.815747 1.351784 0
M  V30 9 O 2.116855 1.584148 1.144206 0
M  V30 10 C 1.955185 0.896496 -0.053778 0 CFG=1
M  V30 11 C 2.749168 -0.382963 -0.128938 0
M  V30 12 C 2.219318 -1.496685 0.710072 0
M  V30 13 C 0.733536 -1.735279 0.506301 0 CFG=2
M  V30 14 C 0.021293 -1.320550 1.748927 0
M  V30 15 C -1.438041 -1.489250 1.728125 0
M  V30 16 C -1.985249 -1.065396 2.941365 0
M  V30 17 C -3.361499 -1.125117 3.171030 0
M  V30 18 C -4.208737 -1.600126 2.213942 0
M  V30 19 C -3.609242 -2.001369 1.042948 0
M  V30 20 N -4.372453 -2.513879 -0.031175 0
M  V30 21 C -4.011056 -2.989291 -1.322947 0
M  V30 22 C -3.840927 -2.497268 -2.596870 0
M  V30 23 C -3.468292 -3.576231 -3.380925 0
M  V30 24 N -3.418806 -4.678557 -2.592884 0
M  V30 25 N -3.750136 -4.301065 -1.354454 0
M  V30 26 N -2.291576 -1.944445 0.822405 0
M  V30 27 C 0.445034 -3.152006 0.162730 0
M  V30 28 N 0.401052 -3.664411 -1.086419 0
M  V30 29 N 0.118152 -4.955115 -1.026648 0
M  V30 30 N -0.024414 -5.295286 0.255911 0
M  V30 31 N 0.175154 -4.197478 0.969868 0
M  V30 32 C 0.286511 -0.878303 -0.652919 0
M  V30 33 C 0.529823 0.583860 -0.423400 0
M  V30 34 H 4.120678 6.256243 2.487173 0
M  V30 35 H 4.114679 5.563923 0.104466 0
M  V30 36 H 3.181803 3.379878 -0.552018 0
M  V30 37 H 2.365722 1.540843 -0.875982 0
M  V30 38 H 2.739369 -0.715921 -1.192025 0
M  V30 39 H 3.809819 -0.245402 0.131522 0
M  V30 40 H 2.737660 -2.427722 0.356553 0
M  V30 41 H 2.445656 -1.427033 1.777198 0
M  V30 42 H 0.213706 -0.239235 1.924295 0
M  V30 43 H 0.468754 -1.884589 2.611701 0
M  V30 44 H -1.451246 -0.659809 3.810774 0
M  V30 45 H -3.821497 -0.800716 4.110924 0
M  V30 46 H -5.277910 -1.689828 2.283801 0
M  V30 47 H -5.410267 -2.591140 0.061783 0
M  V30 48 H -4.020593 -1.434268 -2.723816 0
M  V30 49 H -3.283901 -3.388505 -4.440193 0
M  V30 50 H -3.154731 -5.602212 -3.000589 0
M  V30 51 H -0.249894 -6.271535 0.515535 0
M  V30 52 H -0.804534 -1.028031 -0.768045 0
M  V30 53 H 0.791600 -1.163753 -1.602066 0
M  V30 54 H -0.167871 0.983672 0.340595 0
M  V30 55 H 0.212231 1.106569 -1.373007 0
M  V30 END ATOM
M  V30 BEGIN BOND
M  V30 1 1 1 2
M  V30 2 2 2 3
M  V30 3 1 3 4
M  V30 4 1 3 5
M  V30 5 2 5 6
M  V30 6 1 6 7
M  V30 7 2 7 8
M  V30 8 1 8 9
M  V30 9 1 9 10
M  V30 10 1 10 11
M  V30 11 1 11 12
M  V30 12 1 12 13
M  V30 13 1 13 14 CFG=1
M  V30 14 1 14 15
M  V30 15 2 15 16
M  V30 16 1 16 17
M  V30 17 2 17 18
M  V30 18 1 18 19
M  V30 19 1 19 20
M  V30 20 1 20 21
M  V30 21 1 21 22
M  V30 22 2 22 23
M  V30 23 1 23 24
M  V30 24 1 24 25
M  V30 25 2 19 26
M  V30 26 1 13 27
M  V30 27 1 27 28
M  V30 28 2 28 29
M  V30 29 1 29 30
M  V30 30 1 30 31
M  V30 31 1 13 32
M  V30 32 1 32 33
M  V30 33 1 8 2
M  V30 34 1 33 10
M  V30 35 1 26 15
M  V30 36 2 31 27
M  V30 37 2 25 21
M  V30 38 1 5 34
M  V30 39 1 6 35
M  V30 40 1 7 36
M  V30 41 1 10 37 CFG=3
M  V30 42 1 11 38
M  V30 43 1 11 39
M  V30 44 1 12 40
M  V30 45 1 12 41
M  V30 46 1 14 42
M  V30 47 1 14 43
M  V30 48 1 16 44
M  V30 49 1 17 45
M  V30 50 1 18 46
M  V30 51 1 20 47
M  V30 52 1 22 48
M  V30 53 1 23 49
M  V30 54 1 24 50
M  V30 55 1 30 51
M  V30 56 1 32 52
M  V30 57 1 32 53
M  V30 58 1 33 54
M  V30 59 1 33 55
M  V30 END BOND
M  V30 END CTAB
M  END
>  <Dataset>  (999) 
ChEMBL_Kinases

>  <Ligand_Instance>  (999) 
nan

>  <PDB_ID>  (999) 
nan

>  <Standardized_SMILES>  (999) 
Fc1c(Cl)cccc1O[C@H]1CC[C@](Cc2cccc(Nc3cc[nH]n3)n2)(c2nn[nH]n2)CC1

>  <Name>  (999) 
nan

>  <Pocket>  (999) 
nan

>  <ATP_Site>  (999) 
nan

>  <Peripheral>  (999) 
nan

>  <Num_H_Atoms_ProtBoundConf>  (999) 
nan

>  <Num_Resolved_Atoms>  (999) 
nan

>  <Num_Not_Resolved_Atoms>  (999) 
nan

$$$$
